MODEL 1
REMARK VINA RESULT:    -8.655      0.000      0.000
REMARK INTER + INTRA:         -14.654
REMARK INTER:                 -12.917
REMARK INTRA:                  -1.737
REMARK UNBOUND:                -1.445
REMARK  10 active torsions:
REMARK  status: ('A' for Active; 'I' for Inactive)
REMARK    1  A    between atoms: N_1  and  C_5 
REMARK    2  A    between atoms: C_5  and  C_6 
REMARK    3  A    between atoms: C_6  and  O_7 
REMARK    4  A    between atoms: O_7  and  C_8 
REMARK    5  A    between atoms: C_8  and  C_9 
REMARK    6  A    between atoms: C_14  and  N_15 
REMARK       I    between atoms: N_15  and  C_17 
REMARK    7  A    between atoms: C_17  and  C_19 
REMARK    8  A    between atoms: C_21  and  O_22 
REMARK    9  A    between atoms: C_29  and  C_30 
REMARK   10  A    between atoms: C_30  and  C_31 
ROOT
HETATM    1  C   UNL     1      -2.852  13.399  21.749  0.00  0.00     0.066 C 
HETATM    2  C   UNL     1      -2.098  14.244  20.907  0.00  0.00     0.035 C 
HETATM    3  C   UNL     1      -4.201  13.741  21.970  0.00  0.00     0.083 C 
HETATM    4  C   UNL     1      -4.772  14.911  21.449  0.00  0.00     0.069 C 
HETATM    5  C   UNL     1      -3.922  15.783  20.767  0.00  0.00     0.065 C 
HETATM    6  C   UNL     1      -2.583  15.511  20.525  0.00  0.00     0.020 C 
HETATM    7  N   UNL     1      -4.140  17.006  20.185  0.00  0.00    -0.277 N 
HETATM    8  H   UNL     1      -5.018  17.511  20.123  0.00  0.00     0.189 HD
HETATM    9  N   UNL     1      -3.036  17.583  19.687  0.00  0.00    -0.178 NA
HETATM   10  C   UNL     1      -2.046  16.711  19.952  0.00  0.00     0.071 C 
ENDROOT
BRANCH   1  11
HETATM   11  C   UNL     1      -2.270  12.188  22.461  0.00  0.00     0.260 C 
HETATM   12  N   UNL     1      -1.412  12.314  23.602  0.00  0.00    -0.318 N 
HETATM   13  C   UNL     1      -1.004  13.629  24.089  0.00  0.00     0.159 C 
HETATM   14  O   UNL     1      -2.704  11.101  22.055  0.00  0.00    -0.267 OA
BRANCH  12  15
HETATM   15  C   UNL     1      -0.933  11.159  24.354  0.00  0.00     0.037 A 
HETATM   16  C   UNL     1      -1.498  10.819  25.602  0.00  0.00     0.030 A 
HETATM   17  C   UNL     1      -1.130   9.664  26.309  0.00  0.00     0.011 A 
HETATM   18  C   UNL     1      -0.188   8.795  25.777  0.00  0.00    -0.035 A 
HETATM   19  C   UNL     1       0.453   9.146  24.590  0.00  0.00     0.011 A 
HETATM   20  C   UNL     1       0.085  10.309  23.893  0.00  0.00     0.030 A 
BRANCH  18  21
HETATM   21  C   UNL     1       0.003   7.445  26.414  0.00  0.00     0.206 C 
BRANCH  21  22
HETATM   22  O   UNL     1      -0.372   6.409  25.476  0.00  0.00    -0.385 OA
BRANCH  22  23
HETATM   23  C   UNL     1       0.624   5.377  25.386  0.00  0.00     0.195 C 
BRANCH  23  24
HETATM   24  C   UNL     1       1.144   5.336  23.953  0.00  0.00     0.255 C 
BRANCH  24  25
HETATM   25  N   UNL     1       0.062   5.788  23.033  0.00  0.00    -0.077 N 
HETATM   26  H   UNL     1      -0.586   6.385  23.571  0.00  0.00     0.274 HD
HETATM   27  H   UNL     1       0.429   6.365  22.266  0.00  0.00     0.274 HD
HETATM   28  H   UNL     1      -0.466   5.003  22.635  0.00  0.00     0.274 HD
ENDBRANCH  24  25
ENDBRANCH  23  24
ENDBRANCH  22  23
ENDBRANCH  21  22
ENDBRANCH  18  21
ENDBRANCH  12  15
ENDBRANCH   1  11
BRANCH   3  29
HETATM   29  O   UNL     1      -5.065  12.963  22.705  0.00  0.00    -0.360 OA
HETATM   30  H   UNL     1      -4.780  12.027  22.612  0.00  0.00     0.217 HD
ENDBRANCH   3  29
BRANCH  10  31
HETATM   31  C   UNL     1      -0.610  17.099  19.651  0.00  0.00     0.100 C 
BRANCH  31  32
HETATM   32  C   UNL     1       0.332  16.659  20.782  0.00  0.00    -0.052 A 
HETATM   33  C   UNL     1       0.264  17.195  22.077  0.00  0.00     0.007 A 
HETATM   34  C   UNL     1       1.121  16.774  23.094  0.00  0.00     0.001 A 
HETATM   35  C   UNL     1       2.137  15.868  22.826  0.00  0.00     0.007 A 
HETATM   36  C   UNL     1       2.334  15.403  21.521  0.00  0.00    -0.061 A 
HETATM   37  C   UNL     1       1.408  15.769  20.517  0.00  0.00     0.014 A 
HETATM   38  C   UNL     1       3.539  14.546  21.246  0.00  0.00     0.048 C 
ENDBRANCH  31  32
ENDBRANCH  10  31
TORSDOF 10
ENDMDL
MODEL 2
REMARK VINA RESULT:    -8.414      1.644      2.254
REMARK INTER + INTRA:         -14.287
REMARK INTER:                 -12.686
REMARK INTRA:                  -1.601
REMARK UNBOUND:                -1.445
REMARK  10 active torsions:
REMARK  status: ('A' for Active; 'I' for Inactive)
REMARK    1  A    between atoms: N_1  and  C_5 
REMARK    2  A    between atoms: C_5  and  C_6 
REMARK    3  A    between atoms: C_6  and  O_7 
REMARK    4  A    between atoms: O_7  and  C_8 
REMARK    5  A    between atoms: C_8  and  C_9 
REMARK    6  A    between atoms: C_14  and  N_15 
REMARK       I    between atoms: N_15  and  C_17 
REMARK    7  A    between atoms: C_17  and  C_19 
REMARK    8  A    between atoms: C_21  and  O_22 
REMARK    9  A    between atoms: C_29  and  C_30 
REMARK   10  A    between atoms: C_30  and  C_31 
ROOT
HETATM    1  C   UNL     1      -2.875  13.402  21.672  0.00  0.00     0.066 C 
HETATM    2  C   UNL     1      -2.048  14.250  20.904  0.00  0.00     0.035 C 
HETATM    3  C   UNL     1      -4.229  13.772  21.811  0.00  0.00     0.083 C 
HETATM    4  C   UNL     1      -4.737  14.967  21.283  0.00  0.00     0.069 C 
HETATM    5  C   UNL     1      -3.824  15.835  20.682  0.00  0.00     0.065 C 
HETATM    6  C   UNL     1      -2.478  15.537  20.523  0.00  0.00     0.020 C 
HETATM    7  N   UNL     1      -3.974  17.076  20.119  0.00  0.00    -0.277 N 
HETATM    8  H   UNL     1      -4.834  17.604  20.011  0.00  0.00     0.189 HD
HETATM    9  N   UNL     1      -2.826  17.639  19.710  0.00  0.00    -0.178 NA
HETATM   10  C   UNL     1      -1.876  16.737  20.019  0.00  0.00     0.071 C 
ENDROOT
BRANCH   1  11
HETATM   11  C   UNL     1      -2.370  12.162  22.390  0.00  0.00     0.260 C 
HETATM   12  N   UNL     1      -1.591  12.239  23.589  0.00  0.00    -0.318 N 
HETATM   13  C   UNL     1      -1.189  13.531  24.137  0.00  0.00     0.159 C 
HETATM   14  O   UNL     1      -2.799  11.095  21.927  0.00  0.00    -0.267 OA
BRANCH  12  15
HETATM   15  C   UNL     1      -1.190  11.055  24.342  0.00  0.00     0.037 A 
HETATM   16  C   UNL     1      -0.256  10.139  23.812  0.00  0.00     0.030 A 
HETATM   17  C   UNL     1       0.225   9.042  24.543  0.00  0.00     0.011 A 
HETATM   18  C   UNL     1      -0.204   8.834  25.846  0.00  0.00    -0.035 A 
HETATM   19  C   UNL     1      -1.191   9.668  26.369  0.00  0.00     0.011 A 
HETATM   20  C   UNL     1      -1.674  10.759  25.627  0.00  0.00     0.030 A 
BRANCH  18  21
HETATM   21  C   UNL     1       0.508   7.817  26.696  0.00  0.00     0.206 C 
BRANCH  21  22
HETATM   22  O   UNL     1       1.192   8.486  27.782  0.00  0.00    -0.385 OA
BRANCH  22  23
HETATM   23  C   UNL     1       1.001   7.813  29.037  0.00  0.00     0.195 C 
BRANCH  23  24
HETATM   24  C   UNL     1       0.682   8.860  30.098  0.00  0.00     0.255 C 
BRANCH  24  25
HETATM   25  N   UNL     1      -0.761   9.219  30.005  0.00  0.00    -0.077 N 
HETATM   26  H   UNL     1      -0.960   9.934  30.722  0.00  0.00     0.274 HD
HETATM   27  H   UNL     1      -0.993   9.638  29.095  0.00  0.00     0.274 HD
HETATM   28  H   UNL     1      -1.375   8.412  30.164  0.00  0.00     0.274 HD
ENDBRANCH  24  25
ENDBRANCH  23  24
ENDBRANCH  22  23
ENDBRANCH  21  22
ENDBRANCH  18  21
ENDBRANCH  12  15
ENDBRANCH   1  11
BRANCH   3  29
HETATM   29  O   UNL     1      -5.157  12.996  22.466  0.00  0.00    -0.360 OA
HETATM   30  H   UNL     1      -5.902  13.579  22.731  0.00  0.00     0.217 HD
ENDBRANCH   3  29
BRANCH  10  31
HETATM   31  C   UNL     1      -0.415  17.098  19.825  0.00  0.00     0.100 C 
BRANCH  31  32
HETATM   32  C   UNL     1       0.453  16.523  20.955  0.00  0.00    -0.052 A 
HETATM   33  C   UNL     1       0.304  16.911  22.296  0.00  0.00     0.007 A 
HETATM   34  C   UNL     1       1.094  16.369  23.311  0.00  0.00     0.001 A 
HETATM   35  C   UNL     1       2.123  15.490  23.005  0.00  0.00     0.007 A 
HETATM   36  C   UNL     1       2.401  15.174  21.671  0.00  0.00    -0.061 A 
HETATM   37  C   UNL     1       1.541  15.660  20.659  0.00  0.00     0.014 A 
HETATM   38  C   UNL     1       3.619  14.342  21.377  0.00  0.00     0.048 C 
ENDBRANCH  31  32
ENDBRANCH  10  31
TORSDOF 10
ENDMDL
MODEL 3
REMARK VINA RESULT:    -8.302      1.762      1.947
REMARK INTER + INTRA:         -14.116
REMARK INTER:                 -12.475
REMARK INTRA:                  -1.640
REMARK UNBOUND:                -1.445
REMARK  10 active torsions:
REMARK  status: ('A' for Active; 'I' for Inactive)
REMARK    1  A    between atoms: N_1  and  C_5 
REMARK    2  A    between atoms: C_5  and  C_6 
REMARK    3  A    between atoms: C_6  and  O_7 
REMARK    4  A    between atoms: O_7  and  C_8 
REMARK    5  A    between atoms: C_8  and  C_9 
REMARK    6  A    between atoms: C_14  and  N_15 
REMARK       I    between atoms: N_15  and  C_17 
REMARK    7  A    between atoms: C_17  and  C_19 
REMARK    8  A    between atoms: C_21  and  O_22 
REMARK    9  A    between atoms: C_29  and  C_30 
REMARK   10  A    between atoms: C_30  and  C_31 
ROOT
HETATM    1  C   UNL     1      -2.574  13.254  22.124  0.00  0.00     0.066 C 
HETATM    2  C   UNL     1      -1.876  14.144  21.279  0.00  0.00     0.035 C 
HETATM    3  C   UNL     1      -3.960  13.460  22.277  0.00  0.00     0.083 C 
HETATM    4  C   UNL     1      -4.626  14.544  21.687  0.00  0.00     0.069 C 
HETATM    5  C   UNL     1      -3.842  15.475  21.005  0.00  0.00     0.065 C 
HETATM    6  C   UNL     1      -2.473  15.337  20.827  0.00  0.00     0.020 C 
HETATM    7  N   UNL     1      -4.160  16.647  20.366  0.00  0.00    -0.277 N 
HETATM    8  H   UNL     1      -5.082  17.054  20.248  0.00  0.00     0.189 HD
HETATM    9  N   UNL     1      -3.101  17.319  19.889  0.00  0.00    -0.178 NA
HETATM   10  C   UNL     1      -2.038  16.566  20.228  0.00  0.00     0.071 C 
ENDROOT
BRANCH   1  11
HETATM   11  C   UNL     1      -1.901  12.138  22.907  0.00  0.00     0.260 C 
HETATM   12  N   UNL     1      -1.158  12.389  24.106  0.00  0.00    -0.318 N 
HETATM   13  C   UNL     1      -0.958  13.751  24.591  0.00  0.00     0.159 C 
HETATM   14  O   UNL     1      -2.161  10.999  22.495  0.00  0.00    -0.267 OA
BRANCH  12  15
HETATM   15  C   UNL     1      -0.597  11.315  24.920  0.00  0.00     0.037 A 
HETATM   16  C   UNL     1       0.693  10.805  24.661  0.00  0.00     0.030 A 
HETATM   17  C   UNL     1       1.303   9.841  25.478  0.00  0.00     0.011 A 
HETATM   18  C   UNL     1       0.642   9.365  26.601  0.00  0.00    -0.035 A 
HETATM   19  C   UNL     1      -0.667   9.782  26.837  0.00  0.00     0.011 A 
HETATM   20  C   UNL     1      -1.274  10.740  26.008  0.00  0.00     0.030 A 
BRANCH  18  21
HETATM   21  C   UNL     1       1.403   8.536  27.600  0.00  0.00     0.206 C 
BRANCH  21  22
HETATM   22  O   UNL     1       2.815   8.574  27.286  0.00  0.00    -0.385 OA
BRANCH  22  23
HETATM   23  C   UNL     1       3.418   7.271  27.348  0.00  0.00     0.195 C 
BRANCH  23  24
HETATM   24  C   UNL     1       4.050   6.970  25.994  0.00  0.00     0.255 C 
BRANCH  24  25
HETATM   25  N   UNL     1       5.503   6.697  26.189  0.00  0.00    -0.077 N 
HETATM   26  H   UNL     1       5.667   5.695  26.005  0.00  0.00     0.274 HD
HETATM   27  H   UNL     1       6.083   7.221  25.523  0.00  0.00     0.274 HD
HETATM   28  H   UNL     1       5.816   6.912  27.142  0.00  0.00     0.274 HD
ENDBRANCH  24  25
ENDBRANCH  23  24
ENDBRANCH  22  23
ENDBRANCH  21  22
ENDBRANCH  18  21
ENDBRANCH  12  15
ENDBRANCH   1  11
BRANCH   3  29
HETATM   29  O   UNL     1      -4.769  12.622  23.008  0.00  0.00    -0.360 OA
HETATM   30  H   UNL     1      -4.799  11.755  22.547  0.00  0.00     0.217 HD
ENDBRANCH   3  29
BRANCH  10  31
HETATM   31  C   UNL     1      -0.638  17.093  19.969  0.00  0.00     0.100 C 
BRANCH  31  32
HETATM   32  C   UNL     1       0.349  16.586  21.031  0.00  0.00    -0.052 A 
HETATM   33  C   UNL     1       0.338  17.046  22.356  0.00  0.00     0.007 A 
HETATM   34  C   UNL     1       1.237  16.566  23.310  0.00  0.00     0.001 A 
HETATM   35  C   UNL     1       2.238  15.676  22.945  0.00  0.00     0.007 A 
HETATM   36  C   UNL     1       2.377  15.288  21.609  0.00  0.00    -0.061 A 
HETATM   37  C   UNL     1       1.410  15.713  20.668  0.00  0.00     0.014 A 
HETATM   38  C   UNL     1       3.567  14.448  21.233  0.00  0.00     0.048 C 
ENDBRANCH  31  32
ENDBRANCH  10  31
TORSDOF 10
ENDMDL
MODEL 4
REMARK VINA RESULT:    -8.220      3.155      4.757
REMARK INTER + INTRA:         -13.990
REMARK INTER:                 -12.769
REMARK INTRA:                  -1.221
REMARK UNBOUND:                -1.445
REMARK  10 active torsions:
REMARK  status: ('A' for Active; 'I' for Inactive)
REMARK    1  A    between atoms: N_1  and  C_5 
REMARK    2  A    between atoms: C_5  and  C_6 
REMARK    3  A    between atoms: C_6  and  O_7 
REMARK    4  A    between atoms: O_7  and  C_8 
REMARK    5  A    between atoms: C_8  and  C_9 
REMARK    6  A    between atoms: C_14  and  N_15 
REMARK       I    between atoms: N_15  and  C_17 
REMARK    7  A    between atoms: C_17  and  C_19 
REMARK    8  A    between atoms: C_21  and  O_22 
REMARK    9  A    between atoms: C_29  and  C_30 
REMARK   10  A    between atoms: C_30  and  C_31 
ROOT
HETATM    1  C   UNL     1      -1.922  10.834  24.602  0.00  0.00     0.066 C 
HETATM    2  C   UNL     1      -2.469  11.308  23.391  0.00  0.00     0.035 C 
HETATM    3  C   UNL     1      -2.416  11.394  25.799  0.00  0.00     0.083 C 
HETATM    4  C   UNL     1      -3.355  12.436  25.806  0.00  0.00     0.069 C 
HETATM    5  C   UNL     1      -3.725  12.966  24.570  0.00  0.00     0.065 C 
HETATM    6  C   UNL     1      -3.267  12.469  23.357  0.00  0.00     0.020 C 
HETATM    7  N   UNL     1      -4.564  13.996  24.230  0.00  0.00    -0.277 N 
HETATM    8  H   UNL     1      -5.119  14.572  24.854  0.00  0.00     0.189 HD
HETATM    9  N   UNL     1      -4.601  14.266  22.915  0.00  0.00    -0.178 NA
HETATM   10  C   UNL     1      -3.749  13.383  22.362  0.00  0.00     0.071 C 
ENDROOT
BRANCH   1  11
HETATM   11  C   UNL     1      -0.804   9.807  24.673  0.00  0.00     0.260 C 
HETATM   12  N   UNL     1       0.569  10.159  24.470  0.00  0.00    -0.318 N 
HETATM   13  C   UNL     1       0.946  11.524  24.114  0.00  0.00     0.159 C 
HETATM   14  O   UNL     1      -1.169   8.683  25.049  0.00  0.00    -0.267 OA
BRANCH  12  15
HETATM   15  C   UNL     1       1.658   9.202  24.638  0.00  0.00     0.037 A 
HETATM   16  C   UNL     1       1.852   8.152  23.715  0.00  0.00     0.030 A 
HETATM   17  C   UNL     1       2.941   7.271  23.790  0.00  0.00     0.011 A 
HETATM   18  C   UNL     1       3.890   7.423  24.791  0.00  0.00    -0.035 A 
HETATM   19  C   UNL     1       3.682   8.394  25.770  0.00  0.00     0.011 A 
HETATM   20  C   UNL     1       2.583   9.266  25.692  0.00  0.00     0.030 A 
BRANCH  18  21
HETATM   21  C   UNL     1       5.174   6.644  24.705  0.00  0.00     0.206 C 
BRANCH  21  22
HETATM   22  O   UNL     1       6.085   7.308  23.799  0.00  0.00    -0.385 OA
BRANCH  22  23
HETATM   23  C   UNL     1       6.356   6.518  22.630  0.00  0.00     0.195 C 
BRANCH  23  24
HETATM   24  C   UNL     1       5.949   7.323  21.401  0.00  0.00     0.255 C 
BRANCH  24  25
HETATM   25  N   UNL     1       7.073   7.311  20.422  0.00  0.00    -0.077 N 
HETATM   26  H   UNL     1       6.921   8.081  19.751  0.00  0.00     0.274 HD
HETATM   27  H   UNL     1       7.978   7.487  20.876  0.00  0.00     0.274 HD
HETATM   28  H   UNL     1       7.129   6.428  19.902  0.00  0.00     0.274 HD
ENDBRANCH  24  25
ENDBRANCH  23  24
ENDBRANCH  22  23
ENDBRANCH  21  22
ENDBRANCH  18  21
ENDBRANCH  12  15
ENDBRANCH   1  11
BRANCH   3  29
HETATM   29  O   UNL     1      -2.025  10.968  27.046  0.00  0.00    -0.360 OA
HETATM   30  H   UNL     1      -2.427  11.571  27.710  0.00  0.00     0.217 HD
ENDBRANCH   3  29
BRANCH  10  31
HETATM   31  C   UNL     1      -3.424  13.486  20.883  0.00  0.00     0.100 C 
BRANCH  31  32
HETATM   32  C   UNL     1      -2.946  14.899  20.517  0.00  0.00    -0.052 A 
HETATM   33  C   UNL     1      -3.659  15.738  19.648  0.00  0.00     0.007 A 
HETATM   34  C   UNL     1      -3.214  17.024  19.336  0.00  0.00     0.001 A 
HETATM   35  C   UNL     1      -1.991  17.477  19.810  0.00  0.00     0.007 A 
HETATM   36  C   UNL     1      -1.177  16.631  20.570  0.00  0.00    -0.061 A 
HETATM   37  C   UNL     1      -1.676  15.363  20.952  0.00  0.00     0.014 A 
HETATM   38  C   UNL     1       0.204  17.107  20.930  0.00  0.00     0.048 C 
ENDBRANCH  31  32
ENDBRANCH  10  31
TORSDOF 10
ENDMDL
MODEL 5
REMARK VINA RESULT:    -7.982      2.487      3.266
REMARK INTER + INTRA:         -13.628
REMARK INTER:                 -12.606
REMARK INTRA:                  -1.022
REMARK UNBOUND:                -1.445
REMARK  10 active torsions:
REMARK  status: ('A' for Active; 'I' for Inactive)
REMARK    1  A    between atoms: N_1  and  C_5 
REMARK    2  A    between atoms: C_5  and  C_6 
REMARK    3  A    between atoms: C_6  and  O_7 
REMARK    4  A    between atoms: O_7  and  C_8 
REMARK    5  A    between atoms: C_8  and  C_9 
REMARK    6  A    between atoms: C_14  and  N_15 
REMARK       I    between atoms: N_15  and  C_17 
REMARK    7  A    between atoms: C_17  and  C_19 
REMARK    8  A    between atoms: C_21  and  O_22 
REMARK    9  A    between atoms: C_29  and  C_30 
REMARK   10  A    between atoms: C_30  and  C_31 
ROOT
HETATM    1  C   UNL     1      -2.543  13.901  22.638  0.00  0.00     0.066 C 
HETATM    2  C   UNL     1      -1.518  14.704  22.093  0.00  0.00     0.035 C 
HETATM    3  C   UNL     1      -3.827  14.014  22.067  0.00  0.00     0.083 C 
HETATM    4  C   UNL     1      -4.117  14.937  21.051  0.00  0.00     0.069 C 
HETATM    5  C   UNL     1      -3.096  15.813  20.680  0.00  0.00     0.065 C 
HETATM    6  C   UNL     1      -1.814  15.762  21.210  0.00  0.00     0.020 C 
HETATM    7  N   UNL     1      -3.057  16.843  19.775  0.00  0.00    -0.277 N 
HETATM    8  H   UNL     1      -3.802  17.152  19.160  0.00  0.00     0.189 HD
HETATM    9  N   UNL     1      -1.897  17.518  19.758  0.00  0.00    -0.178 NA
HETATM   10  C   UNL     1      -1.138  16.915  20.691  0.00  0.00     0.071 C 
ENDROOT
BRANCH   1  11
HETATM   11  C   UNL     1      -2.342  12.977  23.828  0.00  0.00     0.260 C 
HETATM   12  N   UNL     1      -2.020  11.590  23.670  0.00  0.00    -0.318 N 
HETATM   13  C   UNL     1      -1.939  10.987  22.343  0.00  0.00     0.159 C 
HETATM   14  O   UNL     1      -2.350  13.551  24.926  0.00  0.00    -0.267 OA
BRANCH  12  15
HETATM   15  C   UNL     1      -1.724  10.719  24.804  0.00  0.00     0.037 A 
HETATM   16  C   UNL     1      -0.720   9.731  24.718  0.00  0.00     0.030 A 
HETATM   17  C   UNL     1      -0.342   8.941  25.815  0.00  0.00     0.011 A 
HETATM   18  C   UNL     1      -0.950   9.128  27.048  0.00  0.00    -0.035 A 
HETATM   19  C   UNL     1      -2.006  10.034  27.144  0.00  0.00     0.011 A 
HETATM   20  C   UNL     1      -2.384  10.814  26.039  0.00  0.00     0.030 A 
BRANCH  18  21
HETATM   21  C   UNL     1      -0.361   8.462  28.262  0.00  0.00     0.206 C 
BRANCH  21  22
HETATM   22  O   UNL     1      -0.810   9.146  29.455  0.00  0.00    -0.385 OA
BRANCH  22  23
HETATM   23  C   UNL     1      -0.367   8.487  30.653  0.00  0.00     0.195 C 
BRANCH  23  24
HETATM   24  C   UNL     1       0.959   9.106  31.079  0.00  0.00     0.255 C 
BRANCH  24  25
HETATM   25  N   UNL     1       0.797   9.712  32.432  0.00  0.00    -0.077 N 
HETATM   26  H   UNL     1       1.443   9.231  33.077  0.00  0.00     0.274 HD
HETATM   27  H   UNL     1       1.056  10.707  32.438  0.00  0.00     0.274 HD
HETATM   28  H   UNL     1      -0.160   9.617  32.790  0.00  0.00     0.274 HD
ENDBRANCH  24  25
ENDBRANCH  23  24
ENDBRANCH  22  23
ENDBRANCH  21  22
ENDBRANCH  18  21
ENDBRANCH  12  15
ENDBRANCH   1  11
BRANCH   3  29
HETATM   29  O   UNL     1      -4.893  13.235  22.451  0.00  0.00    -0.360 OA
HETATM   30  H   UNL     1      -5.676  13.821  22.546  0.00  0.00     0.217 HD
ENDBRANCH   3  29
BRANCH  10  31
HETATM   31  C   UNL     1       0.212  17.508  21.051  0.00  0.00     0.100 C 
BRANCH  31  32
HETATM   32  C   UNL     1       1.277  16.411  21.200  0.00  0.00    -0.052 A 
HETATM   33  C   UNL     1       1.783  15.693  20.105  0.00  0.00     0.007 A 
HETATM   34  C   UNL     1       2.759  14.708  20.259  0.00  0.00     0.001 A 
HETATM   35  C   UNL     1       3.195  14.343  21.525  0.00  0.00     0.007 A 
HETATM   36  C   UNL     1       2.627  14.934  22.658  0.00  0.00    -0.061 A 
HETATM   37  C   UNL     1       1.702  15.990  22.489  0.00  0.00     0.014 A 
HETATM   38  C   UNL     1       3.016  14.400  24.010  0.00  0.00     0.048 C 
ENDBRANCH  31  32
ENDBRANCH  10  31
TORSDOF 10
ENDMDL
MODEL 6
REMARK VINA RESULT:    -7.861      1.231      1.565
REMARK INTER + INTRA:         -13.442
REMARK INTER:                 -12.072
REMARK INTRA:                  -1.370
REMARK UNBOUND:                -1.445
REMARK  10 active torsions:
REMARK  status: ('A' for Active; 'I' for Inactive)
REMARK    1  A    between atoms: N_1  and  C_5 
REMARK    2  A    between atoms: C_5  and  C_6 
REMARK    3  A    between atoms: C_6  and  O_7 
REMARK    4  A    between atoms: O_7  and  C_8 
REMARK    5  A    between atoms: C_8  and  C_9 
REMARK    6  A    between atoms: C_14  and  N_15 
REMARK       I    between atoms: N_15  and  C_17 
REMARK    7  A    between atoms: C_17  and  C_19 
REMARK    8  A    between atoms: C_21  and  O_22 
REMARK    9  A    between atoms: C_29  and  C_30 
REMARK   10  A    between atoms: C_30  and  C_31 
ROOT
HETATM    1  C   UNL     1      -2.674  13.680  22.259  0.00  0.00     0.066 C 
HETATM    2  C   UNL     1      -1.924  14.509  21.399  0.00  0.00     0.035 C 
HETATM    3  C   UNL     1      -4.074  13.852  22.266  0.00  0.00     0.083 C 
HETATM    4  C   UNL     1      -4.709  14.852  21.516  0.00  0.00     0.069 C 
HETATM    5  C   UNL     1      -3.889  15.741  20.820  0.00  0.00     0.065 C 
HETATM    6  C   UNL     1      -2.506  15.634  20.781  0.00  0.00     0.020 C 
HETATM    7  N   UNL     1      -4.176  16.836  20.045  0.00  0.00    -0.277 N 
HETATM    8  H   UNL     1      -5.093  17.199  19.805  0.00  0.00     0.189 HD
HETATM    9  N   UNL     1      -3.094  17.496  19.603  0.00  0.00    -0.178 NA
HETATM   10  C   UNL     1      -2.049  16.816  20.108  0.00  0.00     0.071 C 
ENDROOT
BRANCH   1  11
HETATM   11  C   UNL     1      -2.049  12.666  23.204  0.00  0.00     0.260 C 
HETATM   12  N   UNL     1      -1.419  11.470  22.730  0.00  0.00    -0.318 N 
HETATM   13  C   UNL     1      -1.413  11.141  21.308  0.00  0.00     0.159 C 
HETATM   14  O   UNL     1      -2.018  13.027  24.389  0.00  0.00    -0.267 OA
BRANCH  12  15
HETATM   15  C   UNL     1      -0.726  10.544  23.620  0.00  0.00     0.037 A 
HETATM   16  C   UNL     1       0.684  10.487  23.655  0.00  0.00     0.030 A 
HETATM   17  C   UNL     1       1.385   9.678  24.562  0.00  0.00     0.011 A 
HETATM   18  C   UNL     1       0.692   8.907  25.484  0.00  0.00    -0.035 A 
HETATM   19  C   UNL     1      -0.700   8.873  25.419  0.00  0.00     0.011 A 
HETATM   20  C   UNL     1      -1.394   9.678  24.501  0.00  0.00     0.030 A 
BRANCH  18  21
HETATM   21  C   UNL     1       1.451   8.255  26.608  0.00  0.00     0.206 C 
BRANCH  21  22
HETATM   22  O   UNL     1       1.825   6.911  26.223  0.00  0.00    -0.385 OA
BRANCH  22  23
HETATM   23  C   UNL     1       1.370   5.931  27.171  0.00  0.00     0.195 C 
BRANCH  23  24
HETATM   24  C   UNL     1      -0.070   5.567  26.829  0.00  0.00     0.255 C 
BRANCH  24  25
HETATM   25  N   UNL     1      -0.136   5.142  25.402  0.00  0.00    -0.077 N 
HETATM   26  H   UNL     1      -1.077   4.757  25.226  0.00  0.00     0.274 HD
HETATM   27  H   UNL     1      -0.015   5.936  24.761  0.00  0.00     0.274 HD
HETATM   28  H   UNL     1       0.562   4.424  25.176  0.00  0.00     0.274 HD
ENDBRANCH  24  25
ENDBRANCH  23  24
ENDBRANCH  22  23
ENDBRANCH  21  22
ENDBRANCH  18  21
ENDBRANCH  12  15
ENDBRANCH   1  11
BRANCH   3  29
HETATM   29  O   UNL     1      -4.926  13.058  22.998  0.00  0.00    -0.360 OA
HETATM   30  H   UNL     1      -4.381  12.515  23.609  0.00  0.00     0.217 HD
ENDBRANCH   3  29
BRANCH  10  31
HETATM   31  C   UNL     1      -0.645  17.363  19.927  0.00  0.00     0.100 C 
BRANCH  31  32
HETATM   32  C   UNL     1       0.321  16.764  20.960  0.00  0.00    -0.052 A 
HETATM   33  C   UNL     1       0.317  17.144  22.310  0.00  0.00     0.007 A 
HETATM   34  C   UNL     1       1.195  16.579  23.237  0.00  0.00     0.001 A 
HETATM   35  C   UNL     1       2.170  15.683  22.823  0.00  0.00     0.007 A 
HETATM   36  C   UNL     1       2.305  15.371  21.466  0.00  0.00    -0.061 A 
HETATM   37  C   UNL     1       1.356  15.881  20.549  0.00  0.00     0.014 A 
HETATM   38  C   UNL     1       3.470  14.518  21.044  0.00  0.00     0.048 C 
ENDBRANCH  31  32
ENDBRANCH  10  31
TORSDOF 10
ENDMDL
MODEL 7
REMARK VINA RESULT:    -7.751      2.589      4.401
REMARK INTER + INTRA:         -13.274
REMARK INTER:                 -11.975
REMARK INTRA:                  -1.299
REMARK UNBOUND:                -1.445
REMARK  10 active torsions:
REMARK  status: ('A' for Active; 'I' for Inactive)
REMARK    1  A    between atoms: N_1  and  C_5 
REMARK    2  A    between atoms: C_5  and  C_6 
REMARK    3  A    between atoms: C_6  and  O_7 
REMARK    4  A    between atoms: O_7  and  C_8 
REMARK    5  A    between atoms: C_8  and  C_9 
REMARK    6  A    between atoms: C_14  and  N_15 
REMARK       I    between atoms: N_15  and  C_17 
REMARK    7  A    between atoms: C_17  and  C_19 
REMARK    8  A    between atoms: C_21  and  O_22 
REMARK    9  A    between atoms: C_29  and  C_30 
REMARK   10  A    between atoms: C_30  and  C_31 
ROOT
HETATM    1  C   UNL     1      -1.773  10.698  24.686  0.00  0.00     0.066 C 
HETATM    2  C   UNL     1      -2.320  11.151  23.466  0.00  0.00     0.035 C 
HETATM    3  C   UNL     1      -2.301  11.243  25.875  0.00  0.00     0.083 C 
HETATM    4  C   UNL     1      -3.274  12.252  25.868  0.00  0.00     0.069 C 
HETATM    5  C   UNL     1      -3.645  12.768  24.625  0.00  0.00     0.065 C 
HETATM    6  C   UNL     1      -3.156  12.284  23.420  0.00  0.00     0.020 C 
HETATM    7  N   UNL     1      -4.514  13.769  24.272  0.00  0.00    -0.277 N 
HETATM    8  H   UNL     1      -5.095  14.327  24.888  0.00  0.00     0.189 HD
HETATM    9  N   UNL     1      -4.543  14.035  22.957  0.00  0.00    -0.178 NA
HETATM   10  C   UNL     1      -3.654  13.180  22.417  0.00  0.00     0.071 C 
ENDROOT
BRANCH   1  11
HETATM   11  C   UNL     1      -0.623   9.708  24.774  0.00  0.00     0.260 C 
HETATM   12  N   UNL     1       0.738  10.100  24.561  0.00  0.00    -0.318 N 
HETATM   13  C   UNL     1       1.071  11.469  24.179  0.00  0.00     0.159 C 
HETATM   14  O   UNL     1      -0.950   8.580  25.170  0.00  0.00    -0.267 OA
BRANCH  12  15
HETATM   15  C   UNL     1       1.857   9.181  24.745  0.00  0.00     0.037 A 
HETATM   16  C   UNL     1       2.698   9.276  25.874  0.00  0.00     0.030 A 
HETATM   17  C   UNL     1       3.724   8.354  26.132  0.00  0.00     0.011 A 
HETATM   18  C   UNL     1       3.931   7.287  25.271  0.00  0.00    -0.035 A 
HETATM   19  C   UNL     1       3.176   7.213  24.101  0.00  0.00     0.011 A 
HETATM   20  C   UNL     1       2.158   8.146  23.845  0.00  0.00     0.030 A 
BRANCH  18  21
HETATM   21  C   UNL     1       4.852   6.175  25.694  0.00  0.00     0.206 C 
BRANCH  21  22
HETATM   22  O   UNL     1       4.138   5.255  26.553  0.00  0.00    -0.385 OA
BRANCH  22  23
HETATM   23  C   UNL     1       3.752   4.057  25.860  0.00  0.00     0.195 C 
BRANCH  23  24
HETATM   24  C   UNL     1       2.230   4.003  25.807  0.00  0.00     0.255 C 
BRANCH  24  25
HETATM   25  N   UNL     1       1.807   3.633  24.426  0.00  0.00    -0.077 N 
HETATM   26  H   UNL     1       1.379   2.695  24.464  0.00  0.00     0.274 HD
HETATM   27  H   UNL     1       1.090   4.273  24.062  0.00  0.00     0.274 HD
HETATM   28  H   UNL     1       2.596   3.610  23.770  0.00  0.00     0.274 HD
ENDBRANCH  24  25
ENDBRANCH  23  24
ENDBRANCH  22  23
ENDBRANCH  21  22
ENDBRANCH  18  21
ENDBRANCH  12  15
ENDBRANCH   1  11
BRANCH   3  29
HETATM   29  O   UNL     1      -1.912  10.832  27.128  0.00  0.00    -0.360 OA
HETATM   30  H   UNL     1      -1.497   9.947  27.040  0.00  0.00     0.217 HD
ENDBRANCH   3  29
BRANCH  10  31
HETATM   31  C   UNL     1      -3.315  13.291  20.942  0.00  0.00     0.100 C 
BRANCH  31  32
HETATM   32  C   UNL     1      -2.969  14.737  20.559  0.00  0.00    -0.052 A 
HETATM   33  C   UNL     1      -3.761  15.500  19.688  0.00  0.00     0.007 A 
HETATM   34  C   UNL     1      -3.437  16.818  19.361  0.00  0.00     0.001 A 
HETATM   35  C   UNL     1      -2.257  17.385  19.821  0.00  0.00     0.007 A 
HETATM   36  C   UNL     1      -1.364  16.623  20.583  0.00  0.00    -0.061 A 
HETATM   37  C   UNL     1      -1.743  15.319  20.980  0.00  0.00     0.014 A 
HETATM   38  C   UNL     1      -0.030  17.226  20.929  0.00  0.00     0.048 C 
ENDBRANCH  31  32
ENDBRANCH  10  31
TORSDOF 10
ENDMDL
MODEL 8
REMARK VINA RESULT:    -7.727      3.201      4.824
REMARK INTER + INTRA:         -13.239
REMARK INTER:                 -12.066
REMARK INTRA:                  -1.173
REMARK UNBOUND:                -1.445
REMARK  10 active torsions:
REMARK  status: ('A' for Active; 'I' for Inactive)
REMARK    1  A    between atoms: N_1  and  C_5 
REMARK    2  A    between atoms: C_5  and  C_6 
REMARK    3  A    between atoms: C_6  and  O_7 
REMARK    4  A    between atoms: O_7  and  C_8 
REMARK    5  A    between atoms: C_8  and  C_9 
REMARK    6  A    between atoms: C_14  and  N_15 
REMARK       I    between atoms: N_15  and  C_17 
REMARK    7  A    between atoms: C_17  and  C_19 
REMARK    8  A    between atoms: C_21  and  O_22 
REMARK    9  A    between atoms: C_29  and  C_30 
REMARK   10  A    between atoms: C_30  and  C_31 
ROOT
HETATM    1  C   UNL     1      -1.812  10.475  24.803  0.00  0.00     0.066 C 
HETATM    2  C   UNL     1      -2.269  11.217  23.693  0.00  0.00     0.035 C 
HETATM    3  C   UNL     1      -2.447  10.705  26.041  0.00  0.00     0.083 C 
HETATM    4  C   UNL     1      -3.440  11.682  26.203  0.00  0.00     0.069 C 
HETATM    5  C   UNL     1      -3.721  12.491  25.101  0.00  0.00     0.065 C 
HETATM    6  C   UNL     1      -3.124  12.324  23.859  0.00  0.00     0.020 C 
HETATM    7  N   UNL     1      -4.582  13.546  24.936  0.00  0.00    -0.277 N 
HETATM    8  H   UNL     1      -5.224  13.931  25.620  0.00  0.00     0.189 HD
HETATM    9  N   UNL     1      -4.509  14.132  23.730  0.00  0.00    -0.178 NA
HETATM   10  C   UNL     1      -3.561  13.441  23.072  0.00  0.00     0.071 C 
ENDROOT
BRANCH   1  11
HETATM   11  C   UNL     1      -0.650   9.497  24.739  0.00  0.00     0.260 C 
HETATM   12  N   UNL     1       0.706   9.934  24.590  0.00  0.00    -0.318 N 
HETATM   13  C   UNL     1       1.022  11.350  24.423  0.00  0.00     0.159 C 
HETATM   14  O   UNL     1      -0.964   8.319  24.957  0.00  0.00    -0.267 OA
BRANCH  12  15
HETATM   15  C   UNL     1       1.836   9.012  24.631  0.00  0.00     0.037 A 
HETATM   16  C   UNL     1       2.087   8.122  23.565  0.00  0.00     0.030 A 
HETATM   17  C   UNL     1       3.216   7.288  23.526  0.00  0.00     0.011 A 
HETATM   18  C   UNL     1       4.147   7.331  24.554  0.00  0.00    -0.035 A 
HETATM   19  C   UNL     1       3.885   8.135  25.663  0.00  0.00     0.011 A 
HETATM   20  C   UNL     1       2.748   8.959  25.699  0.00  0.00     0.030 A 
BRANCH  18  21
HETATM   21  C   UNL     1       5.466   6.631  24.374  0.00  0.00     0.206 C 
BRANCH  21  22
HETATM   22  O   UNL     1       5.442   5.858  23.151  0.00  0.00    -0.385 OA
BRANCH  22  23
HETATM   23  C   UNL     1       6.595   6.107  22.332  0.00  0.00     0.195 C 
BRANCH  23  24
HETATM   24  C   UNL     1       6.319   7.337  21.475  0.00  0.00     0.255 C 
BRANCH  24  25
HETATM   25  N   UNL     1       7.336   7.407  20.387  0.00  0.00    -0.077 N 
HETATM   26  H   UNL     1       7.481   8.400  20.149  0.00  0.00     0.274 HD
HETATM   27  H   UNL     1       8.246   7.038  20.691  0.00  0.00     0.274 HD
HETATM   28  H   UNL     1       7.039   6.905  19.543  0.00  0.00     0.274 HD
ENDBRANCH  24  25
ENDBRANCH  23  24
ENDBRANCH  22  23
ENDBRANCH  21  22
ENDBRANCH  18  21
ENDBRANCH  12  15
ENDBRANCH   1  11
BRANCH   3  29
HETATM   29  O   UNL     1      -2.152   9.995  27.181  0.00  0.00    -0.360 OA
HETATM   30  H   UNL     1      -2.236   9.040  26.972  0.00  0.00     0.217 HD
ENDBRANCH   3  29
BRANCH  10  31
HETATM   31  C   UNL     1      -3.105  13.917  21.704  0.00  0.00     0.100 C 
BRANCH  31  32
HETATM   32  C   UNL     1      -2.029  15.006  21.827  0.00  0.00    -0.052 A 
HETATM   33  C   UNL     1      -1.356  15.274  23.028  0.00  0.00     0.007 A 
HETATM   34  C   UNL     1      -0.372  16.260  23.117  0.00  0.00     0.001 A 
HETATM   35  C   UNL     1      -0.095  17.075  22.028  0.00  0.00     0.007 A 
HETATM   36  C   UNL     1      -0.831  16.939  20.847  0.00  0.00    -0.061 A 
HETATM   37  C   UNL     1      -1.764  15.881  20.739  0.00  0.00     0.014 A 
HETATM   38  C   UNL     1      -0.605  17.942  19.749  0.00  0.00     0.048 C 
ENDBRANCH  31  32
ENDBRANCH  10  31
TORSDOF 10
ENDMDL
MODEL 9
REMARK VINA RESULT:    -7.720      2.616      3.159
REMARK INTER + INTRA:         -13.227
REMARK INTER:                 -11.782
REMARK INTRA:                  -1.445
REMARK UNBOUND:                -1.445
REMARK  10 active torsions:
REMARK  status: ('A' for Active; 'I' for Inactive)
REMARK    1  A    between atoms: N_1  and  C_5 
REMARK    2  A    between atoms: C_5  and  C_6 
REMARK    3  A    between atoms: C_6  and  O_7 
REMARK    4  A    between atoms: O_7  and  C_8 
REMARK    5  A    between atoms: C_8  and  C_9 
REMARK    6  A    between atoms: C_14  and  N_15 
REMARK       I    between atoms: N_15  and  C_17 
REMARK    7  A    between atoms: C_17  and  C_19 
REMARK    8  A    between atoms: C_21  and  O_22 
REMARK    9  A    between atoms: C_29  and  C_30 
REMARK   10  A    between atoms: C_30  and  C_31 
ROOT
HETATM    1  C   UNL     1      -1.053  12.575  22.052  0.00  0.00     0.066 C 
HETATM    2  C   UNL     1      -0.453  13.826  21.791  0.00  0.00     0.035 C 
HETATM    3  C   UNL     1      -2.336  12.348  21.514  0.00  0.00     0.083 C 
HETATM    4  C   UNL     1      -3.040  13.337  20.812  0.00  0.00     0.069 C 
HETATM    5  C   UNL     1      -2.455  14.602  20.739  0.00  0.00     0.065 C 
HETATM    6  C   UNL     1      -1.200  14.894  21.256  0.00  0.00     0.020 C 
HETATM    7  N   UNL     1      -2.885  15.779  20.182  0.00  0.00    -0.277 N 
HETATM    8  H   UNL     1      -3.746  15.941  19.670  0.00  0.00     0.189 HD
HETATM    9  N   UNL     1      -2.062  16.819  20.389  0.00  0.00    -0.178 NA
HETATM   10  C   UNL     1      -1.050  16.314  21.117  0.00  0.00     0.071 C 
ENDROOT
BRANCH   1  11
HETATM   11  C   UNL     1      -0.413  11.502  22.917  0.00  0.00     0.260 C 
HETATM   12  N   UNL     1      -0.422  11.571  24.348  0.00  0.00    -0.318 N 
HETATM   13  C   UNL     1      -0.993  12.724  25.037  0.00  0.00     0.159 C 
HETATM   14  O   UNL     1      -0.009  10.514  22.288  0.00  0.00    -0.267 OA
BRANCH  12  15
HETATM   15  C   UNL     1       0.096  10.496  25.189  0.00  0.00     0.037 A 
HETATM   16  C   UNL     1       1.482  10.242  25.270  0.00  0.00     0.030 A 
HETATM   17  C   UNL     1       2.024   9.282  26.138  0.00  0.00     0.011 A 
HETATM   18  C   UNL     1       1.191   8.551  26.973  0.00  0.00    -0.035 A 
HETATM   19  C   UNL     1      -0.188   8.715  26.855  0.00  0.00     0.011 A 
HETATM   20  C   UNL     1      -0.723   9.672  25.976  0.00  0.00     0.030 A 
BRANCH  18  21
HETATM   21  C   UNL     1       1.802   7.721  28.070  0.00  0.00     0.206 C 
BRANCH  21  22
HETATM   22  O   UNL     1       3.162   7.376  27.717  0.00  0.00    -0.385 OA
BRANCH  22  23
HETATM   23  C   UNL     1       3.996   7.215  28.875  0.00  0.00     0.195 C 
BRANCH  23  24
HETATM   24  C   UNL     1       4.816   8.487  29.057  0.00  0.00     0.255 C 
BRANCH  24  25
HETATM   25  N   UNL     1       5.925   8.215  30.015  0.00  0.00    -0.077 N 
HETATM   26  H   UNL     1       6.581   7.557  29.566  0.00  0.00     0.274 HD
HETATM   27  H   UNL     1       6.459   9.065  30.233  0.00  0.00     0.274 HD
HETATM   28  H   UNL     1       5.590   7.799  30.892  0.00  0.00     0.274 HD
ENDBRANCH  24  25
ENDBRANCH  23  24
ENDBRANCH  22  23
ENDBRANCH  21  22
ENDBRANCH  18  21
ENDBRANCH  12  15
ENDBRANCH   1  11
BRANCH   3  29
HETATM   29  O   UNL     1      -2.998  11.148  21.627  0.00  0.00    -0.360 OA
HETATM   30  H   UNL     1      -3.048  10.745  20.733  0.00  0.00     0.217 HD
ENDBRANCH   3  29
BRANCH  10  31
HETATM   31  C   UNL     1       0.014  17.248  21.664  0.00  0.00     0.100 C 
BRANCH  31  32
HETATM   32  C   UNL     1       1.425  16.716  21.368  0.00  0.00    -0.052 A 
HETATM   33  C   UNL     1       1.993  16.752  20.086  0.00  0.00     0.007 A 
HETATM   34  C   UNL     1       3.281  16.274  19.839  0.00  0.00     0.001 A 
HETATM   35  C   UNL     1       4.007  15.659  20.848  0.00  0.00     0.007 A 
HETATM   36  C   UNL     1       3.435  15.477  22.111  0.00  0.00    -0.061 A 
HETATM   37  C   UNL     1       2.165  16.040  22.375  0.00  0.00     0.014 A 
HETATM   38  C   UNL     1       4.196  14.669  23.128  0.00  0.00     0.048 C 
ENDBRANCH  31  32
ENDBRANCH  10  31
TORSDOF 10
ENDMDL
