MODEL 1
REMARK VINA RESULT:   -10.539      0.000      0.000
REMARK INTER + INTRA:         -13.115
REMARK INTER:                 -12.101
REMARK INTRA:                  -1.015
REMARK UNBOUND:                -0.728
REMARK  3 active torsions:
REMARK  status: ('A' for Active; 'I' for Inactive)
REMARK    1  A    between atoms: C_9  and  C_11 
REMARK    2  A    between atoms: C_23  and  N_24 
REMARK       I    between atoms: N_24  and  C_25 
REMARK    3  A    between atoms: C_25  and  C_27 
ROOT
HETATM    1  C   UNL     1       6.750  10.854  23.539  0.00  0.00     0.022 A 
HETATM    2  C   UNL     1       6.498   9.551  24.035  0.00  0.00     0.016 A 
HETATM    3  C   UNL     1       5.375   9.245  24.817  0.00  0.00     0.002 A 
HETATM    4  C   UNL     1       4.450  10.230  25.119  0.00  0.00     0.010 A 
HETATM    5  C   UNL     1       5.853  11.871  23.908  0.00  0.00    -0.003 A 
HETATM    6  C   UNL     1       4.691  11.514  24.655  0.00  0.00    -0.019 A 
HETATM    7  C   UNL     1       5.779  13.322  23.665  0.00  0.00    -0.016 A 
HETATM    8  C   UNL     1       4.533  13.803  24.131  0.00  0.00    -0.020 A 
HETATM    9  C   UNL     1       4.134  15.128  23.973  0.00  0.00     0.010 A 
HETATM   10  C   UNL     1       5.001  16.009  23.339  0.00  0.00     0.001 A 
HETATM   11  C   UNL     1       6.272  15.577  22.947  0.00  0.00     0.001 A 
HETATM   12  C   UNL     1       6.675  14.249  23.150  0.00  0.00     0.013 A 
HETATM   13  C   UNL     1       3.771  12.707  24.854  0.00  0.00     0.153 A 
ENDROOT
BRANCH  13  14
HETATM   14  N   UNL     1       2.479  12.508  24.257  0.00  0.00    -0.344 N 
HETATM   15  C   UNL     1       1.358  13.158  24.712  0.00  0.00     0.253 C 
HETATM   16  O   UNL     1       1.342  13.883  25.697  0.00  0.00    -0.268 OA
HETATM   17  H   UNL     1       2.380  11.741  23.607  0.00  0.00     0.163 HD
BRANCH  15  18
HETATM   18  C   UNL     1       0.115  12.924  23.946  0.00  0.00     0.047 A 
HETATM   19  C   UNL     1       0.105  13.170  22.569  0.00  0.00     0.037 A 
HETATM   20  C   UNL     1      -1.055  12.912  21.856  0.00  0.00     0.120 A 
HETATM   21  N   UNL     1      -2.205  12.424  22.373  0.00  0.00    -0.242 NA
HETATM   22  C   UNL     1      -2.133  12.182  23.693  0.00  0.00     0.138 A 
HETATM   23  C   UNL     1      -1.049  12.392  24.538  0.00  0.00     0.027 A 
HETATM   24  N   UNL     1      -3.157  11.652  24.431  0.00  0.00    -0.350 N 
HETATM   25  C   UNL     1      -1.458  11.942  25.829  0.00  0.00     0.033 A 
HETATM   26  C   UNL     1      -2.759  11.496  25.733  0.00  0.00     0.090 A 
HETATM   27  H   UNL     1      -4.052  11.400  24.042  0.00  0.00     0.166 HD
ENDBRANCH  15  18
ENDBRANCH  13  14
BRANCH   1  28
HETATM   28  C   UNL     1       7.905  11.001  22.642  0.00  0.00     0.140 C 
HETATM   29  N   UNL     1       7.817  11.417  21.339  0.00  0.00    -0.337 N 
HETATM   30  C   UNL     1       9.078  11.660  20.871  0.00  0.00     0.080 A 
HETATM   31  H   UNL     1       6.959  11.592  20.841  0.00  0.00     0.167 HD
HETATM   32  C   UNL     1       9.561  12.294  19.742  0.00  0.00     0.148 A 
HETATM   33  C   UNL     1       9.901  11.065  21.811  0.00  0.00     0.088 A 
HETATM   34  N   UNL     1      10.893  12.262  19.514  0.00  0.00    -0.271 NA
HETATM   35  C   UNL     1      11.695  11.602  20.385  0.00  0.00     0.118 A 
HETATM   36  C   UNL     1      11.270  10.986  21.555  0.00  0.00     0.053 A 
HETATM   37  N   UNL     1       9.162  10.654  22.900  0.00  0.00    -0.228 NA
ENDBRANCH   1  28
TORSDOF 3
ENDMDL
MODEL 2
REMARK VINA RESULT:   -10.430      0.948      2.066
REMARK INTER + INTRA:         -12.988
REMARK INTER:                 -11.920
REMARK INTRA:                  -1.068
REMARK UNBOUND:                -0.728
REMARK  3 active torsions:
REMARK  status: ('A' for Active; 'I' for Inactive)
REMARK    1  A    between atoms: C_9  and  C_11 
REMARK    2  A    between atoms: C_23  and  N_24 
REMARK       I    between atoms: N_24  and  C_25 
REMARK    3  A    between atoms: C_25  and  C_27 
ROOT
HETATM    1  C   UNL     1       6.199  11.196  23.607  0.00  0.00     0.022 A 
HETATM    2  C   UNL     1       6.144   9.848  24.036  0.00  0.00     0.016 A 
HETATM    3  C   UNL     1       5.099   9.349  24.827  0.00  0.00     0.002 A 
HETATM    4  C   UNL     1       4.058  10.179  25.206  0.00  0.00     0.010 A 
HETATM    5  C   UNL     1       5.184  12.059  24.053  0.00  0.00    -0.003 A 
HETATM    6  C   UNL     1       4.106  11.506  24.808  0.00  0.00    -0.019 A 
HETATM    7  C   UNL     1       4.903  13.496  23.893  0.00  0.00    -0.016 A 
HETATM    8  C   UNL     1       3.619  13.775  24.415  0.00  0.00    -0.020 A 
HETATM    9  C   UNL     1       3.037  15.038  24.341  0.00  0.00     0.010 A 
HETATM   10  C   UNL     1       3.754  16.063  23.735  0.00  0.00     0.001 A 
HETATM   11  C   UNL     1       5.059  15.832  23.289  0.00  0.00     0.001 A 
HETATM   12  C   UNL     1       5.647  14.563  23.408  0.00  0.00     0.013 A 
HETATM   13  C   UNL     1       3.038  12.549  25.096  0.00  0.00     0.153 A 
ENDROOT
BRANCH  13  14
HETATM   14  N   UNL     1       1.766  12.203  24.521  0.00  0.00    -0.344 N 
HETATM   15  C   UNL     1       0.589  12.740  24.981  0.00  0.00     0.253 C 
HETATM   16  O   UNL     1       0.508  13.477  25.953  0.00  0.00    -0.268 OA
HETATM   17  H   UNL     1       1.742  11.419  23.884  0.00  0.00     0.163 HD
BRANCH  15  18
HETATM   18  C   UNL     1      -0.632  12.361  24.236  0.00  0.00     0.047 A 
HETATM   19  C   UNL     1      -1.657  11.683  24.906  0.00  0.00     0.037 A 
HETATM   20  C   UNL     1      -2.811  11.366  24.207  0.00  0.00     0.120 A 
HETATM   21  N   UNL     1      -3.052  11.662  22.910  0.00  0.00    -0.242 NA
HETATM   22  C   UNL     1      -2.047  12.334  22.322  0.00  0.00     0.138 A 
HETATM   23  C   UNL     1      -0.836  12.718  22.888  0.00  0.00     0.027 A 
HETATM   24  N   UNL     1      -2.075  12.775  21.027  0.00  0.00    -0.350 N 
HETATM   25  C   UNL     1      -0.134  13.436  21.875  0.00  0.00     0.033 A 
HETATM   26  C   UNL     1      -0.919  13.452  20.740  0.00  0.00     0.090 A 
HETATM   27  H   UNL     1      -2.856  12.631  20.405  0.00  0.00     0.166 HD
ENDBRANCH  15  18
ENDBRANCH  13  14
BRANCH   1  28
HETATM   28  C   UNL     1       7.294  11.548  22.691  0.00  0.00     0.140 C 
HETATM   29  N   UNL     1       8.596  11.724  23.083  0.00  0.00    -0.337 N 
HETATM   30  C   UNL     1       9.380  11.815  21.968  0.00  0.00     0.080 A 
HETATM   31  H   UNL     1       8.924  11.705  24.036  0.00  0.00     0.167 HD
HETATM   32  C   UNL     1      10.746  11.769  21.767  0.00  0.00     0.148 A 
HETATM   33  C   UNL     1       8.475  12.019  20.941  0.00  0.00     0.088 A 
HETATM   34  N   UNL     1      11.217  12.011  20.524  0.00  0.00    -0.271 NA
HETATM   35  C   UNL     1      10.338  12.302  19.532  0.00  0.00     0.118 A 
HETATM   36  C   UNL     1       8.956  12.319  19.667  0.00  0.00     0.053 A 
HETATM   37  N   UNL     1       7.185  11.858  21.404  0.00  0.00    -0.228 NA
ENDBRANCH   1  28
TORSDOF 3
ENDMDL
MODEL 3
REMARK VINA RESULT:   -10.388      2.560      9.089
REMARK INTER + INTRA:         -12.938
REMARK INTER:                 -12.257
REMARK INTRA:                  -0.681
REMARK UNBOUND:                -0.728
REMARK  3 active torsions:
REMARK  status: ('A' for Active; 'I' for Inactive)
REMARK    1  A    between atoms: C_9  and  C_11 
REMARK    2  A    between atoms: C_23  and  N_24 
REMARK       I    between atoms: N_24  and  C_25 
REMARK    3  A    between atoms: C_25  and  C_27 
ROOT
HETATM    1  C   UNL     1       2.371  14.039  25.367  0.00  0.00     0.022 A 
HETATM    2  C   UNL     1       2.350  15.345  25.915  0.00  0.00     0.016 A 
HETATM    3  C   UNL     1       3.511  16.002  26.346  0.00  0.00     0.002 A 
HETATM    4  C   UNL     1       4.744  15.382  26.229  0.00  0.00     0.010 A 
HETATM    5  C   UNL     1       3.610  13.378  25.318  0.00  0.00    -0.003 A 
HETATM    6  C   UNL     1       4.779  14.096  25.710  0.00  0.00    -0.019 A 
HETATM    7  C   UNL     1       4.051  12.040  24.891  0.00  0.00    -0.016 A 
HETATM    8  C   UNL     1       5.465  12.000  24.891  0.00  0.00    -0.020 A 
HETATM    9  C   UNL     1       6.184  10.887  24.460  0.00  0.00     0.010 A 
HETATM   10  C   UNL     1       5.479   9.773  24.021  0.00  0.00     0.001 A 
HETATM   11  C   UNL     1       4.083   9.758  24.092  0.00  0.00     0.001 A 
HETATM   12  C   UNL     1       3.374  10.871  24.568  0.00  0.00     0.013 A 
HETATM   13  C   UNL     1       6.038  13.279  25.473  0.00  0.00     0.153 A 
ENDROOT
BRANCH  13  14
HETATM   14  N   UNL     1       6.930  13.908  24.537  0.00  0.00    -0.344 N 
HETATM   15  C   UNL     1       7.955  14.726  24.945  0.00  0.00     0.253 C 
HETATM   16  O   UNL     1       8.144  15.055  26.107  0.00  0.00    -0.268 OA
HETATM   17  H   UNL     1       6.677  13.875  23.560  0.00  0.00     0.163 HD
BRANCH  15  18
HETATM   18  C   UNL     1       8.846  15.231  23.878  0.00  0.00     0.047 A 
HETATM   19  C   UNL     1       9.978  15.976  24.230  0.00  0.00     0.037 A 
HETATM   20  C   UNL     1      10.825  16.413  23.224  0.00  0.00     0.120 A 
HETATM   21  N   UNL     1      10.665  16.177  21.902  0.00  0.00    -0.242 NA
HETATM   22  C   UNL     1       9.578  15.437  21.622  0.00  0.00     0.138 A 
HETATM   23  C   UNL     1       8.639  14.933  22.516  0.00  0.00     0.027 A 
HETATM   24  N   UNL     1       9.227  15.038  20.361  0.00  0.00    -0.350 N 
HETATM   25  C   UNL     1       7.708  14.186  21.735  0.00  0.00     0.033 A 
HETATM   26  C   UNL     1       8.093  14.271  20.414  0.00  0.00     0.090 A 
HETATM   27  H   UNL     1       9.759  15.267  19.535  0.00  0.00     0.166 HD
ENDBRANCH  15  18
ENDBRANCH  13  14
BRANCH   1  28
HETATM   28  C   UNL     1       1.093  13.523  24.857  0.00  0.00     0.140 C 
HETATM   29  N   UNL     1       0.610  13.776  23.599  0.00  0.00    -0.337 N 
HETATM   30  C   UNL     1      -0.472  12.971  23.375  0.00  0.00     0.080 A 
HETATM   31  H   UNL     1       1.036  14.394  22.926  0.00  0.00     0.167 HD
HETATM   32  C   UNL     1      -1.188  12.646  22.239  0.00  0.00     0.148 A 
HETATM   33  C   UNL     1      -0.798  12.496  24.633  0.00  0.00     0.088 A 
HETATM   34  N   UNL     1      -2.300  11.892  22.381  0.00  0.00    -0.271 NA
HETATM   35  C   UNL     1      -2.676  11.500  23.624  0.00  0.00     0.118 A 
HETATM   36  C   UNL     1      -1.972  11.761  24.792  0.00  0.00     0.053 A 
HETATM   37  N   UNL     1       0.175  12.851  25.544  0.00  0.00    -0.228 NA
ENDBRANCH   1  28
TORSDOF 3
ENDMDL
MODEL 4
REMARK VINA RESULT:   -10.266      2.038      9.452
REMARK INTER + INTRA:         -12.794
REMARK INTER:                 -11.751
REMARK INTRA:                  -1.043
REMARK UNBOUND:                -0.728
REMARK  3 active torsions:
REMARK  status: ('A' for Active; 'I' for Inactive)
REMARK    1  A    between atoms: C_9  and  C_11 
REMARK    2  A    between atoms: C_23  and  N_24 
REMARK       I    between atoms: N_24  and  C_25 
REMARK    3  A    between atoms: C_25  and  C_27 
ROOT
HETATM    1  C   UNL     1       2.710  14.009  24.102  0.00  0.00     0.022 A 
HETATM    2  C   UNL     1       2.910  15.404  23.966  0.00  0.00     0.016 A 
HETATM    3  C   UNL     1       4.184  15.990  23.988  0.00  0.00     0.002 A 
HETATM    4  C   UNL     1       5.310  15.197  24.131  0.00  0.00     0.010 A 
HETATM    5  C   UNL     1       3.845  13.211  24.324  0.00  0.00    -0.003 A 
HETATM    6  C   UNL     1       5.129  13.831  24.283  0.00  0.00    -0.019 A 
HETATM    7  C   UNL     1       4.068  11.775  24.566  0.00  0.00    -0.016 A 
HETATM    8  C   UNL     1       5.457  11.513  24.530  0.00  0.00    -0.020 A 
HETATM    9  C   UNL     1       5.982  10.229  24.650  0.00  0.00     0.010 A 
HETATM   10  C   UNL     1       5.101   9.167  24.820  0.00  0.00     0.001 A 
HETATM   11  C   UNL     1       3.730   9.411  24.944  0.00  0.00     0.001 A 
HETATM   12  C   UNL     1       3.220  10.716  24.862  0.00  0.00     0.013 A 
HETATM   13  C   UNL     1       6.244  12.806  24.413  0.00  0.00     0.153 A 
ENDROOT
BRANCH  13  14
HETATM   14  N   UNL     1       7.099  12.778  23.257  0.00  0.00    -0.344 N 
HETATM   15  C   UNL     1       8.456  12.592  23.359  0.00  0.00     0.253 C 
HETATM   16  O   UNL     1       9.058  12.521  24.421  0.00  0.00    -0.268 OA
HETATM   17  H   UNL     1       6.701  13.075  22.377  0.00  0.00     0.163 HD
BRANCH  15  18
HETATM   18  C   UNL     1       9.195  12.496  22.082  0.00  0.00     0.047 A 
HETATM   19  C   UNL     1       8.735  11.624  21.089  0.00  0.00     0.037 A 
HETATM   20  C   UNL     1       9.415  11.570  19.883  0.00  0.00     0.120 A 
HETATM   21  N   UNL     1      10.505  12.303  19.560  0.00  0.00    -0.242 NA
HETATM   22  C   UNL     1      10.890  13.142  20.538  0.00  0.00     0.138 A 
HETATM   23  C   UNL     1      10.315  13.305  21.794  0.00  0.00     0.027 A 
HETATM   24  N   UNL     1      11.942  14.010  20.432  0.00  0.00    -0.350 N 
HETATM   25  C   UNL     1      11.058  14.335  22.441  0.00  0.00     0.033 A 
HETATM   26  C   UNL     1      12.055  14.747  21.582  0.00  0.00     0.090 A 
HETATM   27  H   UNL     1      12.517  14.092  19.607  0.00  0.00     0.166 HD
ENDBRANCH  15  18
ENDBRANCH  13  14
BRANCH   1  28
HETATM   28  C   UNL     1       1.329  13.528  23.948  0.00  0.00     0.140 C 
HETATM   29  N   UNL     1       0.583  13.690  22.810  0.00  0.00    -0.337 N 
HETATM   30  C   UNL     1      -0.553  12.937  22.920  0.00  0.00     0.080 A 
HETATM   31  H   UNL     1       0.868  14.212  21.996  0.00  0.00     0.167 HD
HETATM   32  C   UNL     1      -1.521  12.550  22.014  0.00  0.00     0.148 A 
HETATM   33  C   UNL     1      -0.602  12.605  24.262  0.00  0.00     0.088 A 
HETATM   34  N   UNL     1      -2.601  11.885  22.480  0.00  0.00    -0.271 NA
HETATM   35  C   UNL     1      -2.699  11.638  23.810  0.00  0.00     0.118 A 
HETATM   36  C   UNL     1      -1.737  11.964  24.757  0.00  0.00     0.053 A 
HETATM   37  N   UNL     1       0.566  12.984  24.890  0.00  0.00    -0.228 NA
ENDBRANCH   1  28
TORSDOF 3
ENDMDL
MODEL 5
REMARK VINA RESULT:   -10.265      1.811      9.437
REMARK INTER + INTRA:         -12.793
REMARK INTER:                 -11.766
REMARK INTRA:                  -1.027
REMARK UNBOUND:                -0.728
REMARK  3 active torsions:
REMARK  status: ('A' for Active; 'I' for Inactive)
REMARK    1  A    between atoms: C_9  and  C_11 
REMARK    2  A    between atoms: C_23  and  N_24 
REMARK       I    between atoms: N_24  and  C_25 
REMARK    3  A    between atoms: C_25  and  C_27 
ROOT
HETATM    1  C   UNL     1       2.646  13.799  23.995  0.00  0.00     0.022 A 
HETATM    2  C   UNL     1       2.875  15.180  23.785  0.00  0.00     0.016 A 
HETATM    3  C   UNL     1       4.163  15.733  23.729  0.00  0.00     0.002 A 
HETATM    4  C   UNL     1       5.274  14.918  23.863  0.00  0.00     0.010 A 
HETATM    5  C   UNL     1       3.770  12.982  24.208  0.00  0.00    -0.003 A 
HETATM    6  C   UNL     1       5.066  13.565  24.086  0.00  0.00    -0.019 A 
HETATM    7  C   UNL     1       3.968  11.553  24.507  0.00  0.00    -0.016 A 
HETATM    8  C   UNL     1       5.348  11.254  24.428  0.00  0.00    -0.020 A 
HETATM    9  C   UNL     1       5.845   9.963  24.587  0.00  0.00     0.010 A 
HETATM   10  C   UNL     1       4.947   8.934  24.842  0.00  0.00     0.001 A 
HETATM   11  C   UNL     1       3.588   9.219  25.009  0.00  0.00     0.001 A 
HETATM   12  C   UNL     1       3.108  10.531  24.887  0.00  0.00     0.013 A 
HETATM   13  C   UNL     1       6.160  12.518  24.219  0.00  0.00     0.153 A 
ENDROOT
BRANCH  13  14
HETATM   14  N   UNL     1       6.966  12.415  23.032  0.00  0.00    -0.344 N 
HETATM   15  C   UNL     1       8.271  12.840  22.999  0.00  0.00     0.253 C 
HETATM   16  O   UNL     1       8.828  13.411  23.926  0.00  0.00    -0.268 OA
HETATM   17  H   UNL     1       6.494  12.184  22.170  0.00  0.00     0.163 HD
BRANCH  15  18
HETATM   18  C   UNL     1       9.003  12.590  21.738  0.00  0.00     0.047 A 
HETATM   19  C   UNL     1       8.484  13.086  20.537  0.00  0.00     0.037 A 
HETATM   20  C   UNL     1       9.197  12.876  19.367  0.00  0.00     0.120 A 
HETATM   21  N   UNL     1      10.381  12.229  19.272  0.00  0.00    -0.242 NA
HETATM   22  C   UNL     1      10.846  11.796  20.457  0.00  0.00     0.138 A 
HETATM   23  C   UNL     1      10.247  11.927  21.705  0.00  0.00     0.027 A 
HETATM   24  N   UNL     1      12.040  11.148  20.620  0.00  0.00    -0.350 N 
HETATM   25  C   UNL     1      11.150  11.343  22.643  0.00  0.00     0.033 A 
HETATM   26  C   UNL     1      12.242  10.869  21.946  0.00  0.00     0.090 A 
HETATM   27  H   UNL     1      12.672  10.942  19.861  0.00  0.00     0.166 HD
ENDBRANCH  15  18
ENDBRANCH  13  14
BRANCH   1  28
HETATM   28  C   UNL     1       1.250  13.347  23.918  0.00  0.00     0.140 C 
HETATM   29  N   UNL     1       0.441  13.534  22.828  0.00  0.00    -0.337 N 
HETATM   30  C   UNL     1      -0.702  12.804  22.999  0.00  0.00     0.080 A 
HETATM   31  H   UNL     1       0.689  14.059  22.003  0.00  0.00     0.167 HD
HETATM   32  C   UNL     1      -1.730  12.446  22.148  0.00  0.00     0.148 A 
HETATM   33  C   UNL     1      -0.679  12.462  24.339  0.00  0.00     0.088 A 
HETATM   34  N   UNL     1      -2.794  11.798  22.673  0.00  0.00    -0.271 NA
HETATM   35  C   UNL     1      -2.818  11.542  24.004  0.00  0.00     0.118 A 
HETATM   36  C   UNL     1      -1.796  11.840  24.895  0.00  0.00     0.053 A 
HETATM   37  N   UNL     1       0.532  12.811  24.900  0.00  0.00    -0.228 NA
ENDBRANCH   1  28
TORSDOF 3
ENDMDL
MODEL 6
REMARK VINA RESULT:    -9.947      2.971      4.351
REMARK INTER + INTRA:         -12.419
REMARK INTER:                 -11.425
REMARK INTRA:                  -0.994
REMARK UNBOUND:                -0.728
REMARK  3 active torsions:
REMARK  status: ('A' for Active; 'I' for Inactive)
REMARK    1  A    between atoms: C_9  and  C_11 
REMARK    2  A    between atoms: C_23  and  N_24 
REMARK       I    between atoms: N_24  and  C_25 
REMARK    3  A    between atoms: C_25  and  C_27 
ROOT
HETATM    1  C   UNL     1       5.735  14.889  24.204  0.00  0.00     0.022 A 
HETATM    2  C   UNL     1       4.970  15.801  24.971  0.00  0.00     0.016 A 
HETATM    3  C   UNL     1       3.573  15.724  25.065  0.00  0.00     0.002 A 
HETATM    4  C   UNL     1       2.888  14.717  24.407  0.00  0.00     0.010 A 
HETATM    5  C   UNL     1       5.036  13.912  23.474  0.00  0.00    -0.003 A 
HETATM    6  C   UNL     1       3.621  13.825  23.638  0.00  0.00    -0.019 A 
HETATM    7  C   UNL     1       5.427  12.843  22.540  0.00  0.00    -0.016 A 
HETATM    8  C   UNL     1       4.296  12.042  22.259  0.00  0.00    -0.020 A 
HETATM    9  C   UNL     1       4.364  10.901  21.463  0.00  0.00     0.010 A 
HETATM   10  C   UNL     1       5.593  10.545  20.920  0.00  0.00     0.001 A 
HETATM   11  C   UNL     1       6.706  11.368  21.113  0.00  0.00     0.001 A 
HETATM   12  C   UNL     1       6.612  12.537  21.884  0.00  0.00     0.013 A 
HETATM   13  C   UNL     1       3.047  12.639  22.880  0.00  0.00     0.153 A 
ENDROOT
BRANCH  13  14
HETATM   14  N   UNL     1       2.409  11.690  23.752  0.00  0.00    -0.344 N 
HETATM   15  C   UNL     1       1.044  11.632  23.892  0.00  0.00     0.253 C 
HETATM   16  O   UNL     1       0.270  12.420  23.367  0.00  0.00    -0.268 OA
HETATM   17  H   UNL     1       2.998  11.181  24.396  0.00  0.00     0.163 HD
BRANCH  15  18
HETATM   18  C   UNL     1       0.525  10.548  24.754  0.00  0.00     0.047 A 
HETATM   19  C   UNL     1       1.135   9.289  24.710  0.00  0.00     0.037 A 
HETATM   20  C   UNL     1       0.663   8.292  25.548  0.00  0.00     0.120 A 
HETATM   21  N   UNL     1      -0.350   8.422  26.434  0.00  0.00    -0.242 NA
HETATM   22  C   UNL     1      -0.883   9.656  26.454  0.00  0.00     0.138 A 
HETATM   23  C   UNL     1      -0.523  10.751  25.675  0.00  0.00     0.027 A 
HETATM   24  N   UNL     1      -1.895  10.041  27.292  0.00  0.00    -0.350 N 
HETATM   25  C   UNL     1      -1.353  11.831  26.099  0.00  0.00     0.033 A 
HETATM   26  C   UNL     1      -2.189  11.363  27.091  0.00  0.00     0.090 A 
HETATM   27  H   UNL     1      -2.324   9.426  27.966  0.00  0.00     0.166 HD
ENDBRANCH  15  18
ENDBRANCH  13  14
BRANCH   1  28
HETATM   28  C   UNL     1       7.196  15.026  24.289  0.00  0.00     0.140 C 
HETATM   29  N   UNL     1       7.918  14.843  25.440  0.00  0.00    -0.337 N 
HETATM   30  C   UNL     1       9.248  14.821  25.123  0.00  0.00     0.080 A 
HETATM   31  H   UNL     1       7.525  14.672  26.352  0.00  0.00     0.167 HD
HETATM   32  C   UNL     1      10.379  14.453  25.825  0.00  0.00     0.148 A 
HETATM   33  C   UNL     1       9.290  15.319  23.833  0.00  0.00     0.088 A 
HETATM   34  N   UNL     1      11.584  14.663  25.248  0.00  0.00    -0.271 NA
HETATM   35  C   UNL     1      11.634  15.237  24.020  0.00  0.00     0.118 A 
HETATM   36  C   UNL     1      10.530  15.585  23.254  0.00  0.00     0.053 A 
HETATM   37  N   UNL     1       8.012  15.450  23.330  0.00  0.00    -0.228 NA
ENDBRANCH   1  28
TORSDOF 3
ENDMDL
MODEL 7
REMARK VINA RESULT:    -9.832      2.830      9.553
REMARK INTER + INTRA:         -12.284
REMARK INTER:                 -11.299
REMARK INTRA:                  -0.985
REMARK UNBOUND:                -0.728
REMARK  3 active torsions:
REMARK  status: ('A' for Active; 'I' for Inactive)
REMARK    1  A    between atoms: C_9  and  C_11 
REMARK    2  A    between atoms: C_23  and  N_24 
REMARK       I    between atoms: N_24  and  C_25 
REMARK    3  A    between atoms: C_25  and  C_27 
ROOT
HETATM    1  C   UNL     1       2.702  14.000  24.989  0.00  0.00     0.022 A 
HETATM    2  C   UNL     1       2.667  15.364  25.365  0.00  0.00     0.016 A 
HETATM    3  C   UNL     1       3.808  16.061  25.789  0.00  0.00     0.002 A 
HETATM    4  C   UNL     1       5.035  15.420  25.835  0.00  0.00     0.010 A 
HETATM    5  C   UNL     1       3.930  13.327  25.108  0.00  0.00    -0.003 A 
HETATM    6  C   UNL     1       5.082  14.079  25.486  0.00  0.00    -0.019 A 
HETATM    7  C   UNL     1       4.376  11.941  24.883  0.00  0.00    -0.016 A 
HETATM    8  C   UNL     1       5.786  11.890  24.986  0.00  0.00    -0.020 A 
HETATM    9  C   UNL     1       6.513  10.726  24.748  0.00  0.00     0.010 A 
HETATM   10  C   UNL     1       5.820   9.571  24.406  0.00  0.00     0.001 A 
HETATM   11  C   UNL     1       4.422   9.577  24.383  0.00  0.00     0.001 A 
HETATM   12  C   UNL     1       3.702  10.747  24.664  0.00  0.00     0.013 A 
HETATM   13  C   UNL     1       6.340  13.227  25.440  0.00  0.00     0.153 A 
ENDROOT
BRANCH  13  14
HETATM   14  N   UNL     1       7.304  13.725  24.496  0.00  0.00    -0.344 N 
HETATM   15  C   UNL     1       8.338  14.546  24.875  0.00  0.00     0.253 C 
HETATM   16  O   UNL     1       8.479  14.988  26.007  0.00  0.00    -0.268 OA
HETATM   17  H   UNL     1       7.101  13.600  23.515  0.00  0.00     0.163 HD
BRANCH  15  18
HETATM   18  C   UNL     1       9.302  14.907  23.814  0.00  0.00     0.047 A 
HETATM   19  C   UNL     1       8.823  15.385  22.589  0.00  0.00     0.037 A 
HETATM   20  C   UNL     1       9.737  15.754  21.616  0.00  0.00     0.120 A 
HETATM   21  N   UNL     1      11.083  15.705  21.740  0.00  0.00    -0.242 NA
HETATM   22  C   UNL     1      11.489  15.264  22.943  0.00  0.00     0.138 A 
HETATM   23  C   UNL     1      10.697  14.855  24.011  0.00  0.00     0.027 A 
HETATM   24  N   UNL     1      12.802  15.162  23.318  0.00  0.00    -0.350 N 
HETATM   25  C   UNL     1      11.596  14.520  25.067  0.00  0.00     0.033 A 
HETATM   26  C   UNL     1      12.883  14.714  24.610  0.00  0.00     0.090 A 
HETATM   27  H   UNL     1      13.574  15.411  22.719  0.00  0.00     0.166 HD
ENDBRANCH  15  18
ENDBRANCH  13  14
BRANCH   1  28
HETATM   28  C   UNL     1       1.453  13.434  24.460  0.00  0.00     0.140 C 
HETATM   29  N   UNL     1       0.616  12.617  25.177  0.00  0.00    -0.337 N 
HETATM   30  C   UNL     1      -0.548  12.460  24.478  0.00  0.00     0.080 A 
HETATM   31  H   UNL     1       0.802  12.262  26.102  0.00  0.00     0.167 HD
HETATM   32  C   UNL     1      -1.787  11.949  24.810  0.00  0.00     0.148 A 
HETATM   33  C   UNL     1      -0.239  12.926  23.212  0.00  0.00     0.088 A 
HETATM   34  N   UNL     1      -2.711  11.830  23.831  0.00  0.00    -0.271 NA
HETATM   35  C   UNL     1      -2.383  12.201  22.568  0.00  0.00     0.118 A 
HETATM   36  C   UNL     1      -1.171  12.760  22.187  0.00  0.00     0.053 A 
HETATM   37  N   UNL     1       1.005  13.520  23.212  0.00  0.00    -0.228 NA
ENDBRANCH   1  28
TORSDOF 3
ENDMDL
MODEL 8
REMARK VINA RESULT:    -9.799      3.179      9.090
REMARK INTER + INTRA:         -12.246
REMARK INTER:                 -11.268
REMARK INTRA:                  -0.977
REMARK UNBOUND:                -0.728
REMARK  3 active torsions:
REMARK  status: ('A' for Active; 'I' for Inactive)
REMARK    1  A    between atoms: C_9  and  C_11 
REMARK    2  A    between atoms: C_23  and  N_24 
REMARK       I    between atoms: N_24  and  C_25 
REMARK    3  A    between atoms: C_25  and  C_27 
ROOT
HETATM    1  C   UNL     1       4.062  10.799  23.102  0.00  0.00     0.022 A 
HETATM    2  C   UNL     1       4.650   9.880  22.199  0.00  0.00     0.016 A 
HETATM    3  C   UNL     1       5.665  10.246  21.304  0.00  0.00     0.002 A 
HETATM    4  C   UNL     1       6.145  11.545  21.291  0.00  0.00     0.010 A 
HETATM    5  C   UNL     1       4.492  12.135  23.038  0.00  0.00    -0.003 A 
HETATM    6  C   UNL     1       5.567  12.460  22.158  0.00  0.00    -0.019 A 
HETATM    7  C   UNL     1       4.116  13.377  23.734  0.00  0.00    -0.016 A 
HETATM    8  C   UNL     1       5.034  14.395  23.387  0.00  0.00    -0.020 A 
HETATM    9  C   UNL     1       4.986  15.670  23.945  0.00  0.00     0.010 A 
HETATM   10  C   UNL     1       3.990  15.950  24.874  0.00  0.00     0.001 A 
HETATM   11  C   UNL     1       3.021  14.987  25.168  0.00  0.00     0.001 A 
HETATM   12  C   UNL     1       3.058  13.720  24.567  0.00  0.00     0.013 A 
HETATM   13  C   UNL     1       5.988  13.913  22.310  0.00  0.00     0.153 A 
ENDROOT
BRANCH  13  14
HETATM   14  N   UNL     1       7.352  14.045  22.743  0.00  0.00    -0.344 N 
HETATM   15  C   UNL     1       8.191  15.002  22.227  0.00  0.00     0.253 C 
HETATM   16  O   UNL     1       7.888  15.755  21.312  0.00  0.00    -0.268 OA
HETATM   17  H   UNL     1       7.734  13.302  23.311  0.00  0.00     0.163 HD
BRANCH  15  18
HETATM   18  C   UNL     1       9.539  15.078  22.830  0.00  0.00     0.047 A 
HETATM   19  C   UNL     1       9.661  15.348  24.198  0.00  0.00     0.037 A 
HETATM   20  C   UNL     1      10.927  15.380  24.759  0.00  0.00     0.120 A 
HETATM   21  N   UNL     1      12.087  15.163  24.099  0.00  0.00    -0.242 NA
HETATM   22  C   UNL     1      11.912  14.883  22.796  0.00  0.00     0.138 A 
HETATM   23  C   UNL     1      10.713  14.819  22.093  0.00  0.00     0.027 A 
HETATM   24  N   UNL     1      12.932  14.591  21.931  0.00  0.00    -0.350 N 
HETATM   25  C   UNL     1      11.053  14.450  20.758  0.00  0.00     0.033 A 
HETATM   26  C   UNL     1      12.425  14.320  20.687  0.00  0.00     0.090 A 
HETATM   27  H   UNL     1      13.902  14.561  22.203  0.00  0.00     0.166 HD
ENDBRANCH  15  18
ENDBRANCH  13  14
BRANCH   1  28
HETATM   28  C   UNL     1       3.088  10.247  24.056  0.00  0.00     0.140 C 
HETATM   29  N   UNL     1       1.796  10.689  24.176  0.00  0.00    -0.337 N 
HETATM   30  C   UNL     1       1.110   9.823  24.980  0.00  0.00     0.080 A 
HETATM   31  H   UNL     1       1.403  11.476  23.684  0.00  0.00     0.167 HD
HETATM   32  C   UNL     1      -0.233   9.650  25.253  0.00  0.00     0.148 A 
HETATM   33  C   UNL     1       2.104   9.069  25.580  0.00  0.00     0.088 A 
HETATM   34  N   UNL     1      -0.580   8.756  26.206  0.00  0.00    -0.271 NA
HETATM   35  C   UNL     1       0.396   8.080  26.861  0.00  0.00     0.118 A 
HETATM   36  C   UNL     1       1.755   8.182  26.598  0.00  0.00     0.053 A 
HETATM   37  N   UNL     1       3.326   9.347  25.004  0.00  0.00    -0.228 NA
ENDBRANCH   1  28
TORSDOF 3
ENDMDL
MODEL 9
REMARK VINA RESULT:    -9.665      3.136      9.013
REMARK INTER + INTRA:         -12.088
REMARK INTER:                 -11.360
REMARK INTRA:                  -0.728
REMARK UNBOUND:                -0.728
REMARK  3 active torsions:
REMARK  status: ('A' for Active; 'I' for Inactive)
REMARK    1  A    between atoms: C_9  and  C_11 
REMARK    2  A    between atoms: C_23  and  N_24 
REMARK       I    between atoms: N_24  and  C_25 
REMARK    3  A    between atoms: C_25  and  C_27 
ROOT
HETATM    1  C   UNL     1       4.324  10.748  22.984  0.00  0.00     0.022 A 
HETATM    2  C   UNL     1       4.970   9.687  22.305  0.00  0.00     0.016 A 
HETATM    3  C   UNL     1       6.116   9.880  21.520  0.00  0.00     0.002 A 
HETATM    4  C   UNL     1       6.671  11.143  21.400  0.00  0.00     0.010 A 
HETATM    5  C   UNL     1       4.839  12.043  22.802  0.00  0.00    -0.003 A 
HETATM    6  C   UNL     1       6.040  12.195  22.045  0.00  0.00    -0.019 A 
HETATM    7  C   UNL     1       4.449  13.386  23.264  0.00  0.00    -0.016 A 
HETATM    8  C   UNL     1       5.466  14.305  22.915  0.00  0.00    -0.020 A 
HETATM    9  C   UNL     1       5.422  15.648  23.284  0.00  0.00     0.010 A 
HETATM   10  C   UNL     1       4.330  16.097  24.017  0.00  0.00     0.001 A 
HETATM   11  C   UNL     1       3.273  15.227  24.299  0.00  0.00     0.001 A 
HETATM   12  C   UNL     1       3.313  13.887  23.885  0.00  0.00     0.013 A 
HETATM   13  C   UNL     1       6.524  13.636  22.057  0.00  0.00     0.153 A 
ENDROOT
BRANCH  13  14
HETATM   14  N   UNL     1       7.824  13.771  22.657  0.00  0.00    -0.344 N 
HETATM   15  C   UNL     1       8.940  14.071  21.915  0.00  0.00     0.253 C 
HETATM   16  O   UNL     1       8.945  14.163  20.695  0.00  0.00    -0.268 OA
HETATM   17  H   UNL     1       7.929  13.466  23.614  0.00  0.00     0.163 HD
BRANCH  15  18
HETATM   18  C   UNL     1      10.192  14.267  22.677  0.00  0.00     0.047 A 
HETATM   19  C   UNL     1      10.645  15.568  22.925  0.00  0.00     0.037 A 
HETATM   20  C   UNL     1      11.800  15.739  23.671  0.00  0.00     0.120 A 
HETATM   21  N   UNL     1      12.548  14.747  24.203  0.00  0.00    -0.242 NA
HETATM   22  C   UNL     1      12.056  13.520  23.957  0.00  0.00     0.138 A 
HETATM   23  C   UNL     1      10.919  13.191  23.227  0.00  0.00     0.027 A 
HETATM   24  N   UNL     1      12.617  12.362  24.422  0.00  0.00    -0.350 N 
HETATM   25  C   UNL     1      10.803  11.771  23.290  0.00  0.00     0.033 A 
HETATM   26  C   UNL     1      11.863  11.288  24.028  0.00  0.00     0.090 A 
HETATM   27  H   UNL     1      13.450  12.335  24.991  0.00  0.00     0.166 HD
ENDBRANCH  15  18
ENDBRANCH  13  14
BRANCH   1  28
HETATM   28  C   UNL     1       3.200  10.379  23.857  0.00  0.00     0.140 C 
HETATM   29  N   UNL     1       2.068  11.135  24.012  0.00  0.00    -0.337 N 
HETATM   30  C   UNL     1       1.143  10.404  24.704  0.00  0.00     0.080 A 
HETATM   31  H   UNL     1       1.918  12.047  23.610  0.00  0.00     0.167 HD
HETATM   32  C   UNL     1      -0.208  10.569  24.940  0.00  0.00     0.148 A 
HETATM   33  C   UNL     1       1.875   9.351  25.224  0.00  0.00     0.088 A 
HETATM   34  N   UNL     1      -0.819   9.704  25.780  0.00  0.00    -0.271 NA
HETATM   35  C   UNL     1      -0.085   8.724  26.364  0.00  0.00     0.118 A 
HETATM   36  C   UNL     1       1.262   8.486  26.129  0.00  0.00     0.053 A 
HETATM   37  N   UNL     1       3.150   9.351  24.698  0.00  0.00    -0.228 NA
ENDBRANCH   1  28
TORSDOF 3
ENDMDL
