MODEL 1
REMARK VINA RESULT:    -9.920      0.000      0.000
REMARK INTER + INTRA:         -14.439
REMARK INTER:                 -13.541
REMARK INTRA:                  -0.898
REMARK UNBOUND:                -1.329
REMARK  6 active torsions:
REMARK  status: ('A' for Active; 'I' for Inactive)
REMARK    1  A    between atoms: C_6  and  C_7 
REMARK    2  A    between atoms: C_7  and  C_8 
REMARK    3  A    between atoms: C_8  and  C_9 
REMARK    4  A    between atoms: C_16  and  C_17 
REMARK    5  A    between atoms: C_24  and  N_25 
REMARK    6  A    between atoms: C_27  and  C_28 
REMARK       I    between atoms: C_28  and  N_30 
ROOT
HETATM    1  C   UNL     1       2.924   9.228  24.122  0.00  0.00    -0.024 A 
HETATM    2  C   UNL     1       3.230   8.043  23.407  0.00  0.00     0.028 A 
HETATM    3  C   UNL     1       3.565  10.378  23.657  0.00  0.00     0.014 A 
HETATM    4  C   UNL     1       4.433  10.347  22.557  0.00  0.00     0.033 A 
HETATM    5  C   UNL     1       4.635   9.203  21.805  0.00  0.00     0.073 A 
HETATM    6  C   UNL     1       4.014   8.019  22.201  0.00  0.00     0.028 A 
HETATM    7  N   UNL     1       5.379   9.322  20.702  0.00  0.00    -0.218 NA
HETATM    8  C   UNL     1       5.473   8.269  19.901  0.00  0.00     0.200 A 
HETATM    9  N   UNL     1       4.942   7.087  20.155  0.00  0.00    -0.212 NA
HETATM   10  C   UNL     1       4.229   6.954  21.296  0.00  0.00     0.140 A 
ENDROOT
BRANCH   1  11
HETATM   11  C   UNL     1       1.855   9.260  25.182  0.00  0.00    -0.017 A 
HETATM   12  C   UNL     1       0.820  10.241  25.312  0.00  0.00    -0.043 A 
HETATM   13  C   UNL     1      -0.248  10.003  26.215  0.00  0.00     0.053 A 
HETATM   14  C   UNL     1      -0.240   8.922  27.078  0.00  0.00     0.155 A 
HETATM   15  F   UNL     1      -1.246   8.774  27.954  0.00  0.00    -0.203 F 
HETATM   16  C   UNL     1       0.795   8.019  27.036  0.00  0.00     0.155 A 
HETATM   17  F   UNL     1       0.821   6.976  27.873  0.00  0.00    -0.203 F 
HETATM   18  C   UNL     1       1.805   8.166  26.089  0.00  0.00     0.058 A 
BRANCH  12  19
HETATM   19  C   UNL     1       0.783  11.541  24.512  0.00  0.00     0.047 C 
BRANCH  19  20
HETATM   20  C   UNL     1      -0.476  12.427  24.650  0.00  0.00     0.085 C 
BRANCH  20  21
HETATM   21  C   UNL     1      -1.322  12.410  23.434  0.00  0.00     0.134 A 
HETATM   22  N   UNL     1      -0.930  12.370  22.178  0.00  0.00    -0.148 NA
HETATM   23  N   UNL     1      -2.075  12.385  21.420  0.00  0.00     0.017 NA
HETATM   24  N   UNL     1      -3.154  12.420  22.190  0.00  0.00    -0.005 NA
HETATM   25  N   UNL     1      -2.688  12.436  23.444  0.00  0.00    -0.272 N 
HETATM   26  H   UNL     1      -3.341  12.475  24.215  0.00  0.00     0.185 HD
ENDBRANCH  20  21
ENDBRANCH  19  20
ENDBRANCH  12  19
ENDBRANCH   1  11
BRANCH  10  27
HETATM   27  C   UNL     1       3.523   5.619  21.428  0.00  0.00     0.273 C 
HETATM   28  O   UNL     1       3.821   4.878  22.369  0.00  0.00    -0.266 OA
HETATM   29  N   UNL     1       2.507   5.238  20.546  0.00  0.00    -0.342 N 
HETATM   30  C   UNL     1       2.085   5.829  19.271  0.00  0.00     0.139 C 
HETATM   31  C   UNL     1       1.823   3.975  20.780  0.00  0.00     0.161 C 
HETATM   32  C   UNL     1       0.663   5.313  19.062  0.00  0.00     0.056 C 
HETATM   33  C   UNL     1       0.682   4.004  19.809  0.00  0.00    -0.056 C 
HETATM   34  C   UNL     1       0.146   5.157  17.657  0.00  0.00    -0.020 C 
HETATM   35  C   UNL     1      -0.185   3.017  19.526  0.00  0.00    -0.018 C 
HETATM   36  C   UNL     1      -1.165   3.148  18.387  0.00  0.00     0.054 C 
HETATM   37  C   UNL     1      -0.732   4.176  17.365  0.00  0.00    -0.026 C 
ENDBRANCH  10  27
BRANCH   8  38
HETATM   38  N   UNL     1       6.173   8.409  18.725  0.00  0.00    -0.271 NA
HETATM   39  H   UNL     1       6.534   7.521  18.408  0.00  0.00     0.127 HD
HETATM   40  H   UNL     1       5.671   8.982  18.064  0.00  0.00     0.127 HD
ENDBRANCH   8  38
TORSDOF 6
ENDMDL
MODEL 2
REMARK VINA RESULT:    -9.847      2.430      3.765
REMARK INTER + INTRA:         -14.342
REMARK INTER:                 -12.975
REMARK INTRA:                  -1.367
REMARK UNBOUND:                -1.329
REMARK  6 active torsions:
REMARK  status: ('A' for Active; 'I' for Inactive)
REMARK    1  A    between atoms: C_6  and  C_7 
REMARK    2  A    between atoms: C_7  and  C_8 
REMARK    3  A    between atoms: C_8  and  C_9 
REMARK    4  A    between atoms: C_16  and  C_17 
REMARK    5  A    between atoms: C_24  and  N_25 
REMARK    6  A    between atoms: C_27  and  C_28 
REMARK       I    between atoms: C_28  and  N_30 
ROOT
HETATM    1  C   UNL     1       2.793   9.384  24.608  0.00  0.00    -0.024 A 
HETATM    2  C   UNL     1       3.069   8.161  23.947  0.00  0.00     0.028 A 
HETATM    3  C   UNL     1       3.348  10.516  24.009  0.00  0.00     0.014 A 
HETATM    4  C   UNL     1       4.109  10.434  22.836  0.00  0.00     0.033 A 
HETATM    5  C   UNL     1       4.277   9.246  22.144  0.00  0.00     0.073 A 
HETATM    6  C   UNL     1       3.736   8.076  22.675  0.00  0.00     0.028 A 
HETATM    7  N   UNL     1       4.909   9.309  20.969  0.00  0.00    -0.218 NA
HETATM    8  C   UNL     1       4.963   8.207  20.234  0.00  0.00     0.200 A 
HETATM    9  N   UNL     1       4.498   7.031  20.615  0.00  0.00    -0.212 NA
HETATM   10  C   UNL     1       3.900   6.957  21.825  0.00  0.00     0.140 A 
ENDROOT
BRANCH   1  11
HETATM   11  C   UNL     1       1.827   9.459  25.762  0.00  0.00    -0.017 A 
HETATM   12  C   UNL     1       0.547  10.102  25.755  0.00  0.00    -0.043 A 
HETATM   13  C   UNL     1      -0.341   9.883  26.839  0.00  0.00     0.053 A 
HETATM   14  C   UNL     1       0.051   9.187  27.969  0.00  0.00     0.155 A 
HETATM   15  F   UNL     1      -0.809   9.058  28.991  0.00  0.00    -0.203 F 
HETATM   16  C   UNL     1       1.312   8.643  28.036  0.00  0.00     0.155 A 
HETATM   17  F   UNL     1       1.708   7.979  29.127  0.00  0.00    -0.203 F 
HETATM   18  C   UNL     1       2.172   8.750  26.945  0.00  0.00     0.058 A 
BRANCH  12  19
HETATM   19  C   UNL     1       0.063  11.008  24.626  0.00  0.00     0.047 C 
BRANCH  19  20
HETATM   20  C   UNL     1      -1.424  11.428  24.638  0.00  0.00     0.085 C 
BRANCH  20  21
HETATM   21  C   UNL     1      -1.876  11.961  23.331  0.00  0.00     0.134 A 
HETATM   22  N   UNL     1      -1.170  12.105  22.229  0.00  0.00    -0.148 NA
HETATM   23  N   UNL     1      -2.021  12.650  21.299  0.00  0.00     0.017 NA
HETATM   24  N   UNL     1      -3.233  12.828  21.809  0.00  0.00    -0.005 NA
HETATM   25  N   UNL     1      -3.144  12.401  23.075  0.00  0.00    -0.272 N 
HETATM   26  H   UNL     1      -3.959  12.452  23.673  0.00  0.00     0.185 HD
ENDBRANCH  20  21
ENDBRANCH  19  20
ENDBRANCH  12  19
ENDBRANCH   1  11
BRANCH  10  27
HETATM   27  C   UNL     1       3.254   5.616  22.112  0.00  0.00     0.273 C 
HETATM   28  O   UNL     1       2.258   5.284  21.465  0.00  0.00    -0.266 OA
HETATM   29  N   UNL     1       3.795   4.730  23.050  0.00  0.00    -0.342 N 
HETATM   30  C   UNL     1       4.840   4.936  24.058  0.00  0.00     0.139 C 
HETATM   31  C   UNL     1       3.164   3.430  23.218  0.00  0.00     0.161 C 
HETATM   32  C   UNL     1       5.332   3.530  24.393  0.00  0.00     0.056 C 
HETATM   33  C   UNL     1       4.116   2.686  24.105  0.00  0.00    -0.056 C 
HETATM   34  C   UNL     1       5.895   3.263  25.763  0.00  0.00    -0.020 C 
HETATM   35  C   UNL     1       3.943   1.480  24.672  0.00  0.00    -0.018 C 
HETATM   36  C   UNL     1       4.924   0.952  25.689  0.00  0.00     0.054 C 
HETATM   37  C   UNL     1       5.736   2.053  26.336  0.00  0.00    -0.026 C 
ENDBRANCH  10  27
BRANCH   8  38
HETATM   38  N   UNL     1       5.543   8.285  18.990  0.00  0.00    -0.271 NA
HETATM   39  H   UNL     1       6.480   8.657  19.047  0.00  0.00     0.127 HD
HETATM   40  H   UNL     1       5.400   7.438  18.462  0.00  0.00     0.127 HD
ENDBRANCH   8  38
TORSDOF 6
ENDMDL
MODEL 3
REMARK VINA RESULT:    -9.844      1.359      1.654
REMARK INTER + INTRA:         -14.338
REMARK INTER:                 -13.046
REMARK INTRA:                  -1.292
REMARK UNBOUND:                -1.329
REMARK  6 active torsions:
REMARK  status: ('A' for Active; 'I' for Inactive)
REMARK    1  A    between atoms: C_6  and  C_7 
REMARK    2  A    between atoms: C_7  and  C_8 
REMARK    3  A    between atoms: C_8  and  C_9 
REMARK    4  A    between atoms: C_16  and  C_17 
REMARK    5  A    between atoms: C_24  and  N_25 
REMARK    6  A    between atoms: C_27  and  C_28 
REMARK       I    between atoms: C_28  and  N_30 
ROOT
HETATM    1  C   UNL     1       2.787   7.642  24.136  0.00  0.00    -0.024 A 
HETATM    2  C   UNL     1       3.323   6.693  23.229  0.00  0.00     0.028 A 
HETATM    3  C   UNL     1       3.181   8.962  23.909  0.00  0.00     0.014 A 
HETATM    4  C   UNL     1       4.035   9.307  22.852  0.00  0.00     0.033 A 
HETATM    5  C   UNL     1       4.460   8.384  21.912  0.00  0.00     0.073 A 
HETATM    6  C   UNL     1       4.091   7.048  22.066  0.00  0.00     0.028 A 
HETATM    7  N   UNL     1       5.161   8.849  20.875  0.00  0.00    -0.218 NA
HETATM    8  C   UNL     1       5.462   8.002  19.900  0.00  0.00     0.200 A 
HETATM    9  N   UNL     1       5.181   6.712  19.917  0.00  0.00    -0.212 NA
HETATM   10  C   UNL     1       4.513   6.232  20.990  0.00  0.00     0.140 A 
ENDROOT
BRANCH   1  11
HETATM   11  C   UNL     1       1.736   7.265  25.148  0.00  0.00    -0.017 A 
HETATM   12  C   UNL     1       0.507   7.959  25.391  0.00  0.00    -0.043 A 
HETATM   13  C   UNL     1      -0.480   7.348  26.206  0.00  0.00     0.053 A 
HETATM   14  C   UNL     1      -0.231   6.171  26.888  0.00  0.00     0.155 A 
HETATM   15  F   UNL     1      -1.179   5.665  27.692  0.00  0.00    -0.203 F 
HETATM   16  C   UNL     1       0.981   5.538  26.744  0.00  0.00     0.155 A 
HETATM   17  F   UNL     1       1.240   4.406  27.408  0.00  0.00    -0.203 F 
HETATM   18  C   UNL     1       1.933   6.056  25.870  0.00  0.00     0.058 A 
BRANCH  12  19
HETATM   19  C   UNL     1       0.180   9.329  24.804  0.00  0.00     0.047 C 
BRANCH  19  20
HETATM   20  C   UNL     1      -1.096  10.037  25.314  0.00  0.00     0.085 C 
BRANCH  20  21
HETATM   21  C   UNL     1      -1.746  10.862  24.269  0.00  0.00     0.134 A 
HETATM   22  N   UNL     1      -1.250  11.233  23.107  0.00  0.00    -0.148 NA
HETATM   23  N   UNL     1      -2.221  11.994  22.503  0.00  0.00     0.017 NA
HETATM   24  N   UNL     1      -3.301  12.081  23.268  0.00  0.00    -0.005 NA
HETATM   25  N   UNL     1      -3.007  11.378  24.368  0.00  0.00    -0.272 N 
HETATM   26  H   UNL     1      -3.691  11.312  25.111  0.00  0.00     0.185 HD
ENDBRANCH  20  21
ENDBRANCH  19  20
ENDBRANCH  12  19
ENDBRANCH   1  11
BRANCH  10  27
HETATM   27  C   UNL     1       4.090   4.782  20.855  0.00  0.00     0.273 C 
HETATM   28  O   UNL     1       4.855   3.900  21.252  0.00  0.00    -0.266 OA
HETATM   29  N   UNL     1       2.836   4.431  20.346  0.00  0.00    -0.342 N 
HETATM   30  C   UNL     1       1.828   5.245  19.657  0.00  0.00     0.139 C 
HETATM   31  C   UNL     1       2.470   3.023  20.316  0.00  0.00     0.161 C 
HETATM   32  C   UNL     1       0.528   4.460  19.817  0.00  0.00     0.056 C 
HETATM   33  C   UNL     1       1.020   3.041  19.937  0.00  0.00    -0.056 C 
HETATM   34  C   UNL     1      -0.541   4.603  18.766  0.00  0.00    -0.020 C 
HETATM   35  C   UNL     1       0.232   1.993  19.645  0.00  0.00    -0.018 C 
HETATM   36  C   UNL     1      -1.161   2.197  19.103  0.00  0.00     0.054 C 
HETATM   37  C   UNL     1      -1.344   3.560  18.473  0.00  0.00    -0.026 C 
ENDBRANCH  10  27
BRANCH   8  38
HETATM   38  N   UNL     1       6.115   8.492  18.793  0.00  0.00    -0.271 NA
HETATM   39  H   UNL     1       6.568   9.371  18.997  0.00  0.00     0.127 HD
HETATM   40  H   UNL     1       6.655   7.774  18.335  0.00  0.00     0.127 HD
ENDBRANCH   8  38
TORSDOF 6
ENDMDL
MODEL 4
REMARK VINA RESULT:    -9.396      3.863      8.038
REMARK INTER + INTRA:         -13.746
REMARK INTER:                 -11.969
REMARK INTRA:                  -1.777
REMARK UNBOUND:                -1.329
REMARK  6 active torsions:
REMARK  status: ('A' for Active; 'I' for Inactive)
REMARK    1  A    between atoms: C_6  and  C_7 
REMARK    2  A    between atoms: C_7  and  C_8 
REMARK    3  A    between atoms: C_8  and  C_9 
REMARK    4  A    between atoms: C_16  and  C_17 
REMARK    5  A    between atoms: C_24  and  N_25 
REMARK    6  A    between atoms: C_27  and  C_28 
REMARK       I    between atoms: C_28  and  N_30 
ROOT
HETATM    1  C   UNL     1       3.717   6.147  25.468  0.00  0.00    -0.024 A 
HETATM    2  C   UNL     1       2.598   6.971  25.747  0.00  0.00     0.028 A 
HETATM    3  C   UNL     1       4.627   6.013  26.518  0.00  0.00     0.014 A 
HETATM    4  C   UNL     1       4.428   6.645  27.753  0.00  0.00     0.033 A 
HETATM    5  C   UNL     1       3.277   7.355  28.044  0.00  0.00     0.073 A 
HETATM    6  C   UNL     1       2.315   7.516  27.048  0.00  0.00     0.028 A 
HETATM    7  N   UNL     1       3.135   7.802  29.295  0.00  0.00    -0.218 NA
HETATM    8  C   UNL     1       1.983   8.369  29.625  0.00  0.00     0.200 A 
HETATM    9  N   UNL     1       0.990   8.589  28.783  0.00  0.00    -0.212 NA
HETATM   10  C   UNL     1       1.152   8.180  27.505  0.00  0.00     0.140 A 
ENDROOT
BRANCH   1  11
HETATM   11  C   UNL     1       3.811   5.343  24.197  0.00  0.00    -0.017 A 
HETATM   12  C   UNL     1       4.577   5.682  23.035  0.00  0.00    -0.043 A 
HETATM   13  C   UNL     1       4.751   4.710  22.016  0.00  0.00     0.053 A 
HETATM   14  C   UNL     1       4.082   3.500  22.046  0.00  0.00     0.155 A 
HETATM   15  F   UNL     1       4.237   2.639  21.028  0.00  0.00    -0.203 F 
HETATM   16  C   UNL     1       3.265   3.194  23.108  0.00  0.00     0.155 A 
HETATM   17  F   UNL     1       2.603   2.033  23.144  0.00  0.00    -0.203 F 
HETATM   18  C   UNL     1       3.155   4.082  24.176  0.00  0.00     0.058 A 
BRANCH  12  19
HETATM   19  C   UNL     1       5.243   7.039  22.829  0.00  0.00     0.047 C 
BRANCH  19  20
HETATM   20  C   UNL     1       4.395   8.159  22.185  0.00  0.00     0.085 C 
BRANCH  20  21
HETATM   21  C   UNL     1       4.528   8.198  20.710  0.00  0.00     0.134 A 
HETATM   22  N   UNL     1       3.566   8.276  19.814  0.00  0.00    -0.148 NA
HETATM   23  N   UNL     1       4.185   8.267  18.588  0.00  0.00     0.017 NA
HETATM   24  N   UNL     1       5.504   8.197  18.721  0.00  0.00    -0.005 NA
HETATM   25  N   UNL     1       5.719   8.154  20.041  0.00  0.00    -0.272 N 
HETATM   26  H   UNL     1       6.667   8.086  20.386  0.00  0.00     0.185 HD
ENDBRANCH  20  21
ENDBRANCH  19  20
ENDBRANCH  12  19
ENDBRANCH   1  11
BRANCH  10  27
HETATM   27  C   UNL     1      -0.091   8.325  26.649  0.00  0.00     0.273 C 
HETATM   28  O   UNL     1      -0.976   7.469  26.736  0.00  0.00    -0.266 OA
HETATM   29  N   UNL     1      -0.278   9.429  25.812  0.00  0.00    -0.342 N 
HETATM   30  C   UNL     1       0.662  10.475  25.395  0.00  0.00     0.139 C 
HETATM   31  C   UNL     1      -1.529   9.538  25.078  0.00  0.00     0.161 C 
HETATM   32  C   UNL     1      -0.227  11.628  24.935  0.00  0.00     0.056 C 
HETATM   33  C   UNL     1      -1.475  10.913  24.486  0.00  0.00    -0.056 C 
HETATM   34  C   UNL     1       0.294  12.574  23.886  0.00  0.00    -0.020 C 
HETATM   35  C   UNL     1      -2.329  11.467  23.608  0.00  0.00    -0.018 C 
HETATM   36  C   UNL     1      -2.029  12.800  22.969  0.00  0.00     0.054 C 
HETATM   37  C   UNL     1      -0.556  13.142  23.007  0.00  0.00    -0.026 C 
ENDBRANCH  10  27
BRANCH   8  38
HETATM   38  N   UNL     1       1.802   8.759  30.932  0.00  0.00    -0.271 NA
HETATM   39  H   UNL     1       2.446   8.282  31.547  0.00  0.00     0.127 HD
HETATM   40  H   UNL     1       1.724   9.761  31.010  0.00  0.00     0.127 HD
ENDBRANCH   8  38
TORSDOF 6
ENDMDL
MODEL 5
REMARK VINA RESULT:    -9.382      2.215      2.807
REMARK INTER + INTRA:         -13.727
REMARK INTER:                 -12.345
REMARK INTRA:                  -1.382
REMARK UNBOUND:                -1.329
REMARK  6 active torsions:
REMARK  status: ('A' for Active; 'I' for Inactive)
REMARK    1  A    between atoms: C_6  and  C_7 
REMARK    2  A    between atoms: C_7  and  C_8 
REMARK    3  A    between atoms: C_8  and  C_9 
REMARK    4  A    between atoms: C_16  and  C_17 
REMARK    5  A    between atoms: C_24  and  N_25 
REMARK    6  A    between atoms: C_27  and  C_28 
REMARK       I    between atoms: C_28  and  N_30 
ROOT
HETATM    1  C   UNL     1       2.688   7.393  24.201  0.00  0.00    -0.024 A 
HETATM    2  C   UNL     1       3.239   6.486  23.261  0.00  0.00     0.028 A 
HETATM    3  C   UNL     1       3.044   8.729  24.009  0.00  0.00     0.014 A 
HETATM    4  C   UNL     1       3.876   9.129  22.955  0.00  0.00     0.033 A 
HETATM    5  C   UNL     1       4.315   8.246  21.983  0.00  0.00     0.073 A 
HETATM    6  C   UNL     1       3.984   6.897  22.101  0.00  0.00     0.028 A 
HETATM    7  N   UNL     1       4.992   8.760  20.953  0.00  0.00    -0.218 NA
HETATM    8  C   UNL     1       5.305   7.950  19.951  0.00  0.00     0.200 A 
HETATM    9  N   UNL     1       5.059   6.653  19.932  0.00  0.00    -0.212 NA
HETATM   10  C   UNL     1       4.415   6.124  20.997  0.00  0.00     0.140 A 
ENDROOT
BRANCH   1  11
HETATM   11  C   UNL     1       1.659   6.958  25.212  0.00  0.00    -0.017 A 
HETATM   12  C   UNL     1       0.369   7.546  25.414  0.00  0.00    -0.043 A 
HETATM   13  C   UNL     1      -0.573   6.876  26.237  0.00  0.00     0.053 A 
HETATM   14  C   UNL     1      -0.230   5.752  26.965  0.00  0.00     0.155 A 
HETATM   15  F   UNL     1      -1.142   5.190  27.773  0.00  0.00    -0.203 F 
HETATM   16  C   UNL     1       1.035   5.226  26.859  0.00  0.00     0.155 A 
HETATM   17  F   UNL     1       1.384   4.146  27.566  0.00  0.00    -0.203 F 
HETATM   18  C   UNL     1       1.952   5.797  25.979  0.00  0.00     0.058 A 
BRANCH  12  19
HETATM   19  C   UNL     1      -0.070   8.860  24.774  0.00  0.00     0.047 C 
BRANCH  19  20
HETATM   20  C   UNL     1       0.153  10.157  25.584  0.00  0.00     0.085 C 
BRANCH  20  21
HETATM   21  C   UNL     1      -0.745  10.256  26.759  0.00  0.00     0.134 A 
HETATM   22  N   UNL     1      -2.010  10.622  26.781  0.00  0.00    -0.148 NA
HETATM   23  N   UNL     1      -2.399  10.569  28.097  0.00  0.00     0.017 NA
HETATM   24  N   UNL     1      -1.401  10.167  28.873  0.00  0.00    -0.005 NA
HETATM   25  N   UNL     1      -0.370   9.972  28.042  0.00  0.00    -0.272 N 
HETATM   26  H   UNL     1       0.519   9.669  28.418  0.00  0.00     0.185 HD
ENDBRANCH  20  21
ENDBRANCH  19  20
ENDBRANCH  12  19
ENDBRANCH   1  11
BRANCH  10  27
HETATM   27  C   UNL     1       4.030   4.668  20.823  0.00  0.00     0.273 C 
HETATM   28  O   UNL     1       4.821   3.795  21.190  0.00  0.00    -0.266 OA
HETATM   29  N   UNL     1       2.783   4.298  20.310  0.00  0.00    -0.342 N 
HETATM   30  C   UNL     1       1.750   5.104  19.649  0.00  0.00     0.139 C 
HETATM   31  C   UNL     1       2.454   2.883  20.242  0.00  0.00     0.161 C 
HETATM   32  C   UNL     1       0.472   4.282  19.793  0.00  0.00     0.056 C 
HETATM   33  C   UNL     1       1.002   2.873  19.871  0.00  0.00    -0.056 C 
HETATM   34  C   UNL     1      -0.606   4.426  18.753  0.00  0.00    -0.020 C 
HETATM   35  C   UNL     1       0.240   1.813  19.553  0.00  0.00    -0.018 C 
HETATM   36  C   UNL     1      -1.161   1.995  19.024  0.00  0.00     0.054 C 
HETATM   37  C   UNL     1      -1.383   3.370  18.434  0.00  0.00    -0.026 C 
ENDBRANCH  10  27
BRANCH   8  38
HETATM   38  N   UNL     1       5.932   8.491  18.852  0.00  0.00    -0.271 NA
HETATM   39  H   UNL     1       6.538   7.816  18.409  0.00  0.00     0.127 HD
HETATM   40  H   UNL     1       5.285   9.002  18.272  0.00  0.00     0.127 HD
ENDBRANCH   8  38
TORSDOF 6
ENDMDL
MODEL 6
REMARK VINA RESULT:    -9.285      3.741      5.131
REMARK INTER + INTRA:         -13.599
REMARK INTER:                 -12.270
REMARK INTRA:                  -1.329
REMARK UNBOUND:                -1.329
REMARK  6 active torsions:
REMARK  status: ('A' for Active; 'I' for Inactive)
REMARK    1  A    between atoms: C_6  and  C_7 
REMARK    2  A    between atoms: C_7  and  C_8 
REMARK    3  A    between atoms: C_8  and  C_9 
REMARK    4  A    between atoms: C_16  and  C_17 
REMARK    5  A    between atoms: C_24  and  N_25 
REMARK    6  A    between atoms: C_27  and  C_28 
REMARK       I    between atoms: C_28  and  N_30 
ROOT
HETATM    1  C   UNL     1       2.832   7.455  24.399  0.00  0.00    -0.024 A 
HETATM    2  C   UNL     1       2.997   7.453  22.991  0.00  0.00     0.028 A 
HETATM    3  C   UNL     1       3.945   7.022  25.123  0.00  0.00     0.014 A 
HETATM    4  C   UNL     1       5.132   6.629  24.489  0.00  0.00     0.033 A 
HETATM    5  C   UNL     1       5.311   6.738  23.121  0.00  0.00     0.073 A 
HETATM    6  C   UNL     1       4.247   7.179  22.336  0.00  0.00     0.028 A 
HETATM    7  N   UNL     1       6.527   6.460  22.641  0.00  0.00    -0.218 NA
HETATM    8  C   UNL     1       6.752   6.686  21.354  0.00  0.00     0.200 A 
HETATM    9  N   UNL     1       5.837   7.097  20.496  0.00  0.00    -0.212 NA
HETATM   10  C   UNL     1       4.594   7.333  20.972  0.00  0.00     0.140 A 
ENDROOT
BRANCH   1  11
HETATM   11  C   UNL     1       1.612   8.049  25.054  0.00  0.00    -0.017 A 
HETATM   12  C   UNL     1       0.736   7.386  25.972  0.00  0.00    -0.043 A 
HETATM   13  C   UNL     1      -0.227   8.150  26.681  0.00  0.00     0.053 A 
HETATM   14  C   UNL     1      -0.441   9.487  26.401  0.00  0.00     0.155 A 
HETATM   15  F   UNL     1      -1.404  10.149  27.059  0.00  0.00    -0.203 F 
HETATM   16  C   UNL     1       0.326  10.120  25.451  0.00  0.00     0.155 A 
HETATM   17  F   UNL     1       0.122  11.409  25.162  0.00  0.00    -0.203 F 
HETATM   18  C   UNL     1       1.351   9.426  24.813  0.00  0.00     0.058 A 
BRANCH  12  19
HETATM   19  C   UNL     1       0.787   5.887  26.256  0.00  0.00     0.047 C 
BRANCH  19  20
HETATM   20  C   UNL     1      -0.041   5.359  27.450  0.00  0.00     0.085 C 
BRANCH  20  21
HETATM   21  C   UNL     1       0.765   5.222  28.686  0.00  0.00     0.134 A 
HETATM   22  N   UNL     1       0.537   5.765  29.864  0.00  0.00    -0.148 NA
HETATM   23  N   UNL     1       1.565   5.357  30.677  0.00  0.00     0.017 NA
HETATM   24  N   UNL     1       2.407   4.569  30.022  0.00  0.00    -0.005 NA
HETATM   25  N   UNL     1       1.911   4.484  28.782  0.00  0.00    -0.272 N 
HETATM   26  H   UNL     1       2.401   3.934  28.089  0.00  0.00     0.185 HD
ENDBRANCH  20  21
ENDBRANCH  19  20
ENDBRANCH  12  19
ENDBRANCH   1  11
BRANCH  10  27
HETATM   27  C   UNL     1       3.653   7.954  19.959  0.00  0.00     0.273 C 
HETATM   28  O   UNL     1       3.475   9.174  19.982  0.00  0.00    -0.266 OA
HETATM   29  N   UNL     1       3.032   7.184  18.970  0.00  0.00    -0.342 N 
HETATM   30  C   UNL     1       2.930   5.728  18.824  0.00  0.00     0.139 C 
HETATM   31  C   UNL     1       2.201   7.860  17.986  0.00  0.00     0.161 C 
HETATM   32  C   UNL     1       2.609   5.513  17.347  0.00  0.00     0.056 C 
HETATM   33  C   UNL     1       1.897   6.790  16.982  0.00  0.00    -0.056 C 
HETATM   34  C   UNL     1       1.827   4.292  16.943  0.00  0.00    -0.020 C 
HETATM   35  C   UNL     1       1.057   6.855  15.936  0.00  0.00    -0.018 C 
HETATM   36  C   UNL     1       0.726   5.625  15.128  0.00  0.00     0.054 C 
HETATM   37  C   UNL     1       0.988   4.345  15.888  0.00  0.00    -0.026 C 
ENDBRANCH  10  27
BRANCH   8  38
HETATM   38  N   UNL     1       8.023   6.476  20.872  0.00  0.00    -0.271 NA
HETATM   39  H   UNL     1       8.128   6.856  19.942  0.00  0.00     0.127 HD
HETATM   40  H   UNL     1       8.722   6.708  21.561  0.00  0.00     0.127 HD
ENDBRANCH   8  38
TORSDOF 6
ENDMDL
MODEL 7
REMARK VINA RESULT:    -9.257      3.788      7.877
REMARK INTER + INTRA:         -13.563
REMARK INTER:                 -11.831
REMARK INTRA:                  -1.731
REMARK UNBOUND:                -1.329
REMARK  6 active torsions:
REMARK  status: ('A' for Active; 'I' for Inactive)
REMARK    1  A    between atoms: C_6  and  C_7 
REMARK    2  A    between atoms: C_7  and  C_8 
REMARK    3  A    between atoms: C_8  and  C_9 
REMARK    4  A    between atoms: C_16  and  C_17 
REMARK    5  A    between atoms: C_24  and  N_25 
REMARK    6  A    between atoms: C_27  and  C_28 
REMARK       I    between atoms: C_28  and  N_30 
ROOT
HETATM    1  C   UNL     1       4.029   5.743  23.377  0.00  0.00    -0.024 A 
HETATM    2  C   UNL     1       3.025   6.512  24.018  0.00  0.00     0.028 A 
HETATM    3  C   UNL     1       5.121   5.412  24.182  0.00  0.00     0.014 A 
HETATM    4  C   UNL     1       5.198   5.810  25.524  0.00  0.00     0.033 A 
HETATM    5  C   UNL     1       4.159   6.466  26.162  0.00  0.00     0.073 A 
HETATM    6  C   UNL     1       3.029   6.814  25.424  0.00  0.00     0.028 A 
HETATM    7  N   UNL     1       4.287   6.678  27.475  0.00  0.00    -0.218 NA
HETATM    8  C   UNL     1       3.249   7.185  28.125  0.00  0.00     0.200 A 
HETATM    9  N   UNL     1       2.121   7.565  27.553  0.00  0.00    -0.212 NA
HETATM   10  C   UNL     1       2.010   7.393  26.217  0.00  0.00     0.140 A 
ENDROOT
BRANCH   1  11
HETATM   11  C   UNL     1       3.835   5.183  21.993  0.00  0.00    -0.017 A 
HETATM   12  C   UNL     1       4.803   5.180  20.937  0.00  0.00    -0.043 A 
HETATM   13  C   UNL     1       4.553   4.407  19.773  0.00  0.00     0.053 A 
HETATM   14  C   UNL     1       3.339   3.776  19.569  0.00  0.00     0.155 A 
HETATM   15  F   UNL     1       3.132   3.106  18.425  0.00  0.00    -0.203 F 
HETATM   16  C   UNL     1       2.359   3.847  20.530  0.00  0.00     0.155 A 
HETATM   17  F   UNL     1       1.176   3.252  20.340  0.00  0.00    -0.203 F 
HETATM   18  C   UNL     1       2.610   4.509  21.730  0.00  0.00     0.058 A 
BRANCH  12  19
HETATM   19  C   UNL     1       6.117   5.955  20.993  0.00  0.00     0.047 C 
BRANCH  19  20
HETATM   20  C   UNL     1       6.041   7.495  20.879  0.00  0.00     0.085 C 
BRANCH  20  21
HETATM   21  C   UNL     1       4.979   7.946  19.950  0.00  0.00     0.134 A 
HETATM   22  N   UNL     1       4.961   7.854  18.637  0.00  0.00    -0.148 NA
HETATM   23  N   UNL     1       3.779   8.422  18.231  0.00  0.00     0.017 NA
HETATM   24  N   UNL     1       3.072   8.846  19.271  0.00  0.00    -0.005 NA
HETATM   25  N   UNL     1       3.818   8.551  20.342  0.00  0.00    -0.272 N 
HETATM   26  H   UNL     1       3.480   8.796  21.264  0.00  0.00     0.185 HD
ENDBRANCH  20  21
ENDBRANCH  19  20
ENDBRANCH  12  19
ENDBRANCH   1  11
BRANCH  10  27
HETATM   27  C   UNL     1       0.630   7.702  25.669  0.00  0.00     0.273 C 
HETATM   28  O   UNL     1      -0.241   6.831  25.725  0.00  0.00    -0.266 OA
HETATM   29  N   UNL     1       0.313   8.964  25.156  0.00  0.00    -0.342 N 
HETATM   30  C   UNL     1       1.180  10.097  24.816  0.00  0.00     0.139 C 
HETATM   31  C   UNL     1      -1.052   9.210  24.717  0.00  0.00     0.161 C 
HETATM   32  C   UNL     1       0.247  11.306  24.809  0.00  0.00     0.056 C 
HETATM   33  C   UNL     1      -1.080  10.685  24.455  0.00  0.00    -0.056 C 
HETATM   34  C   UNL     1       0.580  12.476  23.923  0.00  0.00    -0.020 C 
HETATM   35  C   UNL     1      -2.072  11.406  23.905  0.00  0.00    -0.018 C 
HETATM   36  C   UNL     1      -1.869  12.856  23.541  0.00  0.00     0.054 C 
HETATM   37  C   UNL     1      -0.408  13.212  23.374  0.00  0.00    -0.026 C 
ENDBRANCH  10  27
BRANCH   8  38
HETATM   38  N   UNL     1       3.347   7.332  29.489  0.00  0.00    -0.271 NA
HETATM   39  H   UNL     1       2.775   6.655  29.971  0.00  0.00     0.127 HD
HETATM   40  H   UNL     1       4.307   7.437  29.781  0.00  0.00     0.127 HD
ENDBRANCH   8  38
TORSDOF 6
ENDMDL
MODEL 8
REMARK VINA RESULT:    -9.191      4.244      6.040
REMARK INTER + INTRA:         -13.475
REMARK INTER:                 -12.275
REMARK INTRA:                  -1.200
REMARK UNBOUND:                -1.329
REMARK  6 active torsions:
REMARK  status: ('A' for Active; 'I' for Inactive)
REMARK    1  A    between atoms: C_6  and  C_7 
REMARK    2  A    between atoms: C_7  and  C_8 
REMARK    3  A    between atoms: C_8  and  C_9 
REMARK    4  A    between atoms: C_16  and  C_17 
REMARK    5  A    between atoms: C_24  and  N_25 
REMARK    6  A    between atoms: C_27  and  C_28 
REMARK       I    between atoms: C_28  and  N_30 
ROOT
HETATM    1  C   UNL     1       4.442   5.755  20.854  0.00  0.00    -0.024 A 
HETATM    2  C   UNL     1       3.406   5.643  19.893  0.00  0.00     0.028 A 
HETATM    3  C   UNL     1       5.015   7.024  20.957  0.00  0.00     0.014 A 
HETATM    4  C   UNL     1       4.580   8.098  20.169  0.00  0.00     0.033 A 
HETATM    5  C   UNL     1       3.496   7.997  19.315  0.00  0.00     0.073 A 
HETATM    6  C   UNL     1       2.863   6.764  19.173  0.00  0.00     0.028 A 
HETATM    7  N   UNL     1       3.088   9.118  18.714  0.00  0.00    -0.218 NA
HETATM    8  C   UNL     1       1.973   9.067  17.997  0.00  0.00     0.200 A 
HETATM    9  N   UNL     1       1.277   7.967  17.774  0.00  0.00    -0.212 NA
HETATM   10  C   UNL     1       1.717   6.823  18.344  0.00  0.00     0.140 A 
ENDROOT
BRANCH   1  11
HETATM   11  C   UNL     1       4.763   4.633  21.806  0.00  0.00    -0.017 A 
HETATM   12  C   UNL     1       5.260   4.772  23.142  0.00  0.00    -0.043 A 
HETATM   13  C   UNL     1       5.287   3.634  23.990  0.00  0.00     0.053 A 
HETATM   14  C   UNL     1       4.988   2.369  23.516  0.00  0.00     0.155 A 
HETATM   15  F   UNL     1       5.085   1.318  24.345  0.00  0.00    -0.203 F 
HETATM   16  C   UNL     1       4.601   2.201  22.208  0.00  0.00     0.155 A 
HETATM   17  F   UNL     1       4.321   0.982  21.734  0.00  0.00    -0.203 F 
HETATM   18  C   UNL     1       4.462   3.311  21.378  0.00  0.00     0.058 A 
BRANCH  12  19
HETATM   19  C   UNL     1       5.751   6.092  23.728  0.00  0.00     0.047 C 
BRANCH  19  20
HETATM   20  C   UNL     1       4.996   6.653  24.955  0.00  0.00     0.085 C 
BRANCH  20  21
HETATM   21  C   UNL     1       3.979   7.665  24.584  0.00  0.00     0.134 A 
HETATM   22  N   UNL     1       2.673   7.592  24.736  0.00  0.00    -0.148 NA
HETATM   23  N   UNL     1       2.164   8.762  24.230  0.00  0.00     0.017 NA
HETATM   24  N   UNL     1       3.134   9.550  23.785  0.00  0.00    -0.005 NA
HETATM   25  N   UNL     1       4.265   8.869  24.004  0.00  0.00    -0.272 N 
HETATM   26  H   UNL     1       5.149   9.276  23.729  0.00  0.00     0.185 HD
ENDBRANCH  20  21
ENDBRANCH  19  20
ENDBRANCH  12  19
ENDBRANCH   1  11
BRANCH  10  27
HETATM   27  C   UNL     1       0.775   5.647  18.174  0.00  0.00     0.273 C 
HETATM   28  O   UNL     1       0.085   5.293  19.133  0.00  0.00    -0.266 OA
HETATM   29  N   UNL     1       0.633   4.998  16.944  0.00  0.00    -0.342 N 
HETATM   30  C   UNL     1       1.435   5.095  15.719  0.00  0.00     0.139 C 
HETATM   31  C   UNL     1      -0.345   3.926  16.835  0.00  0.00     0.161 C 
HETATM   32  C   UNL     1       0.515   4.576  14.616  0.00  0.00     0.056 C 
HETATM   33  C   UNL     1      -0.386   3.630  15.367  0.00  0.00    -0.056 C 
HETATM   34  C   UNL     1       1.128   3.933  13.402  0.00  0.00    -0.020 C 
HETATM   35  C   UNL     1      -1.035   2.630  14.746  0.00  0.00    -0.018 C 
HETATM   36  C   UNL     1      -0.824   2.363  13.276  0.00  0.00     0.054 C 
HETATM   37  C   UNL     1       0.479   2.936  12.765  0.00  0.00    -0.026 C 
ENDBRANCH  10  27
BRANCH   8  38
HETATM   38  N   UNL     1       1.505  10.235  17.441  0.00  0.00    -0.271 NA
HETATM   39  H   UNL     1       1.335  10.125  16.452  0.00  0.00     0.127 HD
HETATM   40  H   UNL     1       0.778  10.647  18.006  0.00  0.00     0.127 HD
ENDBRANCH   8  38
TORSDOF 6
ENDMDL
MODEL 9
REMARK VINA RESULT:    -9.030      4.237      8.287
REMARK INTER + INTRA:         -13.262
REMARK INTER:                 -10.851
REMARK INTRA:                  -2.411
REMARK UNBOUND:                -1.329
REMARK  6 active torsions:
REMARK  status: ('A' for Active; 'I' for Inactive)
REMARK    1  A    between atoms: C_6  and  C_7 
REMARK    2  A    between atoms: C_7  and  C_8 
REMARK    3  A    between atoms: C_8  and  C_9 
REMARK    4  A    between atoms: C_16  and  C_17 
REMARK    5  A    between atoms: C_24  and  N_25 
REMARK    6  A    between atoms: C_27  and  C_28 
REMARK       I    between atoms: C_28  and  N_30 
ROOT
HETATM    1  C   UNL     1       4.168   6.884  22.976  0.00  0.00    -0.024 A 
HETATM    2  C   UNL     1       3.086   7.329  23.775  0.00  0.00     0.028 A 
HETATM    3  C   UNL     1       5.296   6.473  23.689  0.00  0.00     0.014 A 
HETATM    4  C   UNL     1       5.334   6.495  25.090  0.00  0.00     0.033 A 
HETATM    5  C   UNL     1       4.229   6.829  25.855  0.00  0.00     0.073 A 
HETATM    6  C   UNL     1       3.062   7.234  25.210  0.00  0.00     0.028 A 
HETATM    7  N   UNL     1       4.339   6.687  27.179  0.00  0.00    -0.218 NA
HETATM    8  C   UNL     1       3.253   6.876  27.915  0.00  0.00     0.200 A 
HETATM    9  N   UNL     1       2.085   7.267  27.438  0.00  0.00    -0.212 NA
HETATM   10  C   UNL     1       1.987   7.455  26.103  0.00  0.00     0.140 A 
ENDROOT
BRANCH   1  11
HETATM   11  C   UNL     1       4.033   6.705  21.487  0.00  0.00    -0.017 A 
HETATM   12  C   UNL     1       3.975   5.458  20.785  0.00  0.00    -0.043 A 
HETATM   13  C   UNL     1       3.609   5.454  19.414  0.00  0.00     0.053 A 
HETATM   14  C   UNL     1       3.452   6.629  18.702  0.00  0.00     0.155 A 
HETATM   15  F   UNL     1       3.162   6.570  17.393  0.00  0.00    -0.203 F 
HETATM   16  C   UNL     1       3.598   7.840  19.336  0.00  0.00     0.155 A 
HETATM   17  F   UNL     1       3.461   8.984  18.657  0.00  0.00    -0.203 F 
HETATM   18  C   UNL     1       3.853   7.879  20.705  0.00  0.00     0.058 A 
BRANCH  12  19
HETATM   19  C   UNL     1       4.269   4.108  21.435  0.00  0.00     0.047 C 
BRANCH  19  20
HETATM   20  C   UNL     1       3.107   3.405  22.172  0.00  0.00     0.085 C 
BRANCH  20  21
HETATM   21  C   UNL     1       3.298   3.377  23.641  0.00  0.00     0.134 A 
HETATM   22  N   UNL     1       4.373   3.013  24.309  0.00  0.00    -0.148 NA
HETATM   23  N   UNL     1       4.058   3.145  25.639  0.00  0.00     0.017 NA
HETATM   24  N   UNL     1       2.819   3.593  25.793  0.00  0.00    -0.005 NA
HETATM   25  N   UNL     1       2.344   3.737  24.550  0.00  0.00    -0.272 N 
HETATM   26  H   UNL     1       1.395   4.062  24.417  0.00  0.00     0.185 HD
ENDBRANCH  20  21
ENDBRANCH  19  20
ENDBRANCH  12  19
ENDBRANCH   1  11
BRANCH  10  27
HETATM   27  C   UNL     1       0.578   7.743  25.623  0.00  0.00     0.273 C 
HETATM   28  O   UNL     1      -0.276   6.858  25.719  0.00  0.00    -0.266 OA
HETATM   29  N   UNL     1       0.216   9.001  25.130  0.00  0.00    -0.342 N 
HETATM   30  C   UNL     1       1.047  10.148  24.752  0.00  0.00     0.139 C 
HETATM   31  C   UNL     1      -1.173   9.226  24.759  0.00  0.00     0.161 C 
HETATM   32  C   UNL     1       0.095  11.342  24.793  0.00  0.00     0.056 C 
HETATM   33  C   UNL     1      -1.237  10.701  24.502  0.00  0.00    -0.056 C 
HETATM   34  C   UNL     1       0.367  12.519  23.896  0.00  0.00    -0.020 C 
HETATM   35  C   UNL     1      -2.266  11.406  24.003  0.00  0.00    -0.018 C 
HETATM   36  C   UNL     1      -2.104  12.860  23.634  0.00  0.00     0.054 C 
HETATM   37  C   UNL     1      -0.659  13.240  23.398  0.00  0.00    -0.026 C 
ENDBRANCH  10  27
BRANCH   8  38
HETATM   38  N   UNL     1       3.341   6.655  29.270  0.00  0.00    -0.271 NA
HETATM   39  H   UNL     1       3.363   7.526  29.780  0.00  0.00     0.127 HD
HETATM   40  H   UNL     1       2.692   5.944  29.570  0.00  0.00     0.127 HD
ENDBRANCH   8  38
TORSDOF 6
ENDMDL
