MODEL 1
REMARK VINA RESULT:    -6.213      0.000      0.000
REMARK INTER + INTRA:          -9.155
REMARK INTER:                  -8.149
REMARK INTRA:                  -1.006
REMARK UNBOUND:                -1.125
REMARK  5 active torsions:
REMARK  status: ('A' for Active; 'I' for Inactive)
REMARK    1  A    between atoms: N8_1  and  C24_2 
REMARK    2  A    between atoms: N8_1  and  C7_8 
REMARK    3  A    between atoms: C2_13  and  N1_14 
REMARK    4  A    between atoms: N1_14  and  C17_15 
REMARK    5  A    between atoms: C14_16  and  C13_19 
ROOT
ATOM      1  C17 FTA A   1       4.984  13.026   9.157  1.00  0.00     0.142 C 
ATOM      2  C14 FTA A   1       5.126  11.830   8.551  1.00  0.00     0.158 C 
ATOM      3  C18 FTA A   1       4.414  11.549   7.322  1.00  0.00     0.069 C 
ATOM      4  N21 FTA A   1       3.737  11.441   6.371  1.00  0.00    -0.197 NA
ENDROOT
BRANCH   2   5
ATOM      5  C13 FTA A   1       6.026  10.815   9.143  1.00  0.00     0.197 A 
ATOM      6  N15 FTA A   1       5.981   9.442   8.914  1.00  0.00    -0.093 NA
ATOM      7  N19 FTA A   1       6.967   8.855   9.697  1.00  0.00    -0.231 N 
ATOM      8  N20 FTA A   1       7.625   9.842  10.416  1.00  0.00    -0.017 NA
ATOM      9  H15 FTA A   1       7.175   7.847   9.739  1.00  0.00     0.200 HD
ATOM     10  N16 FTA A   1       7.051  11.060  10.065  1.00  0.00    -0.090 NA
ENDBRANCH   2   5
BRANCH   1  11
ATOM     11  N1  FTA A   1       4.640  13.059  10.459  1.00  0.00    -0.389 N 
ATOM     12  H11 FTA A   1       3.959  12.360  10.789  1.00  0.00     0.159 HD
BRANCH  11  13
ATOM     13  C2  FTA A   1       5.146  13.985  11.412  1.00  0.00     0.028 A 
ATOM     14  C4  FTA A   1       4.697  15.301  11.477  1.00  0.00     0.031 A 
ATOM     15  C6  FTA A   1       5.393  16.218  12.276  1.00  0.00     0.031 A 
ATOM     16  C7  FTA A   1       6.522  15.856  13.007  1.00  0.00     0.032 A 
ATOM     17  C5  FTA A   1       6.940  14.538  12.952  1.00  0.00     0.031 A 
ATOM     18  C3  FTA A   1       6.272  13.617  12.155  1.00  0.00     0.031 A 
BRANCH  16  19
ATOM     19  N8  FTA A   1       7.359  16.803  13.650  1.00  0.00    -0.356 N 
ATOM     20  H1  FTA A   1       7.974  17.373  13.052  1.00  0.00     0.166 HD
BRANCH  19  21
ATOM     21  C24 FTA A   1       7.418  17.032  15.058  1.00  0.00     0.032 A 
ATOM     22  C26 FTA A   1       6.334  16.802  15.872  1.00  0.00     0.029 A 
ATOM     23  C28 FTA A   1       6.400  17.205  17.192  1.00  0.00     0.002 A 
ATOM     24  C30 FTA A   1       7.527  17.802  17.732  1.00  0.00     0.000 A 
ATOM     25  C29 FTA A   1       8.627  18.001  16.941  1.00  0.00     0.002 A 
ATOM     26  C27 FTA A   1       8.562  17.598  15.603  1.00  0.00     0.029 A 
ENDBRANCH  19  21
ENDBRANCH  16  19
ENDBRANCH  11  13
ENDBRANCH   1  11
TORSDOF 5
ENDMDL
MODEL 2
REMARK VINA RESULT:    -6.087      3.381      4.730
REMARK INTER + INTRA:          -8.992
REMARK INTER:                  -7.910
REMARK INTRA:                  -1.083
REMARK UNBOUND:                -1.125
REMARK  5 active torsions:
REMARK  status: ('A' for Active; 'I' for Inactive)
REMARK    1  A    between atoms: N8_1  and  C24_2 
REMARK    2  A    between atoms: N8_1  and  C7_8 
REMARK    3  A    between atoms: C2_13  and  N1_14 
REMARK    4  A    between atoms: N1_14  and  C17_15 
REMARK    5  A    between atoms: C14_16  and  C13_19 
ROOT
ATOM      1  C17 FTA A   1       8.464  11.685  11.696  1.00  0.00     0.142 C 
ATOM      2  C14 FTA A   1       8.552  11.698  10.351  1.00  0.00     0.158 C 
ATOM      3  C18 FTA A   1       9.518  12.551   9.694  1.00  0.00     0.069 C 
ATOM      4  N21 FTA A   1      10.302  13.330   9.299  1.00  0.00    -0.197 NA
ENDROOT
BRANCH   2   5
ATOM      5  C13 FTA A   1       7.665  10.820   9.554  1.00  0.00     0.197 A 
ATOM      6  N15 FTA A   1       7.296  11.012   8.225  1.00  0.00    -0.093 NA
ATOM      7  N19 FTA A   1       6.422   9.989   7.882  1.00  0.00    -0.231 N 
ATOM      8  N20 FTA A   1       6.236   9.161   8.979  1.00  0.00    -0.017 NA
ATOM      9  H15 FTA A   1       5.980   9.865   6.959  1.00  0.00     0.200 HD
ATOM     10  N16 FTA A   1       7.015   9.668  10.015  1.00  0.00    -0.090 NA
ENDBRANCH   2   5
BRANCH   1  11
ATOM     11  N1  FTA A   1       7.263  11.889  12.271  1.00  0.00    -0.389 N 
ATOM     12  H11 FTA A   1       6.992  11.262  13.042  1.00  0.00     0.159 HD
BRANCH  11  13
ATOM     13  C2  FTA A   1       6.341  12.904  11.896  1.00  0.00     0.028 A 
ATOM     14  C4  FTA A   1       6.560  14.249  12.186  1.00  0.00     0.031 A 
ATOM     15  C6  FTA A   1       5.515  15.164  11.997  1.00  0.00     0.031 A 
ATOM     16  C7  FTA A   1       4.263  14.772  11.531  1.00  0.00     0.032 A 
ATOM     17  C5  FTA A   1       4.069  13.437  11.224  1.00  0.00     0.031 A 
ATOM     18  C3  FTA A   1       5.088  12.512  11.417  1.00  0.00     0.031 A 
BRANCH  16  19
ATOM     19  N8  FTA A   1       3.137  15.635  11.532  1.00  0.00    -0.356 N 
ATOM     20  H1  FTA A   1       2.965  16.187  10.679  1.00  0.00     0.166 HD
BRANCH  19  21
ATOM     21  C24 FTA A   1       2.224  15.801  12.616  1.00  0.00     0.032 A 
ATOM     22  C26 FTA A   1       2.474  16.683  13.641  1.00  0.00     0.029 A 
ATOM     23  C28 FTA A   1       1.640  16.672  14.743  1.00  0.00     0.002 A 
ATOM     24  C30 FTA A   1       0.546  15.828  14.838  1.00  0.00     0.000 A 
ATOM     25  C29 FTA A   1       0.264  14.971  13.808  1.00  0.00     0.002 A 
ATOM     26  C27 FTA A   1       1.109  14.978  12.692  1.00  0.00     0.029 A 
ENDBRANCH  19  21
ENDBRANCH  16  19
ENDBRANCH  11  13
ENDBRANCH   1  11
TORSDOF 5
ENDMDL
MODEL 3
REMARK VINA RESULT:    -6.050      1.296      1.967
REMARK INTER + INTRA:          -8.944
REMARK INTER:                  -7.968
REMARK INTRA:                  -0.976
REMARK UNBOUND:                -1.125
REMARK  5 active torsions:
REMARK  status: ('A' for Active; 'I' for Inactive)
REMARK    1  A    between atoms: N8_1  and  C24_2 
REMARK    2  A    between atoms: N8_1  and  C7_8 
REMARK    3  A    between atoms: C2_13  and  N1_14 
REMARK    4  A    between atoms: N1_14  and  C17_15 
REMARK    5  A    between atoms: C14_16  and  C13_19 
ROOT
ATOM      1  C17 FTA A   1       5.504  13.169   9.549  1.00  0.00     0.142 C 
ATOM      2  C14 FTA A   1       5.531  11.932   9.015  1.00  0.00     0.158 C 
ATOM      3  C18 FTA A   1       4.734  11.628   7.846  1.00  0.00     0.069 C 
ATOM      4  N21 FTA A   1       3.998  11.510   6.941  1.00  0.00    -0.197 NA
ENDROOT
BRANCH   2   5
ATOM      5  C13 FTA A   1       6.393  10.894   9.624  1.00  0.00     0.197 A 
ATOM      6  N15 FTA A   1       6.541   9.583   9.178  1.00  0.00    -0.093 NA
ATOM      7  N19 FTA A   1       7.402   8.938  10.056  1.00  0.00    -0.231 N 
ATOM      8  N20 FTA A   1       7.794   9.827  11.046  1.00  0.00    -0.017 NA
ATOM      9  H15 FTA A   1       7.703   7.955   9.984  1.00  0.00     0.200 HD
ATOM     10  N16 FTA A   1       7.178  11.045  10.774  1.00  0.00    -0.090 NA
ENDBRANCH   2   5
BRANCH   1  11
ATOM     11  N1  FTA A   1       5.237  13.306  10.863  1.00  0.00    -0.389 N 
ATOM     12  H11 FTA A   1       4.820  12.499  11.350  1.00  0.00     0.159 HD
BRANCH  11  13
ATOM     13  C2  FTA A   1       5.488  14.477  11.628  1.00  0.00     0.028 A 
ATOM     14  C4  FTA A   1       6.588  14.588  12.474  1.00  0.00     0.031 A 
ATOM     15  C6  FTA A   1       6.653  15.665  13.368  1.00  0.00     0.031 A 
ATOM     16  C7  FTA A   1       5.650  16.629  13.440  1.00  0.00     0.032 A 
ATOM     17  C5  FTA A   1       4.576  16.518  12.575  1.00  0.00     0.031 A 
ATOM     18  C3  FTA A   1       4.486  15.450  11.691  1.00  0.00     0.031 A 
BRANCH  16  19
ATOM     19  N8  FTA A   1       5.590  17.602  14.470  1.00  0.00    -0.356 N 
ATOM     20  H1  FTA A   1       5.930  18.548  14.246  1.00  0.00     0.166 HD
BRANCH  19  21
ATOM     21  C24 FTA A   1       5.096  17.378  15.790  1.00  0.00     0.032 A 
ATOM     22  C26 FTA A   1       3.748  17.332  16.057  1.00  0.00     0.029 A 
ATOM     23  C28 FTA A   1       3.335  17.286  17.376  1.00  0.00     0.002 A 
ATOM     24  C30 FTA A   1       4.229  17.253  18.433  1.00  0.00     0.000 A 
ATOM     25  C29 FTA A   1       5.574  17.259  18.179  1.00  0.00     0.002 A 
ATOM     26  C27 FTA A   1       5.995  17.310  16.845  1.00  0.00     0.029 A 
ENDBRANCH  19  21
ENDBRANCH  16  19
ENDBRANCH  11  13
ENDBRANCH   1  11
TORSDOF 5
ENDMDL
MODEL 4
REMARK VINA RESULT:    -5.958      3.682      4.839
REMARK INTER + INTRA:          -8.825
REMARK INTER:                  -7.756
REMARK INTRA:                  -1.070
REMARK UNBOUND:                -1.125
REMARK  5 active torsions:
REMARK  status: ('A' for Active; 'I' for Inactive)
REMARK    1  A    between atoms: N8_1  and  C24_2 
REMARK    2  A    between atoms: N8_1  and  C7_8 
REMARK    3  A    between atoms: C2_13  and  N1_14 
REMARK    4  A    between atoms: N1_14  and  C17_15 
REMARK    5  A    between atoms: C14_16  and  C13_19 
ROOT
ATOM      1  C17 FTA A   1       6.394  13.189   8.729  1.00  0.00     0.142 C 
ATOM      2  C14 FTA A   1       5.983  11.909   8.626  1.00  0.00     0.158 C 
ATOM      3  C18 FTA A   1       4.909  11.560   7.721  1.00  0.00     0.069 C 
ATOM      4  N21 FTA A   1       3.998  11.435   6.994  1.00  0.00    -0.197 NA
ENDROOT
BRANCH   2   5
ATOM      5  C13 FTA A   1       6.648  10.863   9.436  1.00  0.00     0.197 A 
ATOM      6  N15 FTA A   1       6.723   9.507   9.127  1.00  0.00    -0.093 NA
ATOM      7  N19 FTA A   1       7.390   8.877  10.169  1.00  0.00    -0.231 N 
ATOM      8  N20 FTA A   1       7.732   9.820  11.127  1.00  0.00    -0.017 NA
ATOM      9  H15 FTA A   1       7.599   7.869  10.223  1.00  0.00     0.200 HD
ATOM     10  N16 FTA A   1       7.282  11.054  10.670  1.00  0.00    -0.090 NA
ENDBRANCH   2   5
BRANCH   1  11
ATOM     11  N1  FTA A   1       6.451  13.759   9.948  1.00  0.00    -0.389 N 
ATOM     12  H11 FTA A   1       7.372  13.810  10.407  1.00  0.00     0.159 HD
BRANCH  11  13
ATOM     13  C2  FTA A   1       5.337  14.296  10.649  1.00  0.00     0.028 A 
ATOM     14  C4  FTA A   1       4.352  13.486  11.208  1.00  0.00     0.031 A 
ATOM     15  C6  FTA A   1       3.172  14.077  11.679  1.00  0.00     0.031 A 
ATOM     16  C7  FTA A   1       2.951  15.450  11.605  1.00  0.00     0.032 A 
ATOM     17  C5  FTA A   1       3.950  16.244  11.071  1.00  0.00     0.031 A 
ATOM     18  C3  FTA A   1       5.122  15.676  10.585  1.00  0.00     0.031 A 
BRANCH  16  19
ATOM     19  N8  FTA A   1       1.693  16.043  11.880  1.00  0.00    -0.356 N 
ATOM     20  H1  FTA A   1       1.419  16.857  11.310  1.00  0.00     0.166 HD
BRANCH  19  21
ATOM     21  C24 FTA A   1       0.773  15.606  12.881  1.00  0.00     0.032 A 
ATOM     22  C26 FTA A   1       1.021  15.797  14.220  1.00  0.00     0.029 A 
ATOM     23  C28 FTA A   1       0.181  15.200  15.140  1.00  0.00     0.002 A 
ATOM     24  C30 FTA A   1      -0.917  14.444  14.764  1.00  0.00     0.000 A 
ATOM     25  C29 FTA A   1      -1.196  14.278  13.434  1.00  0.00     0.002 A 
ATOM     26  C27 FTA A   1      -0.345  14.879  12.499  1.00  0.00     0.029 A 
ENDBRANCH  19  21
ENDBRANCH  16  19
ENDBRANCH  11  13
ENDBRANCH   1  11
TORSDOF 5
ENDMDL
MODEL 5
REMARK VINA RESULT:    -5.761      3.533      5.455
REMARK INTER + INTRA:          -8.570
REMARK INTER:                  -7.537
REMARK INTRA:                  -1.033
REMARK UNBOUND:                -1.125
REMARK  5 active torsions:
REMARK  status: ('A' for Active; 'I' for Inactive)
REMARK    1  A    between atoms: N8_1  and  C24_2 
REMARK    2  A    between atoms: N8_1  and  C7_8 
REMARK    3  A    between atoms: C2_13  and  N1_14 
REMARK    4  A    between atoms: N1_14  and  C17_15 
REMARK    5  A    between atoms: C14_16  and  C13_19 
ROOT
ATOM      1  C17 FTA A   1       7.837  13.148  11.100  1.00  0.00     0.142 C 
ATOM      2  C14 FTA A   1       8.413  12.089  10.496  1.00  0.00     0.158 C 
ATOM      3  C18 FTA A   1       9.849  12.039  10.329  1.00  0.00     0.069 C 
ATOM      4  N21 FTA A   1      11.009  12.161  10.211  1.00  0.00    -0.197 NA
ENDROOT
BRANCH   2   5
ATOM      5  C13 FTA A   1       7.564  10.972  10.022  1.00  0.00     0.197 A 
ATOM      6  N15 FTA A   1       7.792   9.615  10.243  1.00  0.00    -0.093 NA
ATOM      7  N19 FTA A   1       6.788   8.912   9.591  1.00  0.00    -0.231 N 
ATOM      8  N20 FTA A   1       5.937   9.809   8.962  1.00  0.00    -0.017 NA
ATOM      9  H15 FTA A   1       6.691   7.886   9.575  1.00  0.00     0.200 HD
ATOM     10  N16 FTA A   1       6.411  11.088   9.237  1.00  0.00    -0.090 NA
ENDBRANCH   2   5
BRANCH   1  11
ATOM     11  N1  FTA A   1       6.836  13.793  10.469  1.00  0.00    -0.389 N 
ATOM     12  H11 FTA A   1       6.959  13.996   9.467  1.00  0.00     0.159 HD
BRANCH  11  13
ATOM     13  C2  FTA A   1       5.624  14.212  11.082  1.00  0.00     0.028 A 
ATOM     14  C4  FTA A   1       4.503  13.389  11.146  1.00  0.00     0.031 A 
ATOM     15  C6  FTA A   1       3.278  13.938  11.551  1.00  0.00     0.031 A 
ATOM     16  C7  FTA A   1       3.146  15.283  11.889  1.00  0.00     0.032 A 
ATOM     17  C5  FTA A   1       4.275  16.081  11.844  1.00  0.00     0.031 A 
ATOM     18  C3  FTA A   1       5.495  15.559  11.432  1.00  0.00     0.031 A 
BRANCH  16  19
ATOM     19  N8  FTA A   1       1.888  15.904  12.097  1.00  0.00    -0.356 N 
ATOM     20  H1  FTA A   1       1.742  16.830  11.670  1.00  0.00     0.166 HD
BRANCH  19  21
ATOM     21  C24 FTA A   1       0.808  15.351  12.850  1.00  0.00     0.032 A 
ATOM     22  C26 FTA A   1      -0.351  14.928  12.243  1.00  0.00     0.029 A 
ATOM     23  C28 FTA A   1      -1.421  14.566  13.038  1.00  0.00     0.002 A 
ATOM     24  C30 FTA A   1      -1.358  14.583  14.421  1.00  0.00     0.000 A 
ATOM     25  C29 FTA A   1      -0.197  14.966  15.038  1.00  0.00     0.002 A 
ATOM     26  C27 FTA A   1       0.887  15.337  14.235  1.00  0.00     0.029 A 
ENDBRANCH  19  21
ENDBRANCH  16  19
ENDBRANCH  11  13
ENDBRANCH   1  11
TORSDOF 5
ENDMDL
MODEL 6
REMARK VINA RESULT:    -5.669      3.742      7.538
REMARK INTER + INTRA:          -8.451
REMARK INTER:                  -7.344
REMARK INTRA:                  -1.108
REMARK UNBOUND:                -1.125
REMARK  5 active torsions:
REMARK  status: ('A' for Active; 'I' for Inactive)
REMARK    1  A    between atoms: N8_1  and  C24_2 
REMARK    2  A    between atoms: N8_1  and  C7_8 
REMARK    3  A    between atoms: C2_13  and  N1_14 
REMARK    4  A    between atoms: N1_14  and  C17_15 
REMARK    5  A    between atoms: C14_16  and  C13_19 
ROOT
ATOM      1  C17 FTA A   1       2.516  16.736  12.299  1.00  0.00     0.142 C 
ATOM      2  C14 FTA A   1       2.214  16.493  13.590  1.00  0.00     0.158 C 
ATOM      3  C18 FTA A   1       3.005  17.088  14.646  1.00  0.00     0.069 C 
ATOM      4  N21 FTA A   1       3.762  17.587  15.389  1.00  0.00    -0.197 NA
ENDROOT
BRANCH   2   5
ATOM      5  C13 FTA A   1       1.059  15.626  13.917  1.00  0.00     0.197 A 
ATOM      6  N15 FTA A   1       0.675  15.215  15.192  1.00  0.00    -0.093 NA
ATOM      7  N19 FTA A   1      -0.425  14.379  15.047  1.00  0.00    -0.231 N 
ATOM      8  N20 FTA A   1      -0.732  14.260  13.699  1.00  0.00    -0.017 NA
ATOM      9  H15 FTA A   1      -0.932  13.921  15.818  1.00  0.00     0.200 HD
ATOM     10  N16 FTA A   1       0.181  15.042  12.998  1.00  0.00    -0.090 NA
ENDBRANCH   2   5
BRANCH   1  11
ATOM     11  N1  FTA A   1       2.691  15.693  11.464  1.00  0.00    -0.389 N 
ATOM     12  H11 FTA A   1       1.941  15.496  10.786  1.00  0.00     0.159 HD
BRANCH  11  13
ATOM     13  C2  FTA A   1       3.831  14.845  11.447  1.00  0.00     0.028 A 
ATOM     14  C4  FTA A   1       3.726  13.465  11.287  1.00  0.00     0.031 A 
ATOM     15  C6  FTA A   1       4.857  12.667  11.510  1.00  0.00     0.031 A 
ATOM     16  C7  FTA A   1       6.082  13.209  11.888  1.00  0.00     0.032 A 
ATOM     17  C5  FTA A   1       6.177  14.583  12.018  1.00  0.00     0.031 A 
ATOM     18  C3  FTA A   1       5.064  15.390  11.815  1.00  0.00     0.031 A 
BRANCH  16  19
ATOM     19  N8  FTA A   1       7.175  12.413  12.319  1.00  0.00    -0.356 N 
ATOM     20  H1  FTA A   1       7.279  12.264  13.333  1.00  0.00     0.166 HD
BRANCH  19  21
ATOM     21  C24 FTA A   1       8.142  11.803  11.464  1.00  0.00     0.032 A 
ATOM     22  C26 FTA A   1       9.307  12.446  11.120  1.00  0.00     0.029 A 
ATOM     23  C28 FTA A   1      10.117  11.877  10.156  1.00  0.00     0.002 A 
ATOM     24  C30 FTA A   1       9.814  10.671   9.548  1.00  0.00     0.000 A 
ATOM     25  C29 FTA A   1       8.675  10.002   9.909  1.00  0.00     0.002 A 
ATOM     26  C27 FTA A   1       7.851  10.577  10.883  1.00  0.00     0.029 A 
ENDBRANCH  19  21
ENDBRANCH  16  19
ENDBRANCH  11  13
ENDBRANCH   1  11
TORSDOF 5
ENDMDL
MODEL 7
REMARK VINA RESULT:    -5.571      3.182      8.006
REMARK INTER + INTRA:          -8.324
REMARK INTER:                  -7.199
REMARK INTRA:                  -1.125
REMARK UNBOUND:                -1.125
REMARK  5 active torsions:
REMARK  status: ('A' for Active; 'I' for Inactive)
REMARK    1  A    between atoms: N8_1  and  C24_2 
REMARK    2  A    between atoms: N8_1  and  C7_8 
REMARK    3  A    between atoms: C2_13  and  N1_14 
REMARK    4  A    between atoms: N1_14  and  C17_15 
REMARK    5  A    between atoms: C14_16  and  C13_19 
ROOT
ATOM      1  C17 FTA A   1       4.077  13.996  11.112  1.00  0.00     0.142 C 
ATOM      2  C14 FTA A   1       4.770  15.141  10.955  1.00  0.00     0.158 C 
ATOM      3  C18 FTA A   1       4.793  15.808   9.671  1.00  0.00     0.069 C 
ATOM      4  N21 FTA A   1       4.769  16.205   8.568  1.00  0.00    -0.197 NA
ENDROOT
BRANCH   2   5
ATOM      5  C13 FTA A   1       5.495  15.717  12.111  1.00  0.00     0.197 A 
ATOM      6  N15 FTA A   1       6.778  15.373  12.532  1.00  0.00    -0.093 NA
ATOM      7  N19 FTA A   1       7.055  16.113  13.674  1.00  0.00    -0.231 N 
ATOM      8  N20 FTA A   1       5.963  16.914  13.974  1.00  0.00    -0.017 NA
ATOM      9  H15 FTA A   1       7.933  16.074  14.213  1.00  0.00     0.200 HD
ATOM     10  N16 FTA A   1       4.998  16.678  13.000  1.00  0.00    -0.090 NA
ENDBRANCH   2   5
BRANCH   1  11
ATOM     11  N1  FTA A   1       4.703  12.920  11.626  1.00  0.00    -0.389 N 
ATOM     12  H11 FTA A   1       4.431  12.618  12.572  1.00  0.00     0.159 HD
BRANCH  11  13
ATOM     13  C2  FTA A   1       5.712  12.169  10.962  1.00  0.00     0.028 A 
ATOM     14  C4  FTA A   1       5.474  11.511   9.758  1.00  0.00     0.031 A 
ATOM     15  C6  FTA A   1       6.430  10.606   9.278  1.00  0.00     0.031 A 
ATOM     16  C7  FTA A   1       7.611  10.342   9.967  1.00  0.00     0.032 A 
ATOM     17  C5  FTA A   1       7.844  11.023  11.148  1.00  0.00     0.031 A 
ATOM     18  C3  FTA A   1       6.902  11.914  11.648  1.00  0.00     0.031 A 
BRANCH  16  19
ATOM     19  N8  FTA A   1       8.489   9.286   9.612  1.00  0.00    -0.356 N 
ATOM     20  H1  FTA A   1       8.410   8.408  10.145  1.00  0.00     0.166 HD
BRANCH  19  21
ATOM     21  C24 FTA A   1       9.472   9.340   8.579  1.00  0.00     0.032 A 
ATOM     22  C26 FTA A   1      10.670   9.992   8.756  1.00  0.00     0.029 A 
ATOM     23  C28 FTA A   1      11.502  10.156   7.666  1.00  0.00     0.002 A 
ATOM     24  C30 FTA A   1      11.189   9.662   6.411  1.00  0.00     0.000 A 
ATOM     25  C29 FTA A   1      10.017   8.977   6.230  1.00  0.00     0.002 A 
ATOM     26  C27 FTA A   1       9.170   8.813   7.331  1.00  0.00     0.029 A 
ENDBRANCH  19  21
ENDBRANCH  16  19
ENDBRANCH  11  13
ENDBRANCH   1  11
TORSDOF 5
ENDMDL
MODEL 8
REMARK VINA RESULT:    -5.559      2.088      3.052
REMARK INTER + INTRA:          -8.310
REMARK INTER:                  -7.208
REMARK INTRA:                  -1.102
REMARK UNBOUND:                -1.125
REMARK  5 active torsions:
REMARK  status: ('A' for Active; 'I' for Inactive)
REMARK    1  A    between atoms: N8_1  and  C24_2 
REMARK    2  A    between atoms: N8_1  and  C7_8 
REMARK    3  A    between atoms: C2_13  and  N1_14 
REMARK    4  A    between atoms: N1_14  and  C17_15 
REMARK    5  A    between atoms: C14_16  and  C13_19 
ROOT
ATOM      1  C17 FTA A   1       9.343  12.349  10.389  1.00  0.00     0.142 C 
ATOM      2  C14 FTA A   1       9.295  11.174   9.730  1.00  0.00     0.158 C 
ATOM      3  C18 FTA A   1      10.518  10.508   9.339  1.00  0.00     0.069 C 
ATOM      4  N21 FTA A   1      11.581  10.115   9.036  1.00  0.00    -0.197 NA
ENDROOT
BRANCH   2   5
ATOM      5  C13 FTA A   1       7.980  10.564   9.425  1.00  0.00     0.197 A 
ATOM      6  N15 FTA A   1       7.525   9.325   9.871  1.00  0.00    -0.093 NA
ATOM      7  N19 FTA A   1       6.267   9.119   9.319  1.00  0.00    -0.231 N 
ATOM      8  N20 FTA A   1       5.931  10.210   8.532  1.00  0.00    -0.017 NA
ATOM      9  H15 FTA A   1       5.678   8.287   9.470  1.00  0.00     0.200 HD
ATOM     10  N16 FTA A   1       6.987  11.113   8.605  1.00  0.00    -0.090 NA
ENDBRANCH   2   5
BRANCH   1  11
ATOM     11  N1  FTA A   1       8.644  13.395   9.908  1.00  0.00    -0.389 N 
ATOM     12  H11 FTA A   1       8.737  13.608   8.904  1.00  0.00     0.159 HD
BRANCH  11  13
ATOM     13  C2  FTA A   1       7.788  14.227  10.679  1.00  0.00     0.028 A 
ATOM     14  C4  FTA A   1       7.704  15.601  10.470  1.00  0.00     0.031 A 
ATOM     15  C6  FTA A   1       7.024  16.391  11.407  1.00  0.00     0.031 A 
ATOM     16  C7  FTA A   1       6.429  15.846  12.542  1.00  0.00     0.032 A 
ATOM     17  C5  FTA A   1       6.500  14.476  12.722  1.00  0.00     0.031 A 
ATOM     18  C3  FTA A   1       7.181  13.677  11.812  1.00  0.00     0.031 A 
BRANCH  16  19
ATOM     19  N8  FTA A   1       5.922  16.641  13.602  1.00  0.00    -0.356 N 
ATOM     20  H1  FTA A   1       5.011  17.100  13.454  1.00  0.00     0.166 HD
BRANCH  19  21
ATOM     21  C24 FTA A   1       6.569  16.857  14.856  1.00  0.00     0.032 A 
ATOM     22  C26 FTA A   1       5.880  16.786  16.044  1.00  0.00     0.029 A 
ATOM     23  C28 FTA A   1       6.520  17.174  17.205  1.00  0.00     0.002 A 
ATOM     24  C30 FTA A   1       7.837  17.601  17.220  1.00  0.00     0.000 A 
ATOM     25  C29 FTA A   1       8.546  17.639  16.049  1.00  0.00     0.002 A 
ATOM     26  C27 FTA A   1       7.899  17.251  14.871  1.00  0.00     0.029 A 
ENDBRANCH  19  21
ENDBRANCH  16  19
ENDBRANCH  11  13
ENDBRANCH   1  11
TORSDOF 5
ENDMDL
