MODEL 1
REMARK VINA RESULT:    -8.040      0.000      0.000
REMARK INTER + INTRA:         -11.630
REMARK INTER:                 -10.424
REMARK INTRA:                  -1.207
REMARK UNBOUND:                -1.006
REMARK  6 active torsions:
REMARK  status: ('A' for Active; 'I' for Inactive)
REMARK       I    between atoms: C_2  and  N_3 
REMARK    1  A    between atoms: C_2  and  C_17 
REMARK    2  A    between atoms: N_3  and  C_5 
REMARK    3  A    between atoms: C_8  and  N_9 
REMARK    4  A    between atoms: C_18  and  O_19 
REMARK    5  A    between atoms: C_25  and  C_26 
REMARK    6  A    between atoms: C_26  and  C_27 
ROOT
HETATM    1  C   UNL     1       4.505   7.319  22.645  0.00  0.00     0.066 A 
HETATM    2  C   UNL     1       5.627   6.486  22.457  0.00  0.00     0.083 A 
HETATM    3  C   UNL     1       6.100   6.136  21.186  0.00  0.00     0.069 A 
HETATM    4  C   UNL     1       5.408   6.658  20.091  0.00  0.00     0.065 A 
HETATM    5  N   UNL     1       5.563   6.489  18.741  0.00  0.00    -0.277 N 
HETATM    6  H   UNL     1       6.246   5.907  18.269  0.00  0.00     0.189 HD
HETATM    7  N   UNL     1       4.651   7.141  17.995  0.00  0.00    -0.178 NA
HETATM    8  C   UNL     1       3.863   7.744  18.895  0.00  0.00     0.067 A 
HETATM    9  C   UNL     1       4.284   7.460  20.226  0.00  0.00     0.019 A 
HETATM   10  C   UNL     1       3.793   7.745  21.515  0.00  0.00     0.035 A 
ENDROOT
BRANCH   1  11
HETATM   11  C   UNL     1       4.024   7.605  24.034  0.00  0.00     0.260 C 
HETATM   12  O   UNL     1       4.257   8.761  24.391  0.00  0.00    -0.267 OA
HETATM   13  N   UNL     1       3.383   6.630  24.835  0.00  0.00    -0.318 N 
HETATM   14  C   UNL     1       2.910   5.348  24.295  0.00  0.00     0.159 C 
BRANCH  13  15
HETATM   15  C   UNL     1       3.084   6.861  26.241  0.00  0.00     0.037 A 
HETATM   16  C   UNL     1       1.829   7.258  26.719  0.00  0.00     0.032 A 
HETATM   17  C   UNL     1       1.582   7.468  28.094  0.00  0.00     0.031 A 
HETATM   18  C   UNL     1       2.581   7.303  29.055  0.00  0.00     0.030 A 
HETATM   19  C   UNL     1       3.829   6.890  28.577  0.00  0.00     0.031 A 
HETATM   20  C   UNL     1       4.078   6.679  27.213  0.00  0.00     0.032 A 
BRANCH  18  21
HETATM   21  N   UNL     1       2.383   7.458  30.416  0.00  0.00    -0.377 N 
HETATM   22  C   UNL     1       2.275   8.782  31.052  0.00  0.00     0.149 C 
HETATM   23  C   UNL     1       1.464   8.632  32.356  0.00  0.00     0.187 C 
HETATM   24  O   UNL     1       2.042   7.658  33.245  0.00  0.00    -0.388 OA
HETATM   25  C   UNL     1       2.129   6.377  32.595  0.00  0.00     0.187 C 
HETATM   26  C   UNL     1       2.985   6.457  31.323  0.00  0.00     0.149 C 
ENDBRANCH  18  21
ENDBRANCH  13  15
ENDBRANCH   1  11
BRANCH   2  27
HETATM   27  O   UNL     1       6.316   5.923  23.506  0.00  0.00    -0.360 OA
HETATM   28  H   UNL     1       7.222   6.311  23.501  0.00  0.00     0.217 HD
ENDBRANCH   2  27
BRANCH   8  29
HETATM   29  C   UNL     1       2.595   8.423  18.494  0.00  0.00     0.066 C 
BRANCH  29  30
HETATM   30  C   UNL     1       1.460   7.626  17.818  0.00  0.00    -0.009 C 
HETATM   31  C   UNL     1       1.539   7.449  16.285  0.00  0.00     0.005 C 
HETATM   32  C   UNL     1       1.775   6.037  15.736  0.00  0.00     0.000 C 
HETATM   33  C   UNL     1       1.178   4.928  16.589  0.00  0.00     0.000 C 
HETATM   34  C   UNL     1       1.632   5.082  18.028  0.00  0.00     0.000 C 
HETATM   35  C   UNL     1       1.063   6.368  18.600  0.00  0.00     0.005 C 
ENDBRANCH  29  30
ENDBRANCH   8  29
TORSDOF 6
ENDMDL
MODEL 2
REMARK VINA RESULT:    -8.010      0.600      1.026
REMARK INTER + INTRA:         -11.591
REMARK INTER:                 -10.340
REMARK INTRA:                  -1.251
REMARK UNBOUND:                -1.006
REMARK  6 active torsions:
REMARK  status: ('A' for Active; 'I' for Inactive)
REMARK       I    between atoms: C_2  and  N_3 
REMARK    1  A    between atoms: C_2  and  C_17 
REMARK    2  A    between atoms: N_3  and  C_5 
REMARK    3  A    between atoms: C_8  and  N_9 
REMARK    4  A    between atoms: C_18  and  O_19 
REMARK    5  A    between atoms: C_25  and  C_26 
REMARK    6  A    between atoms: C_26  and  C_27 
ROOT
HETATM    1  C   UNL     1       4.407   7.088  22.215  0.00  0.00     0.066 A 
HETATM    2  C   UNL     1       5.572   6.341  21.946  0.00  0.00     0.083 A 
HETATM    3  C   UNL     1       5.959   5.992  20.646  0.00  0.00     0.069 A 
HETATM    4  C   UNL     1       5.135   6.427  19.606  0.00  0.00     0.065 A 
HETATM    5  N   UNL     1       5.186   6.233  18.252  0.00  0.00    -0.277 N 
HETATM    6  H   UNL     1       5.869   5.692  17.733  0.00  0.00     0.189 HD
HETATM    7  N   UNL     1       4.162   6.790  17.575  0.00  0.00    -0.178 NA
HETATM    8  C   UNL     1       3.409   7.355  18.529  0.00  0.00     0.067 A 
HETATM    9  C   UNL     1       3.966   7.142  19.822  0.00  0.00     0.019 A 
HETATM   10  C   UNL     1       3.567   7.424  21.144  0.00  0.00     0.035 A 
ENDROOT
BRANCH   1  11
HETATM   11  C   UNL     1       4.026   7.375  23.635  0.00  0.00     0.260 C 
HETATM   12  O   UNL     1       4.263   8.538  23.966  0.00  0.00    -0.267 OA
HETATM   13  N   UNL     1       3.467   6.393  24.487  0.00  0.00    -0.318 N 
HETATM   14  C   UNL     1       2.980   5.099  23.993  0.00  0.00     0.159 C 
BRANCH  13  15
HETATM   15  C   UNL     1       3.271   6.629  25.911  0.00  0.00     0.037 A 
HETATM   16  C   UNL     1       4.297   6.572  26.862  0.00  0.00     0.032 A 
HETATM   17  C   UNL     1       4.061   6.812  28.234  0.00  0.00     0.031 A 
HETATM   18  C   UNL     1       2.788   7.108  28.722  0.00  0.00     0.030 A 
HETATM   19  C   UNL     1       1.768   7.181  27.769  0.00  0.00     0.031 A 
HETATM   20  C   UNL     1       1.997   6.945  26.405  0.00  0.00     0.032 A 
BRANCH  18  21
HETATM   21  N   UNL     1       2.510   7.389  30.048  0.00  0.00    -0.377 N 
HETATM   22  C   UNL     1       2.511   8.762  30.582  0.00  0.00     0.149 C 
HETATM   23  C   UNL     1       1.593   8.805  31.821  0.00  0.00     0.187 C 
HETATM   24  O   UNL     1       1.983   7.843  32.819  0.00  0.00    -0.388 OA
HETATM   25  C   UNL     1       1.967   6.514  32.267  0.00  0.00     0.187 C 
HETATM   26  C   UNL     1       2.918   6.399  31.069  0.00  0.00     0.149 C 
ENDBRANCH  18  21
ENDBRANCH  13  15
ENDBRANCH   1  11
BRANCH   2  27
HETATM   27  O   UNL     1       6.393   5.864  22.942  0.00  0.00    -0.360 OA
HETATM   28  H   UNL     1       5.970   5.051  23.303  0.00  0.00     0.217 HD
ENDBRANCH   2  27
BRANCH   8  29
HETATM   29  C   UNL     1       2.061   7.921  18.227  0.00  0.00     0.066 C 
BRANCH  29  30
HETATM   30  C   UNL     1       0.927   7.009  17.713  0.00  0.00    -0.009 C 
HETATM   31  C   UNL     1       0.961   6.615  16.219  0.00  0.00     0.005 C 
HETATM   32  C   UNL     1       1.218   5.144  15.870  0.00  0.00     0.000 C 
HETATM   33  C   UNL     1       0.679   4.156  16.894  0.00  0.00     0.000 C 
HETATM   34  C   UNL     1       1.174   4.527  18.280  0.00  0.00     0.000 C 
HETATM   35  C   UNL     1       0.588   5.868  18.681  0.00  0.00     0.005 C 
ENDBRANCH  29  30
ENDBRANCH   8  29
TORSDOF 6
ENDMDL
MODEL 3
REMARK VINA RESULT:    -7.708      1.657      2.106
REMARK INTER + INTRA:         -11.192
REMARK INTER:                  -9.724
REMARK INTRA:                  -1.467
REMARK UNBOUND:                -1.006
REMARK  6 active torsions:
REMARK  status: ('A' for Active; 'I' for Inactive)
REMARK       I    between atoms: C_2  and  N_3 
REMARK    1  A    between atoms: C_2  and  C_17 
REMARK    2  A    between atoms: N_3  and  C_5 
REMARK    3  A    between atoms: C_8  and  N_9 
REMARK    4  A    between atoms: C_18  and  O_19 
REMARK    5  A    between atoms: C_25  and  C_26 
REMARK    6  A    between atoms: C_26  and  C_27 
ROOT
HETATM    1  C   UNL     1       3.746   6.035  21.504  0.00  0.00     0.066 A 
HETATM    2  C   UNL     1       4.934   5.372  21.135  0.00  0.00     0.083 A 
HETATM    3  C   UNL     1       5.337   5.234  19.801  0.00  0.00     0.069 A 
HETATM    4  C   UNL     1       4.503   5.795  18.831  0.00  0.00     0.065 A 
HETATM    5  N   UNL     1       4.565   5.807  17.463  0.00  0.00    -0.277 N 
HETATM    6  H   UNL     1       5.267   5.371  16.875  0.00  0.00     0.189 HD
HETATM    7  N   UNL     1       3.527   6.428  16.869  0.00  0.00    -0.178 NA
HETATM    8  C   UNL     1       2.754   6.821  17.891  0.00  0.00     0.067 A 
HETATM    9  C   UNL     1       3.312   6.434  19.142  0.00  0.00     0.019 A 
HETATM   10  C   UNL     1       2.900   6.503  20.488  0.00  0.00     0.035 A 
ENDROOT
BRANCH   1  11
HETATM   11  C   UNL     1       3.352   6.095  22.947  0.00  0.00     0.260 C 
HETATM   12  O   UNL     1       2.998   5.001  23.391  0.00  0.00    -0.267 OA
HETATM   13  N   UNL     1       3.380   7.296  23.696  0.00  0.00    -0.318 N 
HETATM   14  C   UNL     1       4.031   8.519  23.207  0.00  0.00     0.159 C 
BRANCH  13  15
HETATM   15  C   UNL     1       2.825   7.381  25.039  0.00  0.00     0.037 A 
HETATM   16  C   UNL     1       1.512   7.779  25.319  0.00  0.00     0.032 A 
HETATM   17  C   UNL     1       1.013   7.843  26.639  0.00  0.00     0.031 A 
HETATM   18  C   UNL     1       1.806   7.526  27.742  0.00  0.00     0.030 A 
HETATM   19  C   UNL     1       3.112   7.113  27.460  0.00  0.00     0.031 A 
HETATM   20  C   UNL     1       3.611   7.046  26.150  0.00  0.00     0.032 A 
BRANCH  18  21
HETATM   21  N   UNL     1       1.357   7.535  29.051  0.00  0.00    -0.377 N 
HETATM   22  C   UNL     1       0.342   6.588  29.545  0.00  0.00     0.149 C 
HETATM   23  C   UNL     1       0.525   6.428  31.069  0.00  0.00     0.187 C 
HETATM   24  O   UNL     1       0.458   7.690  31.758  0.00  0.00    -0.388 OA
HETATM   25  C   UNL     1       1.464   8.588  31.256  0.00  0.00     0.187 C 
HETATM   26  C   UNL     1       1.286   8.835  29.752  0.00  0.00     0.149 C 
ENDBRANCH  18  21
ENDBRANCH  13  15
ENDBRANCH   1  11
BRANCH   2  27
HETATM   27  O   UNL     1       5.766   4.776  22.055  0.00  0.00    -0.360 OA
HETATM   28  H   UNL     1       5.673   3.802  21.943  0.00  0.00     0.217 HD
ENDBRANCH   2  27
BRANCH   8  29
HETATM   29  C   UNL     1       1.390   7.385  17.666  0.00  0.00     0.066 C 
BRANCH  29  30
HETATM   30  C   UNL     1       0.251   6.491  17.132  0.00  0.00    -0.009 C 
HETATM   31  C   UNL     1       0.255   6.172  15.620  0.00  0.00     0.005 C 
HETATM   32  C   UNL     1       0.515   4.723  15.192  0.00  0.00     0.000 C 
HETATM   33  C   UNL     1       0.006   3.681  16.176  0.00  0.00     0.000 C 
HETATM   34  C   UNL     1       0.529   3.985  17.568  0.00  0.00     0.000 C 
HETATM   35  C   UNL     1      -0.057   5.300  18.049  0.00  0.00     0.005 C 
ENDBRANCH  29  30
ENDBRANCH   8  29
TORSDOF 6
ENDMDL
MODEL 4
REMARK VINA RESULT:    -7.455      1.686      2.522
REMARK INTER + INTRA:         -10.858
REMARK INTER:                  -9.438
REMARK INTRA:                  -1.420
REMARK UNBOUND:                -1.006
REMARK  6 active torsions:
REMARK  status: ('A' for Active; 'I' for Inactive)
REMARK       I    between atoms: C_2  and  N_3 
REMARK    1  A    between atoms: C_2  and  C_17 
REMARK    2  A    between atoms: N_3  and  C_5 
REMARK    3  A    between atoms: C_8  and  N_9 
REMARK    4  A    between atoms: C_18  and  O_19 
REMARK    5  A    between atoms: C_25  and  C_26 
REMARK    6  A    between atoms: C_26  and  C_27 
ROOT
HETATM    1  C   UNL     1       3.569   7.776  22.626  0.00  0.00     0.066 A 
HETATM    2  C   UNL     1       4.165   9.017  22.322  0.00  0.00     0.083 A 
HETATM    3  C   UNL     1       4.805   9.266  21.101  0.00  0.00     0.069 A 
HETATM    4  C   UNL     1       4.824   8.220  20.176  0.00  0.00     0.065 A 
HETATM    5  N   UNL     1       5.388   8.103  18.934  0.00  0.00    -0.277 N 
HETATM    6  H   UNL     1       5.938   8.798  18.440  0.00  0.00     0.189 HD
HETATM    7  N   UNL     1       5.220   6.895  18.363  0.00  0.00    -0.178 NA
HETATM    8  C   UNL     1       4.534   6.194  19.276  0.00  0.00     0.067 A 
HETATM    9  C   UNL     1       4.275   6.974  20.439  0.00  0.00     0.019 A 
HETATM   10  C   UNL     1       3.693   6.731  21.700  0.00  0.00     0.035 A 
ENDROOT
BRANCH   1  11
HETATM   11  C   UNL     1       2.952   7.565  23.974  0.00  0.00     0.260 C 
HETATM   12  O   UNL     1       1.735   7.764  23.978  0.00  0.00    -0.267 OA
HETATM   13  N   UNL     1       3.710   7.189  25.109  0.00  0.00    -0.318 N 
HETATM   14  C   UNL     1       5.101   6.730  25.015  0.00  0.00     0.159 C 
BRANCH  13  15
HETATM   15  C   UNL     1       3.135   7.164  26.446  0.00  0.00     0.037 A 
HETATM   16  C   UNL     1       3.074   6.019  27.250  0.00  0.00     0.032 A 
HETATM   17  C   UNL     1       2.510   6.041  28.545  0.00  0.00     0.031 A 
HETATM   18  C   UNL     1       1.969   7.205  29.093  0.00  0.00     0.030 A 
HETATM   19  C   UNL     1       2.046   8.351  28.295  0.00  0.00     0.031 A 
HETATM   20  C   UNL     1       2.606   8.334  27.009  0.00  0.00     0.032 A 
BRANCH  18  21
HETATM   21  N   UNL     1       1.440   7.291  30.369  0.00  0.00    -0.377 N 
HETATM   22  C   UNL     1       0.321   6.445  30.819  0.00  0.00     0.149 C 
HETATM   23  C   UNL     1       0.392   6.317  32.355  0.00  0.00     0.187 C 
HETATM   24  O   UNL     1       0.386   7.601  33.006  0.00  0.00    -0.388 OA
HETATM   25  C   UNL     1       1.492   8.400  32.549  0.00  0.00     0.187 C 
HETATM   26  C   UNL     1       1.432   8.614  31.030  0.00  0.00     0.149 C 
ENDBRANCH  18  21
ENDBRANCH  13  15
ENDBRANCH   1  11
BRANCH   2  27
HETATM   27  O   UNL     1       4.198  10.062  23.216  0.00  0.00    -0.360 OA
HETATM   28  H   UNL     1       4.779  10.758  22.830  0.00  0.00     0.217 HD
ENDBRANCH   2  27
BRANCH   8  29
HETATM   29  C   UNL     1       4.302   4.727  19.123  0.00  0.00     0.066 C 
BRANCH  29  30
HETATM   30  C   UNL     1       2.897   4.189  18.782  0.00  0.00    -0.009 C 
HETATM   31  C   UNL     1       1.948   3.894  19.966  0.00  0.00     0.005 C 
HETATM   32  C   UNL     1       0.700   4.771  20.120  0.00  0.00     0.000 C 
HETATM   33  C   UNL     1       0.124   5.275  18.806  0.00  0.00     0.000 C 
HETATM   34  C   UNL     1       1.214   5.943  17.987  0.00  0.00     0.000 C 
HETATM   35  C   UNL     1       2.251   4.908  17.591  0.00  0.00     0.005 C 
ENDBRANCH  29  30
ENDBRANCH   8  29
TORSDOF 6
ENDMDL
MODEL 5
REMARK VINA RESULT:    -7.423      3.471     10.479
REMARK INTER + INTRA:         -10.815
REMARK INTER:                  -9.483
REMARK INTRA:                  -1.332
REMARK UNBOUND:                -1.006
REMARK  6 active torsions:
REMARK  status: ('A' for Active; 'I' for Inactive)
REMARK       I    between atoms: C_2  and  N_3 
REMARK    1  A    between atoms: C_2  and  C_17 
REMARK    2  A    between atoms: N_3  and  C_5 
REMARK    3  A    between atoms: C_8  and  N_9 
REMARK    4  A    between atoms: C_18  and  O_19 
REMARK    5  A    between atoms: C_25  and  C_26 
REMARK    6  A    between atoms: C_26  and  C_27 
ROOT
HETATM    1  C   UNL     1       3.468   6.224  22.869  0.00  0.00     0.066 A 
HETATM    2  C   UNL     1       4.717   6.815  23.151  0.00  0.00     0.083 A 
HETATM    3  C   UNL     1       5.120   7.137  24.453  0.00  0.00     0.069 A 
HETATM    4  C   UNL     1       4.224   6.839  25.481  0.00  0.00     0.065 A 
HETATM    5  N   UNL     1       4.272   7.054  26.833  0.00  0.00    -0.277 N 
HETATM    6  H   UNL     1       5.011   7.510  27.357  0.00  0.00     0.189 HD
HETATM    7  N   UNL     1       3.169   6.653  27.495  0.00  0.00    -0.178 NA
HETATM    8  C   UNL     1       2.368   6.173  26.535  0.00  0.00     0.067 A 
HETATM    9  C   UNL     1       2.974   6.281  25.251  0.00  0.00     0.019 A 
HETATM   10  C   UNL     1       2.569   6.026  23.926  0.00  0.00     0.035 A 
ENDROOT
BRANCH   1  11
HETATM   11  C   UNL     1       3.082   5.959  21.446  0.00  0.00     0.260 C 
HETATM   12  O   UNL     1       3.269   6.931  20.712  0.00  0.00    -0.267 OA
HETATM   13  N   UNL     1       2.551   4.718  21.019  0.00  0.00    -0.318 N 
HETATM   14  C   UNL     1       2.568   3.516  21.863  0.00  0.00     0.159 C 
BRANCH  13  15
HETATM   15  C   UNL     1       2.011   4.530  19.681  0.00  0.00     0.037 A 
HETATM   16  C   UNL     1       0.779   5.042  19.255  0.00  0.00     0.032 A 
HETATM   17  C   UNL     1       0.295   4.839  17.943  0.00  0.00     0.031 A 
HETATM   18  C   UNL     1       1.013   4.104  16.999  0.00  0.00     0.030 A 
HETATM   19  C   UNL     1       2.250   3.607  17.421  0.00  0.00     0.031 A 
HETATM   20  C   UNL     1       2.736   3.808  18.722  0.00  0.00     0.032 A 
BRANCH  18  21
HETATM   21  N   UNL     1       0.604   3.906  15.692  0.00  0.00    -0.377 N 
HETATM   22  C   UNL     1       1.044   4.776  14.587  0.00  0.00     0.149 C 
HETATM   23  C   UNL     1       0.962   3.974  13.271  0.00  0.00     0.187 C 
HETATM   24  O   UNL     1      -0.357   3.443  13.042  0.00  0.00    -0.388 OA
HETATM   25  C   UNL     1      -0.754   2.596  14.135  0.00  0.00     0.187 C 
HETATM   26  C   UNL     1      -0.754   3.367  15.463  0.00  0.00     0.149 C 
ENDBRANCH  18  21
ENDBRANCH  13  15
ENDBRANCH   1  11
BRANCH   2  27
HETATM   27  O   UNL     1       5.614   7.157  22.166  0.00  0.00    -0.360 OA
HETATM   28  H   UNL     1       5.170   7.815  21.583  0.00  0.00     0.217 HD
ENDBRANCH   2  27
BRANCH   8  29
HETATM   29  C   UNL     1       0.950   5.798  26.816  0.00  0.00     0.066 C 
BRANCH  29  30
HETATM   30  C   UNL     1      -0.165   6.863  26.770  0.00  0.00    -0.009 C 
HETATM   31  C   UNL     1      -0.131   7.966  27.853  0.00  0.00     0.005 C 
HETATM   32  C   UNL     1       0.159   9.403  27.404  0.00  0.00     0.000 C 
HETATM   33  C   UNL     1      -0.349   9.738  26.010  0.00  0.00     0.000 C 
HETATM   34  C   UNL     1       0.147   8.702  25.018  0.00  0.00     0.000 C 
HETATM   35  C   UNL     1      -0.469   7.354  25.348  0.00  0.00     0.005 C 
ENDBRANCH  29  30
ENDBRANCH   8  29
TORSDOF 6
ENDMDL
MODEL 6
REMARK VINA RESULT:    -7.411      1.414      2.062
REMARK INTER + INTRA:         -10.800
REMARK INTER:                  -9.334
REMARK INTRA:                  -1.466
REMARK UNBOUND:                -1.006
REMARK  6 active torsions:
REMARK  status: ('A' for Active; 'I' for Inactive)
REMARK       I    between atoms: C_2  and  N_3 
REMARK    1  A    between atoms: C_2  and  C_17 
REMARK    2  A    between atoms: N_3  and  C_5 
REMARK    3  A    between atoms: C_8  and  N_9 
REMARK    4  A    between atoms: C_18  and  O_19 
REMARK    5  A    between atoms: C_25  and  C_26 
REMARK    6  A    between atoms: C_26  and  C_27 
ROOT
HETATM    1  C   UNL     1       4.317   6.531  21.901  0.00  0.00     0.066 A 
HETATM    2  C   UNL     1       5.625   6.309  21.426  0.00  0.00     0.083 A 
HETATM    3  C   UNL     1       5.932   6.266  20.059  0.00  0.00     0.069 A 
HETATM    4  C   UNL     1       4.873   6.462  19.170  0.00  0.00     0.065 A 
HETATM    5  N   UNL     1       4.807   6.439  17.803  0.00  0.00    -0.277 N 
HETATM    6  H   UNL     1       5.563   6.252  17.153  0.00  0.00     0.189 HD
HETATM    7  N   UNL     1       3.570   6.635  17.307  0.00  0.00    -0.178 NA
HETATM    8  C   UNL     1       2.800   6.775  18.395  0.00  0.00     0.067 A 
HETATM    9  C   UNL     1       3.566   6.658  19.590  0.00  0.00     0.019 A 
HETATM   10  C   UNL     1       3.275   6.633  20.968  0.00  0.00     0.035 A 
ENDROOT
BRANCH   1  11
HETATM   11  C   UNL     1       4.054   6.508  23.376  0.00  0.00     0.260 C 
HETATM   12  O   UNL     1       4.061   5.369  23.844  0.00  0.00    -0.267 OA
HETATM   13  N   UNL     1       3.815   7.685  24.125  0.00  0.00    -0.318 N 
HETATM   14  C   UNL     1       4.051   9.030  23.585  0.00  0.00     0.159 C 
BRANCH  13  15
HETATM   15  C   UNL     1       3.382   7.640  25.514  0.00  0.00     0.037 A 
HETATM   16  C   UNL     1       4.107   7.020  26.540  0.00  0.00     0.032 A 
HETATM   17  C   UNL     1       3.651   7.003  27.877  0.00  0.00     0.031 A 
HETATM   18  C   UNL     1       2.443   7.593  28.250  0.00  0.00     0.030 A 
HETATM   19  C   UNL     1       1.728   8.226  27.228  0.00  0.00     0.031 A 
HETATM   20  C   UNL     1       2.178   8.246  25.899  0.00  0.00     0.032 A 
BRANCH  18  21
HETATM   21  N   UNL     1       1.968   7.639  29.549  0.00  0.00    -0.377 N 
HETATM   22  C   UNL     1       2.570   8.502  30.580  0.00  0.00     0.149 C 
HETATM   23  C   UNL     1       1.500   8.804  31.650  0.00  0.00     0.187 C 
HETATM   24  O   UNL     1       0.945   7.602  32.216  0.00  0.00    -0.388 OA
HETATM   25  C   UNL     1       0.362   6.786  31.185  0.00  0.00     0.187 C 
HETATM   26  C   UNL     1       1.404   6.400  30.127  0.00  0.00     0.149 C 
ENDBRANCH  18  21
ENDBRANCH  13  15
ENDBRANCH   1  11
BRANCH   2  27
HETATM   27  O   UNL     1       6.690   6.079  22.266  0.00  0.00    -0.360 OA
HETATM   28  H   UNL     1       7.414   5.695  21.719  0.00  0.00     0.217 HD
ENDBRANCH   2  27
BRANCH   8  29
HETATM   29  C   UNL     1       1.311   6.818  18.298  0.00  0.00     0.066 C 
BRANCH  29  30
HETATM   30  C   UNL     1       0.490   5.512  18.264  0.00  0.00    -0.009 C 
HETATM   31  C   UNL     1       0.870   4.469  17.188  0.00  0.00     0.005 C 
HETATM   32  C   UNL     1       1.470   3.139  17.658  0.00  0.00     0.000 C 
HETATM   33  C   UNL     1       0.961   2.668  19.012  0.00  0.00     0.000 C 
HETATM   34  C   UNL     1       1.116   3.777  20.036  0.00  0.00     0.000 C 
HETATM   35  C   UNL     1       0.215   4.939  19.660  0.00  0.00     0.005 C 
ENDBRANCH  29  30
ENDBRANCH   8  29
TORSDOF 6
ENDMDL
MODEL 7
REMARK VINA RESULT:    -7.280      5.558      9.487
REMARK INTER + INTRA:         -10.626
REMARK INTER:                  -8.961
REMARK INTRA:                  -1.664
REMARK UNBOUND:                -1.006
REMARK  6 active torsions:
REMARK  status: ('A' for Active; 'I' for Inactive)
REMARK       I    between atoms: C_2  and  N_3 
REMARK    1  A    between atoms: C_2  and  C_17 
REMARK    2  A    between atoms: N_3  and  C_5 
REMARK    3  A    between atoms: C_8  and  N_9 
REMARK    4  A    between atoms: C_18  and  O_19 
REMARK    5  A    between atoms: C_25  and  C_26 
REMARK    6  A    between atoms: C_26  and  C_27 
ROOT
HETATM    1  C   UNL     1       1.646   5.757  18.972  0.00  0.00     0.066 A 
HETATM    2  C   UNL     1       1.492   6.923  18.195  0.00  0.00     0.083 A 
HETATM    3  C   UNL     1       2.540   7.827  17.978  0.00  0.00     0.069 A 
HETATM    4  C   UNL     1       3.768   7.520  18.568  0.00  0.00     0.065 A 
HETATM    5  N   UNL     1       4.963   8.187  18.601  0.00  0.00    -0.277 N 
HETATM    6  H   UNL     1       5.177   9.088  18.185  0.00  0.00     0.189 HD
HETATM    7  N   UNL     1       5.919   7.573  19.325  0.00  0.00    -0.178 NA
HETATM    8  C   UNL     1       5.317   6.472  19.794  0.00  0.00     0.067 A 
HETATM    9  C   UNL     1       3.961   6.399  19.362  0.00  0.00     0.019 A 
HETATM   10  C   UNL     1       2.873   5.540  19.615  0.00  0.00     0.035 A 
ENDROOT
BRANCH   1  11
HETATM   11  C   UNL     1       0.466   4.865  19.206  0.00  0.00     0.260 C 
HETATM   12  O   UNL     1      -0.379   5.376  19.944  0.00  0.00    -0.267 OA
HETATM   13  N   UNL     1       0.363   3.573  18.638  0.00  0.00    -0.318 N 
HETATM   14  C   UNL     1       1.265   3.098  17.581  0.00  0.00     0.159 C 
BRANCH  13  15
HETATM   15  C   UNL     1      -0.695   2.647  19.016  0.00  0.00     0.037 A 
HETATM   16  C   UNL     1      -0.467   1.390  19.588  0.00  0.00     0.032 A 
HETATM   17  C   UNL     1      -1.526   0.524  19.943  0.00  0.00     0.031 A 
HETATM   18  C   UNL     1      -2.861   0.868  19.731  0.00  0.00     0.030 A 
HETATM   19  C   UNL     1      -3.088   2.131  19.174  0.00  0.00     0.031 A 
HETATM   20  C   UNL     1      -2.040   2.995  18.822  0.00  0.00     0.032 A 
BRANCH  18  21
HETATM   21  N   UNL     1      -3.936   0.075  20.094  0.00  0.00    -0.377 N 
HETATM   22  C   UNL     1      -3.779  -1.335  20.490  0.00  0.00     0.149 C 
HETATM   23  C   UNL     1      -4.965  -1.722  21.398  0.00  0.00     0.187 C 
HETATM   24  O   UNL     1      -6.234  -1.484  20.761  0.00  0.00    -0.388 OA
HETATM   25  C   UNL     1      -6.357  -0.099  20.391  0.00  0.00     0.187 C 
HETATM   26  C   UNL     1      -5.235   0.321  19.432  0.00  0.00     0.149 C 
ENDBRANCH  18  21
ENDBRANCH  13  15
ENDBRANCH   1  11
BRANCH   2  27
HETATM   27  O   UNL     1       0.293   7.280  17.625  0.00  0.00    -0.360 OA
HETATM   28  H   UNL     1       0.378   8.217  17.330  0.00  0.00     0.217 HD
ENDBRANCH   2  27
BRANCH   8  29
HETATM   29  C   UNL     1       5.970   5.597  20.812  0.00  0.00     0.066 C 
BRANCH  29  30
HETATM   30  C   UNL     1       5.601   5.725  22.305  0.00  0.00    -0.009 C 
HETATM   31  C   UNL     1       4.963   7.056  22.763  0.00  0.00     0.005 C 
HETATM   32  C   UNL     1       3.502   7.029  23.227  0.00  0.00     0.000 C 
HETATM   33  C   UNL     1       3.082   5.728  23.895  0.00  0.00     0.000 C 
HETATM   34  C   UNL     1       3.437   4.552  23.004  0.00  0.00     0.000 C 
HETATM   35  C   UNL     1       4.946   4.458  22.872  0.00  0.00     0.005 C 
ENDBRANCH  29  30
ENDBRANCH   8  29
TORSDOF 6
ENDMDL
MODEL 8
REMARK VINA RESULT:    -7.167      4.496     11.419
REMARK INTER + INTRA:         -10.478
REMARK INTER:                  -9.518
REMARK INTRA:                  -0.959
REMARK UNBOUND:                -1.006
REMARK  6 active torsions:
REMARK  status: ('A' for Active; 'I' for Inactive)
REMARK       I    between atoms: C_2  and  N_3 
REMARK    1  A    between atoms: C_2  and  C_17 
REMARK    2  A    between atoms: N_3  and  C_5 
REMARK    3  A    between atoms: C_8  and  N_9 
REMARK    4  A    between atoms: C_18  and  O_19 
REMARK    5  A    between atoms: C_25  and  C_26 
REMARK    6  A    between atoms: C_26  and  C_27 
ROOT
HETATM    1  C   UNL     1       3.360   6.085  19.280  0.00  0.00     0.066 A 
HETATM    2  C   UNL     1       4.690   6.491  19.042  0.00  0.00     0.083 A 
HETATM    3  C   UNL     1       5.574   6.817  20.078  0.00  0.00     0.069 A 
HETATM    4  C   UNL     1       5.081   6.715  21.381  0.00  0.00     0.065 A 
HETATM    5  N   UNL     1       5.642   6.993  22.599  0.00  0.00    -0.277 N 
HETATM    6  H   UNL     1       6.571   7.357  22.780  0.00  0.00     0.189 HD
HETATM    7  N   UNL     1       4.814   6.802  23.644  0.00  0.00    -0.178 NA
HETATM    8  C   UNL     1       3.666   6.401  23.083  0.00  0.00     0.067 A 
HETATM    9  C   UNL     1       3.774   6.345  21.664  0.00  0.00     0.019 A 
HETATM   10  C   UNL     1       2.888   6.084  20.600  0.00  0.00     0.035 A 
ENDROOT
BRANCH   1  11
HETATM   11  C   UNL     1       2.456   5.806  18.119  0.00  0.00     0.260 C 
HETATM   12  O   UNL     1       1.949   6.829  17.654  0.00  0.00    -0.267 OA
HETATM   13  N   UNL     1       2.216   4.497  17.637  0.00  0.00    -0.318 N 
HETATM   14  C   UNL     1       3.016   3.340  18.056  0.00  0.00     0.159 C 
BRANCH  13  15
HETATM   15  C   UNL     1       1.200   4.220  16.632  0.00  0.00     0.037 A 
HETATM   16  C   UNL     1       1.216   4.749  15.336  0.00  0.00     0.032 A 
HETATM   17  C   UNL     1       0.209   4.449  14.391  0.00  0.00     0.031 A 
HETATM   18  C   UNL     1      -0.867   3.618  14.700  0.00  0.00     0.030 A 
HETATM   19  C   UNL     1      -0.873   3.077  15.990  0.00  0.00     0.031 A 
HETATM   20  C   UNL     1       0.125   3.370  16.931  0.00  0.00     0.032 A 
BRANCH  18  21
HETATM   21  N   UNL     1      -1.858   3.262  13.802  0.00  0.00    -0.377 N 
HETATM   22  C   UNL     1      -1.790   2.028  12.999  0.00  0.00     0.149 C 
HETATM   23  C   UNL     1      -3.227   1.612  12.621  0.00  0.00     0.187 C 
HETATM   24  O   UNL     1      -3.932   2.661  11.931  0.00  0.00    -0.388 OA
HETATM   25  C   UNL     1      -3.984   3.847  12.743  0.00  0.00     0.187 C 
HETATM   26  C   UNL     1      -2.574   4.344  13.092  0.00  0.00     0.149 C 
ENDBRANCH  18  21
ENDBRANCH  13  15
ENDBRANCH   1  11
BRANCH   2  27
HETATM   27  O   UNL     1       5.204   6.637  17.775  0.00  0.00    -0.360 OA
HETATM   28  H   UNL     1       4.941   7.531  17.454  0.00  0.00     0.217 HD
ENDBRANCH   2  27
BRANCH   8  29
HETATM   29  C   UNL     1       2.411   6.264  23.881  0.00  0.00     0.066 C 
BRANCH  29  30
HETATM   30  C   UNL     1       2.129   7.213  25.064  0.00  0.00    -0.009 C 
HETATM   31  C   UNL     1       1.960   8.715  24.738  0.00  0.00     0.005 C 
HETATM   32  C   UNL     1       0.576   9.343  24.943  0.00  0.00     0.000 C 
HETATM   33  C   UNL     1      -0.227   8.727  26.078  0.00  0.00     0.000 C 
HETATM   34  C   UNL     1      -0.284   7.220  25.913  0.00  0.00     0.000 C 
HETATM   35  C   UNL     1       1.113   6.644  26.061  0.00  0.00     0.005 C 
ENDBRANCH  29  30
ENDBRANCH   8  29
TORSDOF 6
ENDMDL
MODEL 9
REMARK VINA RESULT:    -7.159      3.630     10.097
REMARK INTER + INTRA:         -10.466
REMARK INTER:                  -9.461
REMARK INTRA:                  -1.006
REMARK UNBOUND:                -1.006
REMARK  6 active torsions:
REMARK  status: ('A' for Active; 'I' for Inactive)
REMARK       I    between atoms: C_2  and  N_3 
REMARK    1  A    between atoms: C_2  and  C_17 
REMARK    2  A    between atoms: N_3  and  C_5 
REMARK    3  A    between atoms: C_8  and  N_9 
REMARK    4  A    between atoms: C_18  and  O_19 
REMARK    5  A    between atoms: C_25  and  C_26 
REMARK    6  A    between atoms: C_26  and  C_27 
ROOT
HETATM    1  C   UNL     1       3.418   6.616  23.642  0.00  0.00     0.066 A 
HETATM    2  C   UNL     1       4.598   6.297  24.346  0.00  0.00     0.083 A 
HETATM    3  C   UNL     1       4.795   6.658  25.685  0.00  0.00     0.069 A 
HETATM    4  C   UNL     1       3.757   7.353  26.310  0.00  0.00     0.065 A 
HETATM    5  N   UNL     1       3.634   7.887  27.565  0.00  0.00    -0.277 N 
HETATM    6  H   UNL     1       4.327   7.881  28.306  0.00  0.00     0.189 HD
HETATM    7  N   UNL     1       2.471   8.532  27.779  0.00  0.00    -0.178 NA
HETATM    8  C   UNL     1       1.820   8.427  26.612  0.00  0.00     0.067 A 
HETATM    9  C   UNL     1       2.590   7.711  25.652  0.00  0.00     0.019 A 
HETATM   10  C   UNL     1       2.444   7.391  24.287  0.00  0.00     0.035 A 
ENDROOT
BRANCH   1  11
HETATM   11  C   UNL     1       3.300   6.246  22.196  0.00  0.00     0.260 C 
HETATM   12  O   UNL     1       3.580   7.179  21.441  0.00  0.00    -0.267 OA
HETATM   13  N   UNL     1       2.896   4.959  21.769  0.00  0.00    -0.318 N 
HETATM   14  C   UNL     1       2.806   3.813  22.683  0.00  0.00     0.159 C 
BRANCH  13  15
HETATM   15  C   UNL     1       2.609   4.664  20.372  0.00  0.00     0.037 A 
HETATM   16  C   UNL     1       3.572   4.241  19.448  0.00  0.00     0.032 A 
HETATM   17  C   UNL     1       3.248   3.962  18.101  0.00  0.00     0.031 A 
HETATM   18  C   UNL     1       1.949   4.105  17.612  0.00  0.00     0.030 A 
HETATM   19  C   UNL     1       0.986   4.512  18.540  0.00  0.00     0.031 A 
HETATM   20  C   UNL     1       1.303   4.788  19.879  0.00  0.00     0.032 A 
BRANCH  18  21
HETATM   21  N   UNL     1       1.571   3.810  16.314  0.00  0.00    -0.377 N 
HETATM   22  C   UNL     1       0.659   4.672  15.542  0.00  0.00     0.149 C 
HETATM   23  C   UNL     1       0.933   4.451  14.039  0.00  0.00     0.187 C 
HETATM   24  O   UNL     1       0.806   3.066  13.664  0.00  0.00    -0.388 OA
HETATM   25  C   UNL     1       1.711   2.254  14.432  0.00  0.00     0.187 C 
HETATM   26  C   UNL     1       1.436   2.387  15.936  0.00  0.00     0.149 C 
ENDBRANCH  18  21
ENDBRANCH  13  15
ENDBRANCH   1  11
BRANCH   2  27
HETATM   27  O   UNL     1       5.657   5.645  23.760  0.00  0.00    -0.360 OA
HETATM   28  H   UNL     1       5.717   4.754  24.177  0.00  0.00     0.217 HD
ENDBRANCH   2  27
BRANCH   8  29
HETATM   29  C   UNL     1       0.557   9.179  26.352  0.00  0.00     0.066 C 
BRANCH  29  30
HETATM   30  C   UNL     1       0.276   9.780  24.959  0.00  0.00    -0.009 C 
HETATM   31  C   UNL     1      -1.196   9.813  24.489  0.00  0.00     0.005 C 
HETATM   32  C   UNL     1      -1.868  11.182  24.333  0.00  0.00     0.000 C 
HETATM   33  C   UNL     1      -0.924  12.299  23.917  0.00  0.00     0.000 C 
HETATM   34  C   UNL     1       0.274  12.336  24.848  0.00  0.00     0.000 C 
HETATM   35  C   UNL     1       1.078  11.059  24.684  0.00  0.00     0.005 C 
ENDBRANCH  29  30
ENDBRANCH   8  29
TORSDOF 6
ENDMDL
