REMARK  6 active torsions:
REMARK  status: ('A' for Active; 'I' for Inactive)
REMARK       I    between atoms: C_2  and  N_3 
REMARK    1  A    between atoms: C_2  and  C_17 
REMARK    2  A    between atoms: N_3  and  C_5 
REMARK    3  A    between atoms: C_8  and  N_9 
REMARK    4  A    between atoms: C_18  and  O_19 
REMARK    5  A    between atoms: C_25  and  C_26 
REMARK    6  A    between atoms: C_26  and  C_27 
ROOT
HETATM    1  C   UNL     1       2.973  -1.228   0.237  0.00  0.00     0.066 A 
HETATM    2  C   UNL     1       2.300  -2.467   0.234  0.00  0.00     0.083 A 
HETATM    3  C   UNL     1       2.979  -3.692   0.209  0.00  0.00     0.069 A 
HETATM    4  C   UNL     1       4.374  -3.638   0.193  0.00  0.00     0.065 A 
HETATM    5  N   UNL     1       5.330  -4.616   0.123  0.00  0.00    -0.277 N 
HETATM    6  H   UNL     1       5.182  -5.617   0.053  0.00  0.00     0.189 HD
HETATM    7  N   UNL     1       6.594  -4.151   0.087  0.00  0.00    -0.178 NA
HETATM    8  C   UNL     1       6.453  -2.819   0.119  0.00  0.00     0.067 A 
HETATM    9  C   UNL     1       5.080  -2.444   0.169  0.00  0.00     0.019 A 
HETATM   10  C   UNL     1       4.371  -1.227   0.131  0.00  0.00     0.035 A 
ENDROOT
BRANCH   1  11
HETATM   11  C   UNL     1       2.180   0.042   0.208  0.00  0.00     0.260 C 
HETATM   12  O   UNL     1       1.102  -0.082  -0.376  0.00  0.00    -0.267 OA
HETATM   13  N   UNL     1       2.648   1.246   0.787  0.00  0.00    -0.318 N 
HETATM   14  C   UNL     1       3.816   1.296   1.676  0.00  0.00     0.159 C 
BRANCH  13  15
HETATM   15  C   UNL     1       1.957   2.513   0.596  0.00  0.00     0.037 A 
HETATM   16  C   UNL     1       0.630   2.623   0.163  0.00  0.00     0.032 A 
HETATM   17  C   UNL     1      -0.003   3.875  -0.005  0.00  0.00     0.031 A 
HETATM   18  C   UNL     1       0.664   5.076   0.239  0.00  0.00     0.030 A 
HETATM   19  C   UNL     1       1.984   4.964   0.687  0.00  0.00     0.031 A 
HETATM   20  C   UNL     1       2.616   3.723   0.857  0.00  0.00     0.032 A 
BRANCH  18  21
HETATM   21  N   UNL     1       0.081   6.326   0.127  0.00  0.00    -0.377 N 
HETATM   22  C   UNL     1      -1.379   6.514   0.067  0.00  0.00     0.149 C 
HETATM   23  C   UNL     1      -1.710   7.934   0.572  0.00  0.00     0.187 C 
HETATM   24  O   UNL     1      -1.009   8.950  -0.170  0.00  0.00    -0.388 OA
HETATM   25  C   UNL     1       0.412   8.740  -0.087  0.00  0.00     0.187 C 
HETATM   26  C   UNL     1       0.803   7.363  -0.641  0.00  0.00     0.149 C 
ENDBRANCH  18  21
ENDBRANCH  13  15
ENDBRANCH   1  11
BRANCH   2  27
HETATM   27  O   UNL     1       0.928  -2.565   0.215  0.00  0.00    -0.360 OA
HETATM   28  H   UNL     1       0.577  -1.684  -0.052  0.00  0.00     0.217 HD
ENDBRANCH   2  27
BRANCH   8  29
HETATM   29  C   UNL     1       7.613  -1.905  -0.100  0.00  0.00     0.066 C 
BRANCH  29  30
HETATM   30  C   UNL     1       8.678  -1.715   1.000  0.00  0.00    -0.009 C 
HETATM   31  C   UNL     1       8.197  -1.155   2.358  0.00  0.00     0.005 C 
HETATM   32  C   UNL     1       8.256  -2.082   3.578  0.00  0.00     0.000 C 
HETATM   33  C   UNL     1       9.396  -3.088   3.544  0.00  0.00     0.000 C 
HETATM   34  C   UNL     1       9.376  -3.847   2.230  0.00  0.00     0.000 C 
HETATM   35  C   UNL     1       9.664  -2.887   1.090  0.00  0.00     0.005 C 
ENDBRANCH  29  30
ENDBRANCH   8  29
TORSDOF 6
