REMARK  4 active torsions:
REMARK  status: ('A' for Active; 'I' for Inactive)
REMARK    1  A    between atoms: N_1  and  C_2 
REMARK    2  A    between atoms: C_7  and  C_9 
REMARK       I    between atoms: C_9  and  N_11 
REMARK    3  A    between atoms: N_11  and  C_12 
REMARK    4  A    between atoms: C_24  and  C_25 
ROOT
HETATM    1  C   UNL     1       5.705  -4.825  -0.065  0.00  0.00     0.153 C 
HETATM    2  C   UNL     1       5.273  -6.196  -0.549  0.00  0.00    -0.020 A 
HETATM    3  C   UNL     1       4.767  -6.541  -1.799  0.00  0.00     0.010 A 
HETATM    4  C   UNL     1       4.639  -7.892  -2.120  0.00  0.00     0.001 A 
HETATM    5  C   UNL     1       5.046  -8.871  -1.213  0.00  0.00     0.001 A 
HETATM    6  C   UNL     1       5.552  -8.514   0.043  0.00  0.00     0.013 A 
HETATM    7  C   UNL     1       5.635  -7.177   0.409  0.00  0.00    -0.016 A 
HETATM    8  C   UNL     1       6.094  -6.513   1.639  0.00  0.00    -0.003 A 
HETATM    9  C   UNL     1       6.060  -5.103   1.386  0.00  0.00    -0.019 A 
HETATM   10  C   UNL     1       6.452  -4.165   2.329  0.00  0.00     0.010 A 
HETATM   11  C   UNL     1       6.883  -4.626   3.565  0.00  0.00     0.002 A 
HETATM   12  C   UNL     1       6.923  -6.004   3.840  0.00  0.00     0.016 A 
HETATM   13  C   UNL     1       6.530  -6.981   2.892  0.00  0.00     0.022 A 
ENDROOT
BRANCH   1  14
HETATM   14  N   UNL     1       4.791  -3.725  -0.311  0.00  0.00    -0.343 N 
HETATM   15  C   UNL     1       4.905  -3.037  -1.512  0.00  0.00     0.273 C 
HETATM   16  O   UNL     1       5.673  -3.437  -2.384  0.00  0.00    -0.266 OA
HETATM   17  H   UNL     1       4.157  -3.395   0.411  0.00  0.00     0.163 HD
BRANCH  15  18
HETATM   18  C   UNL     1       4.089  -1.789  -1.729  0.00  0.00     0.150 A 
HETATM   19  C   UNL     1       4.231  -1.039  -2.890  0.00  0.00     0.086 A 
HETATM   20  C   UNL     1       3.407   0.057  -2.973  0.00  0.00     0.146 A 
HETATM   21 CL   UNL     1       5.317  -1.308  -4.194  0.00  0.00    -0.080 Cl
HETATM   22  N   UNL     1       2.540   0.419  -2.009  0.00  0.00    -0.229 NA
HETATM   23  C   UNL     1       2.506  -0.339  -0.909  0.00  0.00     0.199 A 
HETATM   24  N   UNL     1       3.227  -1.454  -0.722  0.00  0.00    -0.211 NA
BRANCH  23  25
HETATM   25  N   UNL     1       1.639   0.078   0.073  0.00  0.00    -0.271 NA
HETATM   26  H   UNL     1       0.943   0.697  -0.324  0.00  0.00     0.127 HD
HETATM   27  H   UNL     1       1.315  -0.684   0.648  0.00  0.00     0.127 HD
ENDBRANCH  23  25
ENDBRANCH  15  18
ENDBRANCH   1  14
BRANCH  13  28
HETATM   28  C   UNL     1       6.584  -8.399   3.285  0.00  0.00     0.140 A 
HETATM   29  N   UNL     1       5.761  -9.357   2.897  0.00  0.00    -0.227 NA
HETATM   30  C   UNL     1       6.220 -10.530   3.443  0.00  0.00     0.103 A 
HETATM   31  C   UNL     1       5.780 -11.844   3.270  0.00  0.00     0.150 A 
HETATM   32  C   UNL     1       7.295 -10.285   4.284  0.00  0.00     0.065 A 
HETATM   33  N   UNL     1       6.378 -12.860   3.948  0.00  0.00    -0.271 NA
HETATM   34  C   UNL     1       7.399 -12.567   4.789  0.00  0.00     0.118 A 
HETATM   35  C   UNL     1       7.922 -11.296   5.008  0.00  0.00     0.051 A 
HETATM   36  N   UNL     1       7.509  -8.932   4.168  0.00  0.00    -0.338 N 
HETATM   37  H   UNL     1       8.250  -8.415   4.615  0.00  0.00     0.167 HD
ENDBRANCH  13  28
TORSDOF 4
