MODEL 1
REMARK VINA RESULT:    -6.932      0.000      0.000
REMARK INTER + INTRA:          -9.225
REMARK INTER:                  -8.021
REMARK INTRA:                  -1.204
REMARK UNBOUND:                -1.280
REMARK  3 active torsions:
REMARK  status: ('A' for Active; 'I' for Inactive)
REMARK    1  A    between atoms: C_9  and  C_13 
REMARK    2  A    between atoms: C_10  and  O_12 
REMARK    3  A    between atoms: N_17  and  C_18 
ROOT
HETATM    1  N   UNL     1       8.536  11.412  21.267  0.00  0.00    -0.277 N 
HETATM    2  H   UNL     1       9.022  10.536  21.121  0.00  0.00     0.189 HD
HETATM    3  N   UNL     1       9.258  12.549  21.278  0.00  0.00    -0.179 NA
HETATM    4  C   UNL     1       8.345  13.503  21.494  0.00  0.00     0.063 A 
HETATM    5  C   UNL     1       8.752  14.919  21.684  0.00  0.00     0.073 C 
HETATM    6  C   UNL     1       7.033  12.967  21.603  0.00  0.00     0.019 A 
HETATM    7  C   UNL     1       7.201  11.596  21.509  0.00  0.00     0.065 A 
HETATM    8  C   UNL     1       5.743  13.486  21.813  0.00  0.00     0.032 C 
HETATM    9  C   UNL     1       4.670  12.628  22.118  0.00  0.00     0.026 C 
HETATM   10  C   UNL     1       4.898  11.241  22.014  0.00  0.00     0.080 C 
HETATM   11  C   UNL     1       6.143  10.699  21.659  0.00  0.00     0.069 C 
ENDROOT
BRANCH   9  12
HETATM   12  C   UNL     1       3.378  13.205  22.549  0.00  0.00     0.068 A 
HETATM   13  C   UNL     1       2.132  13.138  21.943  0.00  0.00     0.053 A 
HETATM   14  C   UNL     1       1.241  13.797  22.802  0.00  0.00     0.141 A 
HETATM   15  N   UNL     1       1.846  14.276  23.883  0.00  0.00    -0.183 NA
HETATM   16  N   UNL     1       3.144  13.896  23.746  0.00  0.00    -0.257 N 
BRANCH  16  17
HETATM   17  C   UNL     1       4.085  14.103  24.870  0.00  0.00     0.155 A 
HETATM   18  C   UNL     1       4.922  12.887  25.234  0.00  0.00     0.000 A 
HETATM   19  C   UNL     1       6.251  12.939  25.427  0.00  0.00    -0.025 A 
HETATM   20  C   UNL     1       7.065  14.191  25.241  0.00  0.00     0.054 A 
HETATM   21  C   UNL     1       6.251  15.385  24.823  0.00  0.00    -0.025 A 
HETATM   22  C   UNL     1       4.920  15.348  24.657  0.00  0.00     0.000 A 
ENDBRANCH  16  17
ENDBRANCH   9  12
BRANCH  10  23
HETATM   23  O   UNL     1       3.939  10.300  22.290  0.00  0.00    -0.360 OA
HETATM   24  H   UNL     1       3.848  10.238  23.255  0.00  0.00     0.217 HD
ENDBRANCH  10  23
TORSDOF 3
ENDMDL
MODEL 2
REMARK VINA RESULT:    -6.849      2.502      5.982
REMARK INTER + INTRA:          -9.130
REMARK INTER:                  -8.207
REMARK INTRA:                  -0.923
REMARK UNBOUND:                -1.280
REMARK  3 active torsions:
REMARK  status: ('A' for Active; 'I' for Inactive)
REMARK    1  A    between atoms: C_9  and  C_13 
REMARK    2  A    between atoms: C_10  and  O_12 
REMARK    3  A    between atoms: N_17  and  C_18 
ROOT
HETATM    1  N   UNL     1       3.922  15.557  24.554  0.00  0.00    -0.277 N 
HETATM    2  H   UNL     1       3.755  16.219  25.302  0.00  0.00     0.189 HD
HETATM    3  N   UNL     1       2.874  14.864  24.068  0.00  0.00    -0.179 NA
HETATM    4  C   UNL     1       3.416  14.092  23.120  0.00  0.00     0.063 A 
HETATM    5  C   UNL     1       2.599  13.081  22.400  0.00  0.00     0.073 C 
HETATM    6  C   UNL     1       4.814  14.312  22.992  0.00  0.00     0.019 A 
HETATM    7  C   UNL     1       5.122  15.229  23.982  0.00  0.00     0.065 A 
HETATM    8  C   UNL     1       5.847  13.804  22.184  0.00  0.00     0.032 C 
HETATM    9  C   UNL     1       7.193  14.070  22.496  0.00  0.00     0.026 C 
HETATM   10  C   UNL     1       7.450  15.007  23.518  0.00  0.00     0.080 C 
HETATM   11  C   UNL     1       6.429  15.642  24.242  0.00  0.00     0.069 C 
ENDROOT
BRANCH   9  12
HETATM   12  C   UNL     1       8.264  13.352  21.770  0.00  0.00     0.068 A 
HETATM   13  C   UNL     1       9.007  13.750  20.668  0.00  0.00     0.053 A 
HETATM   14  C   UNL     1       9.930  12.724  20.426  0.00  0.00     0.141 A 
HETATM   15  N   UNL     1       9.803  11.719  21.285  0.00  0.00    -0.183 NA
HETATM   16  N   UNL     1       8.805  12.108  22.121  0.00  0.00    -0.257 N 
BRANCH  16  17
HETATM   17  C   UNL     1       8.513  11.303  23.329  0.00  0.00     0.155 A 
HETATM   18  C   UNL     1       7.237  10.480  23.256  0.00  0.00     0.000 A 
HETATM   19  C   UNL     1       7.177   9.183  23.601  0.00  0.00    -0.025 A 
HETATM   20  C   UNL     1       8.377   8.387  24.036  0.00  0.00     0.054 A 
HETATM   21  C   UNL     1       9.655   9.180  24.055  0.00  0.00    -0.025 A 
HETATM   22  C   UNL     1       9.718  10.483  23.740  0.00  0.00     0.000 A 
ENDBRANCH  16  17
ENDBRANCH   9  12
BRANCH  10  23
HETATM   23  O   UNL     1       8.715  15.348  23.923  0.00  0.00    -0.360 OA
HETATM   24  H   UNL     1       8.757  15.252  24.888  0.00  0.00     0.217 HD
ENDBRANCH  10  23
TORSDOF 3
ENDMDL
MODEL 3
REMARK VINA RESULT:    -6.769      2.632      4.695
REMARK INTER + INTRA:          -9.038
REMARK INTER:                  -8.162
REMARK INTRA:                  -0.877
REMARK UNBOUND:                -1.280
REMARK  3 active torsions:
REMARK  status: ('A' for Active; 'I' for Inactive)
REMARK    1  A    between atoms: C_9  and  C_13 
REMARK    2  A    between atoms: C_10  and  O_12 
REMARK    3  A    between atoms: N_17  and  C_18 
ROOT
HETATM    1  N   UNL     1       4.504   8.349  19.788  0.00  0.00    -0.277 N 
HETATM    2  H   UNL     1       4.307   7.406  20.101  0.00  0.00     0.189 HD
HETATM    3  N   UNL     1       3.933   8.774  18.645  0.00  0.00    -0.179 NA
HETATM    4  C   UNL     1       4.387  10.026  18.510  0.00  0.00     0.063 A 
HETATM    5  C   UNL     1       4.070  10.826  17.299  0.00  0.00     0.073 C 
HETATM    6  C   UNL     1       5.237  10.401  19.586  0.00  0.00     0.019 A 
HETATM    7  C   UNL     1       5.339   9.265  20.370  0.00  0.00     0.065 A 
HETATM    8  C   UNL     1       5.957  11.552  19.950  0.00  0.00     0.032 C 
HETATM    9  C   UNL     1       6.916  11.497  20.979  0.00  0.00     0.026 C 
HETATM   10  C   UNL     1       6.983  10.313  21.741  0.00  0.00     0.080 C 
HETATM   11  C   UNL     1       6.167   9.200  21.491  0.00  0.00     0.069 C 
ENDROOT
BRANCH   9  12
HETATM   12  C   UNL     1       7.814  12.653  21.199  0.00  0.00     0.068 A 
HETATM   13  C   UNL     1       8.857  13.125  20.416  0.00  0.00     0.053 A 
HETATM   14  C   UNL     1       9.329  14.283  21.049  0.00  0.00     0.141 A 
HETATM   15  N   UNL     1       8.665  14.552  22.168  0.00  0.00    -0.183 NA
HETATM   16  N   UNL     1       7.724  13.575  22.250  0.00  0.00    -0.257 N 
BRANCH  16  17
HETATM   17  C   UNL     1       6.673  13.664  23.289  0.00  0.00     0.155 A 
HETATM   18  C   UNL     1       7.095  14.370  24.567  0.00  0.00     0.000 A 
HETATM   19  C   UNL     1       6.355  15.322  25.161  0.00  0.00    -0.025 A 
HETATM   20  C   UNL     1       5.061  15.838  24.593  0.00  0.00     0.054 A 
HETATM   21  C   UNL     1       4.667  15.185  23.296  0.00  0.00    -0.025 A 
HETATM   22  C   UNL     1       5.385  14.213  22.713  0.00  0.00     0.000 A 
ENDBRANCH  16  17
ENDBRANCH   9  12
BRANCH  10  23
HETATM   23  O   UNL     1       7.877  10.130  22.766  0.00  0.00    -0.360 OA
HETATM   24  H   UNL     1       7.548   9.408  23.325  0.00  0.00     0.217 HD
ENDBRANCH  10  23
TORSDOF 3
ENDMDL
MODEL 4
REMARK VINA RESULT:    -6.739      1.850      4.954
REMARK INTER + INTRA:          -9.004
REMARK INTER:                  -7.827
REMARK INTRA:                  -1.177
REMARK UNBOUND:                -1.280
REMARK  3 active torsions:
REMARK  status: ('A' for Active; 'I' for Inactive)
REMARK    1  A    between atoms: C_9  and  C_13 
REMARK    2  A    between atoms: C_10  and  O_12 
REMARK    3  A    between atoms: N_17  and  C_18 
ROOT
HETATM    1  N   UNL     1       3.027  11.013  24.316  0.00  0.00    -0.277 N 
HETATM    2  H   UNL     1       2.766  10.381  25.061  0.00  0.00     0.189 HD
HETATM    3  N   UNL     1       2.046  11.607  23.609  0.00  0.00    -0.179 NA
HETATM    4  C   UNL     1       2.706  12.356  22.718  0.00  0.00     0.063 A 
HETATM    5  C   UNL     1       1.976  13.105  21.662  0.00  0.00     0.073 C 
HETATM    6  C   UNL     1       4.114  12.249  22.874  0.00  0.00     0.019 A 
HETATM    7  C   UNL     1       4.290  11.320  23.885  0.00  0.00     0.065 A 
HETATM    8  C   UNL     1       5.245  12.799  22.244  0.00  0.00     0.032 C 
HETATM    9  C   UNL     1       6.527  12.275  22.497  0.00  0.00     0.026 C 
HETATM   10  C   UNL     1       6.648  11.326  23.533  0.00  0.00     0.080 C 
HETATM   11  C   UNL     1       5.550  10.870  24.279  0.00  0.00     0.069 C 
ENDROOT
BRANCH   9  12
HETATM   12  C   UNL     1       7.670  12.716  21.667  0.00  0.00     0.068 A 
HETATM   13  C   UNL     1       8.162  12.184  20.484  0.00  0.00     0.053 A 
HETATM   14  C   UNL     1       9.212  13.022  20.084  0.00  0.00     0.141 A 
HETATM   15  N   UNL     1       9.412  14.021  20.936  0.00  0.00    -0.183 NA
HETATM   16  N   UNL     1       8.458  13.853  21.890  0.00  0.00    -0.257 N 
BRANCH  16  17
HETATM   17  C   UNL     1       8.262  14.903  22.916  0.00  0.00     0.155 A 
HETATM   18  C   UNL     1       6.963  15.681  22.794  0.00  0.00     0.000 A 
HETATM   19  C   UNL     1       6.147  15.920  23.835  0.00  0.00    -0.025 A 
HETATM   20  C   UNL     1       6.398  15.390  25.220  0.00  0.00     0.054 A 
HETATM   21  C   UNL     1       7.653  14.569  25.335  0.00  0.00    -0.025 A 
HETATM   22  C   UNL     1       8.487  14.350  24.307  0.00  0.00     0.000 A 
ENDBRANCH  16  17
ENDBRANCH   9  12
BRANCH  10  23
HETATM   23  O   UNL     1       7.838  10.735  23.874  0.00  0.00    -0.360 OA
HETATM   24  H   UNL     1       8.466  11.438  24.105  0.00  0.00     0.217 HD
ENDBRANCH  10  23
TORSDOF 3
ENDMDL
MODEL 5
REMARK VINA RESULT:    -6.726      2.616      5.353
REMARK INTER + INTRA:          -8.990
REMARK INTER:                  -8.042
REMARK INTRA:                  -0.948
REMARK UNBOUND:                -1.280
REMARK  3 active torsions:
REMARK  status: ('A' for Active; 'I' for Inactive)
REMARK    1  A    between atoms: C_9  and  C_13 
REMARK    2  A    between atoms: C_10  and  O_12 
REMARK    3  A    between atoms: N_17  and  C_18 
ROOT
HETATM    1  N   UNL     1       5.503  16.125  24.140  0.00  0.00    -0.277 N 
HETATM    2  H   UNL     1       6.076  16.911  24.418  0.00  0.00     0.189 HD
HETATM    3  N   UNL     1       4.297  15.976  24.721  0.00  0.00    -0.179 NA
HETATM    4  C   UNL     1       3.805  14.868  24.155  0.00  0.00     0.063 A 
HETATM    5  C   UNL     1       2.513  14.290  24.606  0.00  0.00     0.073 C 
HETATM    6  C   UNL     1       4.699  14.322  23.194  0.00  0.00     0.019 A 
HETATM    7  C   UNL     1       5.820  15.132  23.252  0.00  0.00     0.065 A 
HETATM    8  C   UNL     1       4.696  13.217  22.326  0.00  0.00     0.032 C 
HETATM    9  C   UNL     1       5.878  12.822  21.671  0.00  0.00     0.026 C 
HETATM   10  C   UNL     1       6.993  13.679  21.769  0.00  0.00     0.080 C 
HETATM   11  C   UNL     1       6.973  14.870  22.511  0.00  0.00     0.069 C 
ENDROOT
BRANCH   9  12
HETATM   12  C   UNL     1       5.909  11.536  20.938  0.00  0.00     0.068 A 
HETATM   13  C   UNL     1       5.633  11.269  19.606  0.00  0.00     0.053 A 
HETATM   14  C   UNL     1       5.879   9.902  19.420  0.00  0.00     0.141 A 
HETATM   15  N   UNL     1       6.272   9.304  20.539  0.00  0.00    -0.183 NA
HETATM   16  N   UNL     1       6.315  10.301  21.462  0.00  0.00    -0.257 N 
BRANCH  16  17
HETATM   17  C   UNL     1       6.896  10.032  22.797  0.00  0.00     0.155 A 
HETATM   18  C   UNL     1       6.525   8.684  23.395  0.00  0.00     0.000 A 
HETATM   19  C   UNL     1       7.425   7.849  23.942  0.00  0.00    -0.025 A 
HETATM   20  C   UNL     1       8.903   8.128  23.967  0.00  0.00     0.054 A 
HETATM   21  C   UNL     1       9.283   9.433  23.324  0.00  0.00    -0.025 A 
HETATM   22  C   UNL     1       8.388  10.285  22.801  0.00  0.00     0.000 A 
ENDBRANCH  16  17
ENDBRANCH   9  12
BRANCH  10  23
HETATM   23  O   UNL     1       8.203  13.408  21.184  0.00  0.00    -0.360 OA
HETATM   24  H   UNL     1       8.900  13.614  21.827  0.00  0.00     0.217 HD
ENDBRANCH  10  23
TORSDOF 3
ENDMDL
MODEL 6
REMARK VINA RESULT:    -6.695      2.203      4.978
REMARK INTER + INTRA:          -8.953
REMARK INTER:                  -7.771
REMARK INTRA:                  -1.182
REMARK UNBOUND:                -1.280
REMARK  3 active torsions:
REMARK  status: ('A' for Active; 'I' for Inactive)
REMARK    1  A    between atoms: C_9  and  C_13 
REMARK    2  A    between atoms: C_10  and  O_12 
REMARK    3  A    between atoms: N_17  and  C_18 
ROOT
HETATM    1  N   UNL     1       2.996  12.697  21.438  0.00  0.00    -0.277 N 
HETATM    2  H   UNL     1       2.570  12.606  20.525  0.00  0.00     0.189 HD
HETATM    3  N   UNL     1       2.278  13.272  22.423  0.00  0.00    -0.179 NA
HETATM    4  C   UNL     1       3.105  13.249  23.474  0.00  0.00     0.063 A 
HETATM    5  C   UNL     1       2.726  13.894  24.758  0.00  0.00     0.073 C 
HETATM    6  C   UNL     1       4.349  12.638  23.158  0.00  0.00     0.019 A 
HETATM    7  C   UNL     1       4.266  12.343  21.807  0.00  0.00     0.065 A 
HETATM    8  C   UNL     1       5.537  12.347  23.850  0.00  0.00     0.032 C 
HETATM    9  C   UNL     1       6.691  11.947  23.150  0.00  0.00     0.026 C 
HETATM   10  C   UNL     1       6.553  11.668  21.775  0.00  0.00     0.080 C 
HETATM   11  C   UNL     1       5.336  11.807  21.090  0.00  0.00     0.069 C 
ENDROOT
BRANCH   9  12
HETATM   12  C   UNL     1       7.983  11.859  23.867  0.00  0.00     0.068 A 
HETATM   13  C   UNL     1       8.803  10.761  24.083  0.00  0.00     0.053 A 
HETATM   14  C   UNL     1       9.933  11.242  24.758  0.00  0.00     0.141 A 
HETATM   15  N   UNL     1       9.865  12.549  24.986  0.00  0.00    -0.183 NA
HETATM   16  N   UNL     1       8.690  12.934  24.423  0.00  0.00    -0.257 N 
BRANCH  16  17
HETATM   17  C   UNL     1       8.367  14.376  24.326  0.00  0.00     0.155 A 
HETATM   18  C   UNL     1       8.019  14.860  22.928  0.00  0.00     0.000 A 
HETATM   19  C   UNL     1       6.949  15.628  22.659  0.00  0.00    -0.025 A 
HETATM   20  C   UNL     1       5.945  16.040  23.701  0.00  0.00     0.054 A 
HETATM   21  C   UNL     1       6.252  15.515  25.077  0.00  0.00    -0.025 A 
HETATM   22  C   UNL     1       7.333  14.772  25.358  0.00  0.00     0.000 A 
ENDBRANCH  16  17
ENDBRANCH   9  12
BRANCH  10  23
HETATM   23  O   UNL     1       7.599  11.276  20.980  0.00  0.00    -0.360 OA
HETATM   24  H   UNL     1       7.306  10.515  20.453  0.00  0.00     0.217 HD
ENDBRANCH  10  23
TORSDOF 3
ENDMDL
MODEL 7
REMARK VINA RESULT:    -6.591      2.131      5.618
REMARK INTER + INTRA:          -8.835
REMARK INTER:                  -7.996
REMARK INTRA:                  -0.839
REMARK UNBOUND:                -1.280
REMARK  3 active torsions:
REMARK  status: ('A' for Active; 'I' for Inactive)
REMARK    1  A    between atoms: C_9  and  C_13 
REMARK    2  A    between atoms: C_10  and  O_12 
REMARK    3  A    between atoms: N_17  and  C_18 
ROOT
HETATM    1  N   UNL     1       2.480  13.848  22.815  0.00  0.00    -0.277 N 
HETATM    2  H   UNL     1       1.545  13.571  22.543  0.00  0.00     0.189 HD
HETATM    3  N   UNL     1       2.617  14.872  23.679  0.00  0.00    -0.179 NA
HETATM    4  C   UNL     1       3.941  14.989  23.826  0.00  0.00     0.063 A 
HETATM    5  C   UNL     1       4.525  16.093  24.632  0.00  0.00     0.073 C 
HETATM    6  C   UNL     1       4.647  14.019  23.064  0.00  0.00     0.019 A 
HETATM    7  C   UNL     1       3.667  13.329  22.372  0.00  0.00     0.065 A 
HETATM    8  C   UNL     1       5.997  13.685  22.856  0.00  0.00     0.032 C 
HETATM    9  C   UNL     1       6.361  12.804  21.821  0.00  0.00     0.026 C 
HETATM   10  C   UNL     1       5.323  12.134  21.142  0.00  0.00     0.080 C 
HETATM   11  C   UNL     1       3.966  12.339  21.435  0.00  0.00     0.069 C 
ENDROOT
BRANCH   9  12
HETATM   12  C   UNL     1       7.791  12.637  21.478  0.00  0.00     0.068 A 
HETATM   13  C   UNL     1       8.587  13.376  20.614  0.00  0.00     0.053 A 
HETATM   14  C   UNL     1       9.877  12.836  20.710  0.00  0.00     0.141 A 
HETATM   15  N   UNL     1       9.933  11.814  21.556  0.00  0.00    -0.183 NA
HETATM   16  N   UNL     1       8.670  11.704  22.045  0.00  0.00    -0.257 N 
BRANCH  16  17
HETATM   17  C   UNL     1       8.402  10.774  23.166  0.00  0.00     0.155 A 
HETATM   18  C   UNL     1       7.426   9.653  22.846  0.00  0.00     0.000 A 
HETATM   19  C   UNL     1       7.658   8.365  23.152  0.00  0.00    -0.025 A 
HETATM   20  C   UNL     1       8.935   7.884  23.787  0.00  0.00     0.054 A 
HETATM   21  C   UNL     1       9.929   8.981  24.052  0.00  0.00    -0.025 A 
HETATM   22  C   UNL     1       9.693  10.272  23.776  0.00  0.00     0.000 A 
ENDBRANCH  16  17
ENDBRANCH   9  12
BRANCH  10  23
HETATM   23  O   UNL     1       5.543  11.256  20.112  0.00  0.00    -0.360 OA
HETATM   24  H   UNL     1       5.256  11.682  19.288  0.00  0.00     0.217 HD
ENDBRANCH  10  23
TORSDOF 3
ENDMDL
MODEL 8
REMARK VINA RESULT:    -6.511      2.565      4.471
REMARK INTER + INTRA:          -8.743
REMARK INTER:                  -7.462
REMARK INTRA:                  -1.280
REMARK UNBOUND:                -1.280
REMARK  3 active torsions:
REMARK  status: ('A' for Active; 'I' for Inactive)
REMARK    1  A    between atoms: C_9  and  C_13 
REMARK    2  A    between atoms: C_10  and  O_12 
REMARK    3  A    between atoms: N_17  and  C_18 
ROOT
HETATM    1  N   UNL     1       7.000  15.679  23.320  0.00  0.00    -0.277 N 
HETATM    2  H   UNL     1       7.843  16.195  23.537  0.00  0.00     0.189 HD
HETATM    3  N   UNL     1       5.852  16.046  23.921  0.00  0.00    -0.179 NA
HETATM    4  C   UNL     1       4.950  15.185  23.438  0.00  0.00     0.063 A 
HETATM    5  C   UNL     1       3.551  15.184  23.940  0.00  0.00     0.073 C 
HETATM    6  C   UNL     1       5.527  14.278  22.509  0.00  0.00     0.019 A 
HETATM    7  C   UNL     1       6.876  14.589  22.500  0.00  0.00     0.065 A 
HETATM    8  C   UNL     1       5.065  13.210  21.719  0.00  0.00     0.032 C 
HETATM    9  C   UNL     1       5.977  12.348  21.082  0.00  0.00     0.026 C 
HETATM   10  C   UNL     1       7.340  12.709  21.110  0.00  0.00     0.080 C 
HETATM   11  C   UNL     1       7.810  13.855  21.768  0.00  0.00     0.069 C 
ENDROOT
BRANCH   9  12
HETATM   12  C   UNL     1       5.481  11.110  20.440  0.00  0.00     0.068 A 
HETATM   13  C   UNL     1       5.478  10.747  19.102  0.00  0.00     0.053 A 
HETATM   14  C   UNL     1       4.957   9.447  19.049  0.00  0.00     0.141 A 
HETATM   15  N   UNL     1       4.627   8.988  20.251  0.00  0.00    -0.183 NA
HETATM   16  N   UNL     1       4.968   9.988  21.105  0.00  0.00    -0.257 N 
BRANCH  16  17
HETATM   17  C   UNL     1       4.910   9.750  22.565  0.00  0.00     0.155 A 
HETATM   18  C   UNL     1       6.174  10.120  23.324  0.00  0.00     0.000 A 
HETATM   19  C   UNL     1       6.168  10.846  24.455  0.00  0.00    -0.025 A 
HETATM   20  C   UNL     1       4.918  11.426  25.058  0.00  0.00     0.054 A 
HETATM   21  C   UNL     1       3.670  11.114  24.280  0.00  0.00    -0.025 A 
HETATM   22  C   UNL     1       3.664  10.365  23.166  0.00  0.00     0.000 A 
ENDBRANCH  16  17
ENDBRANCH   9  12
BRANCH  10  23
HETATM   23  O   UNL     1       8.329  11.953  20.534  0.00  0.00    -0.360 OA
HETATM   24  H   UNL     1       9.145  12.479  20.529  0.00  0.00     0.217 HD
ENDBRANCH  10  23
TORSDOF 3
ENDMDL
MODEL 9
REMARK VINA RESULT:    -6.447      2.388      4.064
REMARK INTER + INTRA:          -8.669
REMARK INTER:                  -7.920
REMARK INTRA:                  -0.749
REMARK UNBOUND:                -1.280
REMARK  3 active torsions:
REMARK  status: ('A' for Active; 'I' for Inactive)
REMARK    1  A    between atoms: C_9  and  C_13 
REMARK    2  A    between atoms: C_10  and  O_12 
REMARK    3  A    between atoms: N_17  and  C_18 
ROOT
HETATM    1  N   UNL     1       6.071   8.716  19.666  0.00  0.00    -0.277 N 
HETATM    2  H   UNL     1       6.454   7.782  19.745  0.00  0.00     0.189 HD
HETATM    3  N   UNL     1       5.372   9.028  18.558  0.00  0.00    -0.179 NA
HETATM    4  C   UNL     1       5.018  10.303  18.755  0.00  0.00     0.063 A 
HETATM    5  C   UNL     1       4.309  11.070  17.698  0.00  0.00     0.073 C 
HETATM    6  C   UNL     1       5.479  10.795  20.006  0.00  0.00     0.019 A 
HETATM    7  C   UNL     1       6.213   9.753  20.548  0.00  0.00     0.065 A 
HETATM    8  C   UNL     1       5.393  12.010  20.708  0.00  0.00     0.032 C 
HETATM    9  C   UNL     1       6.194  12.236  21.843  0.00  0.00     0.026 C 
HETATM   10  C   UNL     1       6.927  11.143  22.349  0.00  0.00     0.080 C 
HETATM   11  C   UNL     1       6.911   9.874  21.749  0.00  0.00     0.069 C 
ENDROOT
BRANCH   9  12
HETATM   12  C   UNL     1       6.252  13.592  22.434  0.00  0.00     0.068 A 
HETATM   13  C   UNL     1       7.185  14.601  22.245  0.00  0.00     0.053 A 
HETATM   14  C   UNL     1       6.730  15.699  22.989  0.00  0.00     0.141 A 
HETATM   15  N   UNL     1       5.597  15.438  23.631  0.00  0.00    -0.183 NA
HETATM   16  N   UNL     1       5.289  14.163  23.276  0.00  0.00    -0.257 N 
BRANCH  16  17
HETATM   17  C   UNL     1       3.977  13.597  23.665  0.00  0.00     0.155 A 
HETATM   18  C   UNL     1       3.410  14.135  24.969  0.00  0.00     0.000 A 
HETATM   19  C   UNL     1       2.140  14.556  25.101  0.00  0.00    -0.025 A 
HETATM   20  C   UNL     1       1.161  14.600  23.960  0.00  0.00     0.054 A 
HETATM   21  C   UNL     1       1.733  14.124  22.653  0.00  0.00    -0.025 A 
HETATM   22  C   UNL     1       2.990  13.675  22.519  0.00  0.00     0.000 A 
ENDBRANCH  16  17
ENDBRANCH   9  12
BRANCH  10  23
HETATM   23  O   UNL     1       7.749  11.232  23.443  0.00  0.00    -0.360 OA
HETATM   24  H   UNL     1       7.885  12.173  23.640  0.00  0.00     0.217 HD
ENDBRANCH  10  23
TORSDOF 3
ENDMDL
