MODEL 1
REMARK VINA RESULT:   -11.730      0.000      0.000
REMARK INTER + INTRA:         -12.360
REMARK INTER:                 -12.033
REMARK INTRA:                  -0.327
REMARK UNBOUND:                 0.398
REMARK  2 active torsions:
REMARK  status: ('A' for Active; 'I' for Inactive)
REMARK    1  A    between atoms: C_9  and  N_10 
REMARK    2  A    between atoms: C_12  and  C_13 
REMARK       I    between atoms: C_13  and  N_15 
ROOT
HETATM    1  C   UNL     1       0.999   8.575  28.622  0.00  0.00     0.048 C 
HETATM    2  C   UNL     1       0.215   9.337  27.595  0.00  0.00    -0.061 A 
HETATM    3  C   UNL     1       0.797   9.751  26.390  0.00  0.00     0.023 A 
HETATM    4  C   UNL     1      -1.130   9.620  27.820  0.00  0.00     0.009 A 
HETATM    5  C   UNL     1      -1.868  10.315  26.861  0.00  0.00     0.033 A 
HETATM    6  C   UNL     1      -1.307  10.738  25.667  0.00  0.00     0.073 A 
HETATM    7  C   UNL     1       0.036  10.452  25.408  0.00  0.00     0.028 A 
HETATM    8  N   UNL     1      -2.086  11.434  24.831  0.00  0.00    -0.218 NA
HETATM    9  C   UNL     1      -1.554  11.863  23.693  0.00  0.00     0.200 A 
HETATM   10  N   UNL     1      -0.320  11.602  23.295  0.00  0.00    -0.212 NA
HETATM   11  C   UNL     1       0.479  10.942  24.171  0.00  0.00     0.140 A 
ENDROOT
BRANCH  11  12
HETATM   12  C   UNL     1       1.931  10.872  23.739  0.00  0.00     0.273 C 
HETATM   13  O   UNL     1       2.405   9.824  23.307  0.00  0.00    -0.266 OA
HETATM   14  N   UNL     1       2.698  12.033  23.872  0.00  0.00    -0.342 N 
HETATM   15  C   UNL     1       4.107  12.121  23.493  0.00  0.00     0.139 C 
HETATM   16  C   UNL     1       2.228  13.287  24.434  0.00  0.00     0.161 C 
HETATM   17  C   UNL     1       4.691  13.142  24.476  0.00  0.00     0.056 C 
HETATM   18  C   UNL     1       3.481  13.981  24.817  0.00  0.00    -0.056 C 
HETATM   19  C   UNL     1       5.851  14.012  24.066  0.00  0.00    -0.020 C 
HETATM   20  C   UNL     1       3.581  15.229  25.306  0.00  0.00    -0.018 C 
HETATM   21  C   UNL     1       4.924  15.885  25.461  0.00  0.00     0.054 C 
HETATM   22  C   UNL     1       5.970  15.263  24.559  0.00  0.00    -0.026 C 
ENDBRANCH  11  12
BRANCH   9  23
HETATM   23  N   UNL     1      -2.316  12.680  22.891  0.00  0.00    -0.271 NA
HETATM   24  H   UNL     1      -3.185  12.924  23.341  0.00  0.00     0.127 HD
HETATM   25  H   UNL     1      -2.351  12.335  21.943  0.00  0.00     0.127 HD
ENDBRANCH   9  23
TORSDOF 2
ENDMDL
MODEL 2
REMARK VINA RESULT:   -11.068      1.797      6.783
REMARK INTER + INTRA:         -11.640
REMARK INTER:                 -11.355
REMARK INTRA:                  -0.285
REMARK UNBOUND:                 0.398
REMARK  2 active torsions:
REMARK  status: ('A' for Active; 'I' for Inactive)
REMARK    1  A    between atoms: C_9  and  N_10 
REMARK    2  A    between atoms: C_12  and  C_13 
REMARK       I    between atoms: C_13  and  N_15 
ROOT
HETATM    1  C   UNL     1       4.415  16.027  25.434  0.00  0.00     0.048 C 
HETATM    2  C   UNL     1       4.796  14.736  24.774  0.00  0.00    -0.061 A 
HETATM    3  C   UNL     1       3.832  13.784  24.417  0.00  0.00     0.023 A 
HETATM    4  C   UNL     1       6.132  14.477  24.477  0.00  0.00     0.009 A 
HETATM    5  C   UNL     1       6.490  13.283  23.850  0.00  0.00     0.033 A 
HETATM    6  C   UNL     1       5.551  12.328  23.496  0.00  0.00     0.073 A 
HETATM    7  C   UNL     1       4.201  12.570  23.766  0.00  0.00     0.028 A 
HETATM    8  N   UNL     1       6.000  11.198  22.937  0.00  0.00    -0.218 NA
HETATM    9  C   UNL     1       5.111  10.267  22.614  0.00  0.00     0.200 A 
HETATM   10  N   UNL     1       3.802  10.397  22.750  0.00  0.00    -0.212 NA
HETATM   11  C   UNL     1       3.359  11.522  23.366  0.00  0.00     0.140 A 
ENDROOT
BRANCH  11  12
HETATM   12  C   UNL     1       1.876  11.502  23.683  0.00  0.00     0.273 C 
HETATM   13  O   UNL     1       1.092  12.201  23.046  0.00  0.00    -0.266 OA
HETATM   14  N   UNL     1       1.453  10.677  24.729  0.00  0.00    -0.342 N 
HETATM   15  C   UNL     1       0.059  10.547  25.145  0.00  0.00     0.139 C 
HETATM   16  C   UNL     1       2.327   9.874  25.567  0.00  0.00     0.161 C 
HETATM   17  C   UNL     1       0.146  10.273  26.651  0.00  0.00     0.056 C 
HETATM   18  C   UNL     1       1.505   9.624  26.776  0.00  0.00    -0.056 C 
HETATM   19  C   UNL     1      -0.911   9.445  27.334  0.00  0.00    -0.020 C 
HETATM   20  C   UNL     1       1.842   8.847  27.819  0.00  0.00    -0.018 C 
HETATM   21  C   UNL     1       0.835   8.517  28.885  0.00  0.00     0.054 C 
HETATM   22  C   UNL     1      -0.589   8.668  28.389  0.00  0.00    -0.026 C 
ENDBRANCH  11  12
BRANCH   9  23
HETATM   23  N   UNL     1       5.580   9.059  22.151  0.00  0.00    -0.271 NA
HETATM   24  H   UNL     1       6.082   9.172  21.283  0.00  0.00     0.127 HD
HETATM   25  H   UNL     1       4.868   8.345  22.200  0.00  0.00     0.127 HD
ENDBRANCH   9  23
TORSDOF 2
ENDMDL
MODEL 3
REMARK VINA RESULT:   -10.721      2.364      6.597
REMARK INTER + INTRA:         -11.263
REMARK INTER:                 -10.895
REMARK INTRA:                  -0.369
REMARK UNBOUND:                 0.398
REMARK  2 active torsions:
REMARK  status: ('A' for Active; 'I' for Inactive)
REMARK    1  A    between atoms: C_9  and  N_10 
REMARK    2  A    between atoms: C_12  and  C_13 
REMARK       I    between atoms: C_13  and  N_15 
ROOT
HETATM    1  C   UNL     1       4.503  16.014  25.482  0.00  0.00     0.048 C 
HETATM    2  C   UNL     1       4.772  14.695  24.821  0.00  0.00    -0.061 A 
HETATM    3  C   UNL     1       3.783  13.708  24.727  0.00  0.00     0.023 A 
HETATM    4  C   UNL     1       6.022  14.443  24.260  0.00  0.00     0.009 A 
HETATM    5  C   UNL     1       6.273  13.223  23.631  0.00  0.00     0.033 A 
HETATM    6  C   UNL     1       5.308  12.234  23.534  0.00  0.00     0.073 A 
HETATM    7  C   UNL     1       4.041  12.466  24.074  0.00  0.00     0.028 A 
HETATM    8  N   UNL     1       5.661  11.083  22.950  0.00  0.00    -0.218 NA
HETATM    9  C   UNL     1       4.751  10.119  22.871  0.00  0.00     0.200 A 
HETATM   10  N   UNL     1       3.497  10.234  23.277  0.00  0.00    -0.212 NA
HETATM   11  C   UNL     1       3.163  11.384  23.916  0.00  0.00     0.140 A 
ENDROOT
BRANCH  11  12
HETATM   12  C   UNL     1       1.782  11.355  24.542  0.00  0.00     0.273 C 
HETATM   13  O   UNL     1       1.577  10.719  25.573  0.00  0.00    -0.266 OA
HETATM   14  N   UNL     1       0.766  12.061  23.891  0.00  0.00    -0.342 N 
HETATM   15  C   UNL     1      -0.610  12.131  24.377  0.00  0.00     0.139 C 
HETATM   16  C   UNL     1       0.917  12.780  22.639  0.00  0.00     0.161 C 
HETATM   17  C   UNL     1      -1.448  12.246  23.098  0.00  0.00     0.056 C 
HETATM   18  C   UNL     1      -0.475  12.892  22.139  0.00  0.00    -0.056 C 
HETATM   19  C   UNL     1      -2.760  12.987  23.114  0.00  0.00    -0.020 C 
HETATM   20  C   UNL     1      -0.874  13.558  21.043  0.00  0.00    -0.018 C 
HETATM   21  C   UNL     1      -2.337  13.763  20.762  0.00  0.00     0.054 C 
HETATM   22  C   UNL     1      -3.178  13.651  22.016  0.00  0.00    -0.026 C 
ENDBRANCH  11  12
BRANCH   9  23
HETATM   23  N   UNL     1       5.145   8.896  22.381  0.00  0.00    -0.271 NA
HETATM   24  H   UNL     1       6.148   8.854  22.275  0.00  0.00     0.127 HD
HETATM   25  H   UNL     1       4.572   8.610  21.602  0.00  0.00     0.127 HD
ENDBRANCH   9  23
TORSDOF 2
ENDMDL
MODEL 4
REMARK VINA RESULT:   -10.291      3.261      4.748
REMARK INTER + INTRA:         -10.794
REMARK INTER:                 -10.489
REMARK INTRA:                  -0.306
REMARK UNBOUND:                 0.398
REMARK  2 active torsions:
REMARK  status: ('A' for Active; 'I' for Inactive)
REMARK    1  A    between atoms: C_9  and  N_10 
REMARK    2  A    between atoms: C_12  and  C_13 
REMARK       I    between atoms: C_13  and  N_15 
ROOT
HETATM    1  C   UNL     1       3.557   6.459  27.324  0.00  0.00     0.048 C 
HETATM    2  C   UNL     1       3.852   6.758  25.884  0.00  0.00    -0.061 A 
HETATM    3  C   UNL     1       3.516   7.990  25.309  0.00  0.00     0.023 A 
HETATM    4  C   UNL     1       4.501   5.808  25.098  0.00  0.00     0.009 A 
HETATM    5  C   UNL     1       4.791   6.086  23.762  0.00  0.00     0.033 A 
HETATM    6  C   UNL     1       4.460   7.297  23.175  0.00  0.00     0.073 A 
HETATM    7  C   UNL     1       3.824   8.274  23.946  0.00  0.00     0.028 A 
HETATM    8  N   UNL     1       4.742   7.451  21.876  0.00  0.00    -0.218 NA
HETATM    9  C   UNL     1       4.410   8.599  21.298  0.00  0.00     0.200 A 
HETATM   10  N   UNL     1       3.870   9.629  21.927  0.00  0.00    -0.212 NA
HETATM   11  C   UNL     1       3.538   9.446  23.230  0.00  0.00     0.140 A 
ENDROOT
BRANCH  11  12
HETATM   12  C   UNL     1       2.730  10.585  23.820  0.00  0.00     0.273 C 
HETATM   13  O   UNL     1       1.508  10.502  23.915  0.00  0.00    -0.266 OA
HETATM   14  N   UNL     1       3.429  11.726  24.228  0.00  0.00    -0.342 N 
HETATM   15  C   UNL     1       2.790  12.899  24.819  0.00  0.00     0.139 C 
HETATM   16  C   UNL     1       4.861  11.924  24.087  0.00  0.00     0.161 C 
HETATM   17  C   UNL     1       3.671  14.068  24.366  0.00  0.00     0.056 C 
HETATM   18  C   UNL     1       5.011  13.398  24.170  0.00  0.00    -0.056 C 
HETATM   19  C   UNL     1       3.805  15.297  25.227  0.00  0.00    -0.020 C 
HETATM   20  C   UNL     1       6.169  14.079  24.179  0.00  0.00    -0.018 C 
HETATM   21  C   UNL     1       6.188  15.553  24.472  0.00  0.00     0.054 C 
HETATM   22  C   UNL     1       4.959  15.997  25.238  0.00  0.00    -0.026 C 
ENDBRANCH  11  12
BRANCH   9  23
HETATM   23  N   UNL     1       4.589   8.713  19.939  0.00  0.00    -0.271 NA
HETATM   24  H   UNL     1       4.944   9.626  19.694  0.00  0.00     0.127 HD
HETATM   25  H   UNL     1       3.791   8.361  19.431  0.00  0.00     0.127 HD
ENDBRANCH   9  23
TORSDOF 2
ENDMDL
MODEL 5
REMARK VINA RESULT:   -10.200      1.536      3.354
REMARK INTER + INTRA:         -10.696
REMARK INTER:                 -10.615
REMARK INTRA:                  -0.081
REMARK UNBOUND:                 0.398
REMARK  2 active torsions:
REMARK  status: ('A' for Active; 'I' for Inactive)
REMARK    1  A    between atoms: C_9  and  N_10 
REMARK    2  A    between atoms: C_12  and  C_13 
REMARK       I    between atoms: C_13  and  N_15 
ROOT
HETATM    1  C   UNL     1      -1.033  13.390  21.044  0.00  0.00     0.048 C 
HETATM    2  C   UNL     1      -1.050  12.549  22.286  0.00  0.00    -0.061 A 
HETATM    3  C   UNL     1       0.130  12.030  22.834  0.00  0.00     0.023 A 
HETATM    4  C   UNL     1      -2.256  12.295  22.934  0.00  0.00     0.009 A 
HETATM    5  C   UNL     1      -2.276  11.525  24.098  0.00  0.00     0.033 A 
HETATM    6  C   UNL     1      -1.120  10.998  24.650  0.00  0.00     0.073 A 
HETATM    7  C   UNL     1       0.106  11.252  24.030  0.00  0.00     0.028 A 
HETATM    8  N   UNL     1      -1.249  10.238  25.744  0.00  0.00    -0.218 NA
HETATM    9  C   UNL     1      -0.150   9.710  26.270  0.00  0.00     0.200 A 
HETATM   10  N   UNL     1       1.076   9.929  25.824  0.00  0.00    -0.212 NA
HETATM   11  C   UNL     1       1.193  10.656  24.685  0.00  0.00     0.140 A 
ENDROOT
BRANCH  11  12
HETATM   12  C   UNL     1       2.600  10.679  24.118  0.00  0.00     0.273 C 
HETATM   13  O   UNL     1       3.120   9.651  23.694  0.00  0.00    -0.266 OA
HETATM   14  N   UNL     1       3.273  11.905  24.119  0.00  0.00    -0.342 N 
HETATM   15  C   UNL     1       4.627  12.085  23.601  0.00  0.00     0.139 C 
HETATM   16  C   UNL     1       2.750  13.146  24.662  0.00  0.00     0.161 C 
HETATM   17  C   UNL     1       5.210  13.205  24.471  0.00  0.00     0.056 C 
HETATM   18  C   UNL     1       3.970  13.961  24.886  0.00  0.00    -0.056 C 
HETATM   19  C   UNL     1       6.248  14.141  23.908  0.00  0.00    -0.020 C 
HETATM   20  C   UNL     1       4.007  15.238  25.303  0.00  0.00    -0.018 C 
HETATM   21  C   UNL     1       5.297  16.009  25.294  0.00  0.00     0.054 C 
HETATM   22  C   UNL     1       6.303  15.423  24.325  0.00  0.00    -0.026 C 
ENDBRANCH  11  12
BRANCH   9  23
HETATM   23  N   UNL     1      -0.293   8.833  27.319  0.00  0.00    -0.271 NA
HETATM   24  H   UNL     1       0.605   8.549  27.680  0.00  0.00     0.127 HD
HETATM   25  H   UNL     1      -0.971   8.116  27.109  0.00  0.00     0.127 HD
ENDBRANCH   9  23
TORSDOF 2
ENDMDL
MODEL 6
REMARK VINA RESULT:    -9.569      2.905      6.168
REMARK INTER + INTRA:         -10.010
REMARK INTER:                  -9.810
REMARK INTRA:                  -0.200
REMARK UNBOUND:                 0.398
REMARK  2 active torsions:
REMARK  status: ('A' for Active; 'I' for Inactive)
REMARK    1  A    between atoms: C_9  and  N_10 
REMARK    2  A    between atoms: C_12  and  C_13 
REMARK       I    between atoms: C_13  and  N_15 
ROOT
HETATM    1  C   UNL     1       6.495  14.633  24.452  0.00  0.00     0.048 C 
HETATM    2  C   UNL     1       5.052  14.224  24.423  0.00  0.00    -0.061 A 
HETATM    3  C   UNL     1       4.665  12.932  24.045  0.00  0.00     0.023 A 
HETATM    4  C   UNL     1       4.067  15.131  24.806  0.00  0.00     0.009 A 
HETATM    5  C   UNL     1       2.724  14.751  24.795  0.00  0.00     0.033 A 
HETATM    6  C   UNL     1       2.324  13.480  24.418  0.00  0.00     0.073 A 
HETATM    7  C   UNL     1       3.293  12.545  24.045  0.00  0.00     0.028 A 
HETATM    8  N   UNL     1       1.010  13.227  24.400  0.00  0.00    -0.218 NA
HETATM    9  C   UNL     1       0.613  12.018  24.019  0.00  0.00     0.200 A 
HETATM   10  N   UNL     1       1.426  11.023  23.710  0.00  0.00    -0.212 NA
HETATM   11  C   UNL     1       2.753  11.303  23.679  0.00  0.00     0.140 A 
ENDROOT
BRANCH  11  12
HETATM   12  C   UNL     1       3.601  10.182  23.108  0.00  0.00     0.273 C 
HETATM   13  O   UNL     1       4.066  10.266  21.974  0.00  0.00    -0.266 OA
HETATM   14  N   UNL     1       3.809   9.059  23.914  0.00  0.00    -0.342 N 
HETATM   15  C   UNL     1       4.606   7.905  23.504  0.00  0.00     0.139 C 
HETATM   16  C   UNL     1       3.239   8.859  25.235  0.00  0.00     0.161 C 
HETATM   17  C   UNL     1       3.940   6.723  24.218  0.00  0.00     0.056 C 
HETATM   18  C   UNL     1       3.319   7.390  25.423  0.00  0.00    -0.056 C 
HETATM   19  C   UNL     1       4.757   5.525  24.628  0.00  0.00    -0.020 C 
HETATM   20  C   UNL     1       2.991   6.713  26.536  0.00  0.00    -0.018 C 
HETATM   21  C   UNL     1       3.311   5.250  26.664  0.00  0.00     0.054 C 
HETATM   22  C   UNL     1       4.434   4.829  25.737  0.00  0.00    -0.026 C 
ENDBRANCH  11  12
BRANCH   9  23
HETATM   23  N   UNL     1      -0.738  11.795  23.885  0.00  0.00    -0.271 NA
HETATM   24  H   UNL     1      -0.956  11.426  22.972  0.00  0.00     0.127 HD
HETATM   25  H   UNL     1      -1.276  12.579  24.223  0.00  0.00     0.127 HD
ENDBRANCH   9  23
TORSDOF 2
ENDMDL
MODEL 7
REMARK VINA RESULT:    -9.547      2.358      5.482
REMARK INTER + INTRA:          -9.986
REMARK INTER:                  -9.608
REMARK INTRA:                  -0.377
REMARK UNBOUND:                 0.398
REMARK  2 active torsions:
REMARK  status: ('A' for Active; 'I' for Inactive)
REMARK    1  A    between atoms: C_9  and  N_10 
REMARK    2  A    between atoms: C_12  and  C_13 
REMARK       I    between atoms: C_13  and  N_15 
ROOT
HETATM    1  C   UNL     1       4.739  13.961  24.447  0.00  0.00     0.048 C 
HETATM    2  C   UNL     1       3.318  13.481  24.438  0.00  0.00    -0.061 A 
HETATM    3  C   UNL     1       3.007  12.115  24.470  0.00  0.00     0.023 A 
HETATM    4  C   UNL     1       2.275  14.403  24.426  0.00  0.00     0.009 A 
HETATM    5  C   UNL     1       0.951  13.962  24.432  0.00  0.00     0.033 A 
HETATM    6  C   UNL     1       0.626  12.616  24.458  0.00  0.00     0.073 A 
HETATM    7  C   UNL     1       1.653  11.669  24.487  0.00  0.00     0.028 A 
HETATM    8  N   UNL     1      -0.673  12.293  24.418  0.00  0.00    -0.218 NA
HETATM    9  C   UNL     1      -0.996  11.006  24.420  0.00  0.00     0.200 A 
HETATM   10  N   UNL     1      -0.128  10.013  24.516  0.00  0.00    -0.212 NA
HETATM   11  C   UNL     1       1.188  10.346  24.502  0.00  0.00     0.140 A 
ENDROOT
BRANCH  11  12
HETATM   12  C   UNL     1       2.118   9.153  24.394  0.00  0.00     0.273 C 
HETATM   13  O   UNL     1       2.260   8.565  23.325  0.00  0.00    -0.266 OA
HETATM   14  N   UNL     1       2.782   8.749  25.557  0.00  0.00    -0.342 N 
HETATM   15  C   UNL     1       3.713   7.623  25.608  0.00  0.00     0.139 C 
HETATM   16  C   UNL     1       2.615   9.351  26.868  0.00  0.00     0.161 C 
HETATM   17  C   UNL     1       3.547   7.071  27.029  0.00  0.00     0.056 C 
HETATM   18  C   UNL     1       3.093   8.293  27.792  0.00  0.00    -0.056 C 
HETATM   19  C   UNL     1       4.706   6.403  27.723  0.00  0.00    -0.020 C 
HETATM   20  C   UNL     1       3.220   8.402  29.126  0.00  0.00    -0.018 C 
HETATM   21  C   UNL     1       3.907   7.326  29.919  0.00  0.00     0.054 C 
HETATM   22  C   UNL     1       4.839   6.494  29.062  0.00  0.00    -0.026 C 
ENDBRANCH  11  12
BRANCH   9  23
HETATM   23  N   UNL     1      -2.320  10.672  24.258  0.00  0.00    -0.271 NA
HETATM   24  H   UNL     1      -2.908  11.205  24.882  0.00  0.00     0.127 HD
HETATM   25  H   UNL     1      -2.446   9.672  24.224  0.00  0.00     0.127 HD
ENDBRANCH   9  23
TORSDOF 2
ENDMDL
MODEL 8
REMARK VINA RESULT:    -9.333      2.848      6.913
REMARK INTER + INTRA:          -9.753
REMARK INTER:                 -10.107
REMARK INTRA:                   0.354
REMARK UNBOUND:                 0.398
REMARK  2 active torsions:
REMARK  status: ('A' for Active; 'I' for Inactive)
REMARK    1  A    between atoms: C_9  and  N_10 
REMARK    2  A    between atoms: C_12  and  C_13 
REMARK       I    between atoms: C_13  and  N_15 
ROOT
HETATM    1  C   UNL     1       1.228  13.756  24.111  0.00  0.00     0.048 C 
HETATM    2  C   UNL     1       2.668  13.340  24.054  0.00  0.00    -0.061 A 
HETATM    3  C   UNL     1       3.050  12.092  23.546  0.00  0.00     0.023 A 
HETATM    4  C   UNL     1       3.659  14.217  24.488  0.00  0.00     0.009 A 
HETATM    5  C   UNL     1       5.002  13.841  24.425  0.00  0.00     0.033 A 
HETATM    6  C   UNL     1       5.397  12.608  23.931  0.00  0.00     0.073 A 
HETATM    7  C   UNL     1       4.424  11.716  23.473  0.00  0.00     0.028 A 
HETATM    8  N   UNL     1       6.705  12.326  23.951  0.00  0.00    -0.218 NA
HETATM    9  C   UNL     1       7.093  11.139  23.500  0.00  0.00     0.200 A 
HETATM   10  N   UNL     1       6.285  10.233  22.976  0.00  0.00    -0.212 NA
HETATM   11  C   UNL     1       4.956  10.505  23.008  0.00  0.00     0.140 A 
ENDROOT
BRANCH  11  12
HETATM   12  C   UNL     1       4.084   9.336  22.594  0.00  0.00     0.273 C 
HETATM   13  O   UNL     1       4.147   8.882  21.454  0.00  0.00    -0.266 OA
HETATM   14  N   UNL     1       3.204   8.820  23.550  0.00  0.00    -0.342 N 
HETATM   15  C   UNL     1       2.307   7.694  23.300  0.00  0.00     0.139 C 
HETATM   16  C   UNL     1       3.026   9.344  24.892  0.00  0.00     0.161 C 
HETATM   17  C   UNL     1       1.089   7.988  24.184  0.00  0.00     0.056 C 
HETATM   18  C   UNL     1       1.694   8.823  25.288  0.00  0.00    -0.056 C 
HETATM   19  C   UNL     1       0.272   6.856  24.752  0.00  0.00    -0.020 C 
HETATM   20  C   UNL     1       1.112   8.963  26.491  0.00  0.00    -0.018 C 
HETATM   21  C   UNL     1      -0.148   8.214  26.824  0.00  0.00     0.054 C 
HETATM   22  C   UNL     1      -0.327   6.987  25.954  0.00  0.00    -0.026 C 
ENDBRANCH  11  12
BRANCH   9  23
HETATM   23  N   UNL     1       8.420  10.801  23.632  0.00  0.00    -0.271 NA
HETATM   24  H   UNL     1       8.687  10.748  24.604  0.00  0.00     0.127 HD
HETATM   25  H   UNL     1       9.001  11.340  23.008  0.00  0.00     0.127 HD
ENDBRANCH   9  23
TORSDOF 2
ENDMDL
MODEL 9
REMARK VINA RESULT:    -9.143      2.631      6.441
REMARK INTER + INTRA:          -9.546
REMARK INTER:                  -9.944
REMARK INTRA:                   0.398
REMARK UNBOUND:                 0.398
REMARK  2 active torsions:
REMARK  status: ('A' for Active; 'I' for Inactive)
REMARK    1  A    between atoms: C_9  and  N_10 
REMARK    2  A    between atoms: C_12  and  C_13 
REMARK       I    between atoms: C_13  and  N_15 
ROOT
HETATM    1  C   UNL     1       4.913  13.884  24.521  0.00  0.00     0.048 C 
HETATM    2  C   UNL     1       3.458  13.540  24.412  0.00  0.00    -0.061 A 
HETATM    3  C   UNL     1       3.026  12.211  24.300  0.00  0.00     0.023 A 
HETATM    4  C   UNL     1       2.501  14.551  24.451  0.00  0.00     0.009 A 
HETATM    5  C   UNL     1       1.145  14.235  24.365  0.00  0.00     0.033 A 
HETATM    6  C   UNL     1       0.701  12.928  24.247  0.00  0.00     0.073 A 
HETATM    7  C   UNL     1       1.639  11.892  24.223  0.00  0.00     0.028 A 
HETATM    8  N   UNL     1      -0.617  12.731  24.129  0.00  0.00    -0.218 NA
HETATM    9  C   UNL     1      -1.052  11.484  23.993  0.00  0.00     0.200 A 
HETATM   10  N   UNL     1      -0.280  10.411  24.026  0.00  0.00    -0.212 NA
HETATM   11  C   UNL     1       1.059  10.621  24.093  0.00  0.00     0.140 A 
ENDROOT
BRANCH  11  12
HETATM   12  C   UNL     1       1.885   9.363  23.905  0.00  0.00     0.273 C 
HETATM   13  O   UNL     1       2.789   9.328  23.075  0.00  0.00    -0.266 OA
HETATM   14  N   UNL     1       1.560   8.257  24.697  0.00  0.00    -0.342 N 
HETATM   15  C   UNL     1       2.269   6.981  24.634  0.00  0.00     0.139 C 
HETATM   16  C   UNL     1       0.466   8.203  25.650  0.00  0.00     0.161 C 
HETATM   17  C   UNL     1       1.192   5.944  24.973  0.00  0.00     0.056 C 
HETATM   18  C   UNL     1       0.233   6.748  25.820  0.00  0.00    -0.056 C 
HETATM   19  C   UNL     1       1.567   4.657  25.661  0.00  0.00    -0.020 C 
HETATM   20  C   UNL     1      -0.631   6.176  26.676  0.00  0.00    -0.018 C 
HETATM   21  C   UNL     1      -0.623   4.689  26.892  0.00  0.00     0.054 C 
HETATM   22  C   UNL     1       0.706   4.066  26.514  0.00  0.00    -0.026 C 
ENDBRANCH  11  12
BRANCH   9  23
HETATM   23  N   UNL     1      -2.392  11.290  23.751  0.00  0.00    -0.271 NA
HETATM   24  H   UNL     1      -2.548  10.437  23.235  0.00  0.00     0.127 HD
HETATM   25  H   UNL     1      -2.832  12.135  23.419  0.00  0.00     0.127 HD
ENDBRANCH   9  23
TORSDOF 2
ENDMDL
