MODEL 1
REMARK VINA RESULT:    -8.238      0.000      0.000
REMARK INTER + INTRA:         -12.577
REMARK INTER:                 -10.540
REMARK INTRA:                  -2.037
REMARK UNBOUND:                -1.449
REMARK  7 active torsions:
REMARK  status: ('A' for Active; 'I' for Inactive)
REMARK    1  A    between atoms: C_7  and  N_8 
REMARK    2  A    between atoms: C_14  and  C_15 
REMARK    3  A    between atoms: C_16  and  O_17 
REMARK    4  A    between atoms: C_19  and  O_20 
REMARK    5  A    between atoms: C_22  and  S_23 
REMARK    6  A    between atoms: S_23  and  N_26 
REMARK    7  A    between atoms: N_26  and  C_28 
ROOT
HETATM    1  C   UNL     1       8.650  14.744  22.913  0.00  0.00     0.047 A 
HETATM    2  C   UNL     1       9.822  15.363  23.385  0.00  0.00     0.082 A 
HETATM    3  C   UNL     1      10.035  15.580  24.745  0.00  0.00     0.075 A 
HETATM    4  C   UNL     1       9.080  15.171  25.671  0.00  0.00     0.091 A 
HETATM    5  C   UNL     1       7.702  14.315  23.857  0.00  0.00     0.046 A 
HETATM    6  C   UNL     1       7.911  14.536  25.237  0.00  0.00     0.108 A 
ENDROOT
BRANCH   1   7
HETATM    7  C   UNL     1       8.518  14.509  21.449  0.00  0.00     0.172 A 
HETATM    8  N   UNL     1       8.607  13.308  20.807  0.00  0.00    -0.243 N 
HETATM    9  C   UNL     1       8.443  13.592  19.460  0.00  0.00     0.349 A 
HETATM   10  O   UNL     1       8.329  12.835  18.511  0.00  0.00    -0.245 OA
HETATM   11  N   UNL     1       8.330  14.974  19.391  0.00  0.00    -0.226 N 
HETATM   12  H   UNL     1       8.165  15.502  18.544  0.00  0.00     0.194 HD
HETATM   13  N   UNL     1       8.351  15.525  20.634  0.00  0.00    -0.151 NA
BRANCH   8  14
HETATM   14  C   UNL     1       8.592  11.981  21.266  0.00  0.00     0.067 A 
HETATM   15  C   UNL     1       7.403  11.425  21.776  0.00  0.00     0.061 A 
HETATM   16 CL   UNL     1       5.871  12.206  21.565  0.00  0.00    -0.082 Cl
HETATM   17  C   UNL     1       7.411  10.172  22.387  0.00  0.00     0.026 A 
HETATM   18  C   UNL     1       8.604   9.458  22.490  0.00  0.00     0.002 A 
HETATM   19  C   UNL     1       9.781   9.984  21.953  0.00  0.00     0.002 A 
HETATM   20  C   UNL     1       9.779  11.239  21.335  0.00  0.00     0.032 A 
ENDBRANCH   8  14
ENDBRANCH   1   7
BRANCH   2  21
HETATM   21  O   UNL     1      10.841  15.793  22.570  0.00  0.00    -0.360 OA
HETATM   22  H   UNL     1      11.158  15.030  22.043  0.00  0.00     0.217 HD
ENDBRANCH   2  21
BRANCH   6  23
HETATM   23  S   UNL     1       6.574  14.150  26.360  0.00  0.00     0.246 S 
HETATM   24  O   UNL     1       6.666  12.774  26.801  0.00  0.00    -0.206 OA
HETATM   25  O   UNL     1       6.567  15.226  27.326  0.00  0.00    -0.206 OA
BRANCH  23  26
HETATM   26  N   UNL     1       5.088  14.266  25.442  0.00  0.00    -0.207 NA
HETATM   27  C   UNL     1       3.999  13.430  26.026  0.00  0.00     0.130 C 
BRANCH  26  28
HETATM   28  C   UNL     1       4.623  15.726  25.296  0.00  0.00     0.065 C 
HETATM   29  C   UNL     1       4.304  16.115  23.849  0.00  0.00     0.027 C 
HETATM   30  C   UNL     1       3.364  16.019  26.125  0.00  0.00     0.027 C 
ENDBRANCH  26  28
ENDBRANCH  23  26
ENDBRANCH   6  23
BRANCH   4  31
HETATM   31  O   UNL     1       9.336  15.387  26.989  0.00  0.00    -0.359 OA
HETATM   32  H   UNL     1      10.252  15.688  27.115  0.00  0.00     0.217 HD
ENDBRANCH   4  31
TORSDOF 7
ENDMDL
MODEL 2
REMARK VINA RESULT:    -7.957      3.383      6.811
REMARK INTER + INTRA:         -12.197
REMARK INTER:                 -10.168
REMARK INTRA:                  -2.029
REMARK UNBOUND:                -1.449
REMARK  7 active torsions:
REMARK  status: ('A' for Active; 'I' for Inactive)
REMARK    1  A    between atoms: C_7  and  N_8 
REMARK    2  A    between atoms: C_14  and  C_15 
REMARK    3  A    between atoms: C_16  and  O_17 
REMARK    4  A    between atoms: C_19  and  O_20 
REMARK    5  A    between atoms: C_22  and  S_23 
REMARK    6  A    between atoms: S_23  and  N_26 
REMARK    7  A    between atoms: N_26  and  C_28 
ROOT
HETATM    1  C   UNL     1       7.604  12.266  23.164  0.00  0.00     0.047 A 
HETATM    2  C   UNL     1       8.530  12.466  22.124  0.00  0.00     0.082 A 
HETATM    3  C   UNL     1       8.328  11.925  20.855  0.00  0.00     0.075 A 
HETATM    4  C   UNL     1       7.183  11.178  20.593  0.00  0.00     0.091 A 
HETATM    5  C   UNL     1       6.441  11.529  22.883  0.00  0.00     0.046 A 
HETATM    6  C   UNL     1       6.233  10.975  21.600  0.00  0.00     0.108 A 
ENDROOT
BRANCH   1   7
HETATM    7  C   UNL     1       7.871  12.913  24.477  0.00  0.00     0.172 A 
HETATM    8  N   UNL     1       7.136  13.906  25.060  0.00  0.00    -0.243 N 
HETATM    9  C   UNL     1       7.780  14.196  26.252  0.00  0.00     0.349 A 
HETATM   10  O   UNL     1       7.438  14.927  27.167  0.00  0.00    -0.245 OA
HETATM   11  N   UNL     1       8.908  13.385  26.264  0.00  0.00    -0.226 N 
HETATM   12  H   UNL     1       9.577  13.332  27.020  0.00  0.00     0.194 HD
HETATM   13  N   UNL     1       8.934  12.578  25.171  0.00  0.00    -0.151 NA
BRANCH   8  14
HETATM   14  C   UNL     1       5.862  14.430  24.788  0.00  0.00     0.067 A 
HETATM   15  C   UNL     1       4.710  13.726  25.187  0.00  0.00     0.061 A 
HETATM   16 CL   UNL     1       4.797  12.390  26.287  0.00  0.00    -0.082 Cl
HETATM   17  C   UNL     1       3.445  14.147  24.780  0.00  0.00     0.026 A 
HETATM   18  C   UNL     1       3.316  15.278  23.976  0.00  0.00     0.002 A 
HETATM   19  C   UNL     1       4.449  16.005  23.606  0.00  0.00     0.002 A 
HETATM   20  C   UNL     1       5.721  15.591  24.015  0.00  0.00     0.032 A 
ENDBRANCH   8  14
ENDBRANCH   1   7
BRANCH   2  21
HETATM   21  O   UNL     1       9.684  13.198  22.257  0.00  0.00    -0.360 OA
HETATM   22  H   UNL     1       9.885  13.287  23.212  0.00  0.00     0.217 HD
ENDBRANCH   2  21
BRANCH   6  23
HETATM   23  S   UNL     1       4.837   9.880  21.375  0.00  0.00     0.246 S 
HETATM   24  O   UNL     1       4.153   9.670  22.634  0.00  0.00    -0.206 OA
HETATM   25  O   UNL     1       4.120  10.408  20.236  0.00  0.00    -0.206 OA
BRANCH  23  26
HETATM   26  N   UNL     1       5.482   8.321  20.908  0.00  0.00    -0.207 NA
HETATM   27  C   UNL     1       5.830   7.480  22.090  0.00  0.00     0.130 C 
BRANCH  26  28
HETATM   28  C   UNL     1       4.519   7.565  19.976  0.00  0.00     0.065 C 
HETATM   29  C   UNL     1       5.205   6.456  19.171  0.00  0.00     0.027 C 
HETATM   30  C   UNL     1       3.364   6.909  20.746  0.00  0.00     0.027 C 
ENDBRANCH  26  28
ENDBRANCH  23  26
ENDBRANCH   6  23
BRANCH   4  31
HETATM   31  O   UNL     1       7.018  10.683  19.337  0.00  0.00    -0.359 OA
HETATM   32  H   UNL     1       7.792  10.158  19.071  0.00  0.00     0.217 HD
ENDBRANCH   4  31
TORSDOF 7
ENDMDL
MODEL 3
REMARK VINA RESULT:    -7.895      3.247      5.704
REMARK INTER + INTRA:         -12.114
REMARK INTER:                  -9.870
REMARK INTRA:                  -2.244
REMARK UNBOUND:                -1.449
REMARK  7 active torsions:
REMARK  status: ('A' for Active; 'I' for Inactive)
REMARK    1  A    between atoms: C_7  and  N_8 
REMARK    2  A    between atoms: C_14  and  C_15 
REMARK    3  A    between atoms: C_16  and  O_17 
REMARK    4  A    between atoms: C_19  and  O_20 
REMARK    5  A    between atoms: C_22  and  S_23 
REMARK    6  A    between atoms: S_23  and  N_26 
REMARK    7  A    between atoms: N_26  and  C_28 
ROOT
HETATM    1  C   UNL     1       6.875  11.924  23.124  0.00  0.00     0.047 A 
HETATM    2  C   UNL     1       6.938  11.487  21.787  0.00  0.00     0.082 A 
HETATM    3  C   UNL     1       5.989  10.613  21.262  0.00  0.00     0.075 A 
HETATM    4  C   UNL     1       4.942  10.163  22.061  0.00  0.00     0.091 A 
HETATM    5  C   UNL     1       5.803  11.481  23.916  0.00  0.00     0.046 A 
HETATM    6  C   UNL     1       4.840  10.592  23.389  0.00  0.00     0.108 A 
ENDROOT
BRANCH   1   7
HETATM    7  C   UNL     1       7.903  12.892  23.596  0.00  0.00     0.172 A 
HETATM    8  N   UNL     1       7.687  14.183  23.987  0.00  0.00    -0.243 N 
HETATM    9  C   UNL     1       8.936  14.686  24.315  0.00  0.00     0.349 A 
HETATM   10  O   UNL     1       9.238  15.753  24.825  0.00  0.00    -0.245 OA
HETATM   11  N   UNL     1       9.829  13.661  24.031  0.00  0.00    -0.226 N 
HETATM   12  H   UNL     1      10.826  13.698  24.194  0.00  0.00     0.194 HD
HETATM   13  N   UNL     1       9.170  12.548  23.613  0.00  0.00    -0.151 NA
BRANCH   8  14
HETATM   14  C   UNL     1       6.521  14.899  24.300  0.00  0.00     0.067 A 
HETATM   15  C   UNL     1       5.995  14.854  25.605  0.00  0.00     0.061 A 
HETATM   16 CL   UNL     1       6.908  14.211  26.930  0.00  0.00    -0.082 Cl
HETATM   17  C   UNL     1       4.754  15.421  25.889  0.00  0.00     0.026 A 
HETATM   18  C   UNL     1       4.025  16.041  24.876  0.00  0.00     0.002 A 
HETATM   19  C   UNL     1       4.555  16.123  23.586  0.00  0.00     0.002 A 
HETATM   20  C   UNL     1       5.802  15.561  23.295  0.00  0.00     0.032 A 
ENDBRANCH   8  14
ENDBRANCH   1   7
BRANCH   2  21
HETATM   21  O   UNL     1       7.911  11.877  20.900  0.00  0.00    -0.360 OA
HETATM   22  H   UNL     1       8.698  12.163  21.410  0.00  0.00     0.217 HD
ENDBRANCH   2  21
BRANCH   6  23
HETATM   23  S   UNL     1       3.625   9.911  24.511  0.00  0.00     0.246 S 
HETATM   24  O   UNL     1       3.399   8.511  24.221  0.00  0.00    -0.206 OA
HETATM   25  O   UNL     1       4.054  10.322  25.829  0.00  0.00    -0.206 OA
BRANCH  23  26
HETATM   26  N   UNL     1       2.111  10.725  24.179  0.00  0.00    -0.207 NA
HETATM   27  C   UNL     1       0.973  10.127  24.935  0.00  0.00     0.130 C 
BRANCH  26  28
HETATM   28  C   UNL     1       2.206  12.236  24.458  0.00  0.00     0.065 C 
HETATM   29  C   UNL     1       2.491  13.065  23.201  0.00  0.00     0.027 C 
HETATM   30  C   UNL     1       0.915  12.792  25.077  0.00  0.00     0.027 C 
ENDBRANCH  26  28
ENDBRANCH  23  26
ENDBRANCH   6  23
BRANCH   4  31
HETATM   31  O   UNL     1       4.027   9.325  21.503  0.00  0.00    -0.359 OA
HETATM   32  H   UNL     1       3.571   9.761  20.763  0.00  0.00     0.217 HD
ENDBRANCH   4  31
TORSDOF 7
ENDMDL
MODEL 4
REMARK VINA RESULT:    -7.760      3.091      6.168
REMARK INTER + INTRA:         -11.931
REMARK INTER:                  -9.955
REMARK INTRA:                  -1.976
REMARK UNBOUND:                -1.449
REMARK  7 active torsions:
REMARK  status: ('A' for Active; 'I' for Inactive)
REMARK    1  A    between atoms: C_7  and  N_8 
REMARK    2  A    between atoms: C_14  and  C_15 
REMARK    3  A    between atoms: C_16  and  O_17 
REMARK    4  A    between atoms: C_19  and  O_20 
REMARK    5  A    between atoms: C_22  and  S_23 
REMARK    6  A    between atoms: S_23  and  N_26 
REMARK    7  A    between atoms: N_26  and  C_28 
ROOT
HETATM    1  C   UNL     1       8.265  12.571  22.161  0.00  0.00     0.047 A 
HETATM    2  C   UNL     1       8.580  12.669  20.793  0.00  0.00     0.082 A 
HETATM    3  C   UNL     1       7.953  11.866  19.842  0.00  0.00     0.075 A 
HETATM    4  C   UNL     1       6.983  10.950  20.238  0.00  0.00     0.091 A 
HETATM    5  C   UNL     1       7.270  11.659  22.547  0.00  0.00     0.046 A 
HETATM    6  C   UNL     1       6.633  10.840  21.588  0.00  0.00     0.108 A 
ENDROOT
BRANCH   1   7
HETATM    7  C   UNL     1       8.948  13.495  23.107  0.00  0.00     0.172 A 
HETATM    8  N   UNL     1       8.365  14.497  23.829  0.00  0.00    -0.243 N 
HETATM    9  C   UNL     1       9.395  15.090  24.542  0.00  0.00     0.349 A 
HETATM   10  O   UNL     1       9.352  15.948  25.409  0.00  0.00    -0.245 OA
HETATM   11  N   UNL     1      10.547  14.428  24.137  0.00  0.00    -0.226 N 
HETATM   12  H   UNL     1      11.475  14.602  24.500  0.00  0.00     0.194 HD
HETATM   13  N   UNL     1      10.249  13.426  23.270  0.00  0.00    -0.151 NA
BRANCH   8  14
HETATM   14  C   UNL     1       7.026  14.812  24.110  0.00  0.00     0.067 A 
HETATM   15  C   UNL     1       6.383  14.231  25.219  0.00  0.00     0.061 A 
HETATM   16 CL   UNL     1       7.271  13.388  26.445  0.00  0.00    -0.082 Cl
HETATM   17  C   UNL     1       5.013  14.402  25.414  0.00  0.00     0.026 A 
HETATM   18  C   UNL     1       4.272  15.158  24.508  0.00  0.00     0.002 A 
HETATM   19  C   UNL     1       4.907  15.770  23.425  0.00  0.00     0.002 A 
HETATM   20  C   UNL     1       6.282  15.606  23.226  0.00  0.00     0.032 A 
ENDBRANCH   8  14
ENDBRANCH   1   7
BRANCH   2  21
HETATM   21  O   UNL     1       9.504  13.547  20.281  0.00  0.00    -0.360 OA
HETATM   22  H   UNL     1       9.608  14.289  20.913  0.00  0.00     0.217 HD
ENDBRANCH   2  21
BRANCH   6  23
HETATM   23  S   UNL     1       5.528   9.562  22.177  0.00  0.00     0.246 S 
HETATM   24  O   UNL     1       4.182  10.079  22.304  0.00  0.00    -0.206 OA
HETATM   25  O   UNL     1       5.792   8.416  21.336  0.00  0.00    -0.206 OA
BRANCH  23  26
HETATM   26  N   UNL     1       6.045   9.149  23.797  0.00  0.00    -0.207 NA
HETATM   27  C   UNL     1       4.955   8.508  24.589  0.00  0.00     0.130 C 
BRANCH  26  28
HETATM   28  C   UNL     1       7.295   8.252  23.783  0.00  0.00     0.065 C 
HETATM   29  C   UNL     1       8.457   8.824  24.601  0.00  0.00     0.027 C 
HETATM   30  C   UNL     1       7.008   6.848  24.336  0.00  0.00     0.027 C 
ENDBRANCH  26  28
ENDBRANCH  23  26
ENDBRANCH   6  23
BRANCH   4  31
HETATM   31  O   UNL     1       6.384  10.198  19.275  0.00  0.00    -0.359 OA
HETATM   32  H   UNL     1       5.418  10.303  19.312  0.00  0.00     0.217 HD
ENDBRANCH   4  31
TORSDOF 7
ENDMDL
MODEL 5
REMARK VINA RESULT:    -7.639      5.092      8.390
REMARK INTER + INTRA:         -11.768
REMARK INTER:                 -10.029
REMARK INTRA:                  -1.739
REMARK UNBOUND:                -1.449
REMARK  7 active torsions:
REMARK  status: ('A' for Active; 'I' for Inactive)
REMARK    1  A    between atoms: C_7  and  N_8 
REMARK    2  A    between atoms: C_14  and  C_15 
REMARK    3  A    between atoms: C_16  and  O_17 
REMARK    4  A    between atoms: C_19  and  O_20 
REMARK    5  A    between atoms: C_22  and  S_23 
REMARK    6  A    between atoms: S_23  and  N_26 
REMARK    7  A    between atoms: N_26  and  C_28 
ROOT
HETATM    1  C   UNL     1       1.315  12.801  24.334  0.00  0.00     0.047 A 
HETATM    2  C   UNL     1       1.358  13.697  25.418  0.00  0.00     0.082 A 
HETATM    3  C   UNL     1       2.566  14.082  25.997  0.00  0.00     0.075 A 
HETATM    4  C   UNL     1       3.766  13.587  25.494  0.00  0.00     0.091 A 
HETATM    5  C   UNL     1       2.532  12.324  23.820  0.00  0.00     0.046 A 
HETATM    6  C   UNL     1       3.759  12.709  24.405  0.00  0.00     0.108 A 
ENDROOT
BRANCH   1   7
HETATM    7  C   UNL     1      -0.012  12.474  23.744  0.00  0.00     0.172 A 
HETATM    8  N   UNL     1      -0.931  11.597  24.245  0.00  0.00    -0.243 N 
HETATM    9  C   UNL     1      -1.987  11.611  23.348  0.00  0.00     0.349 A 
HETATM   10  O   UNL     1      -3.084  11.083  23.424  0.00  0.00    -0.245 OA
HETATM   11  N   UNL     1      -1.587  12.463  22.326  0.00  0.00    -0.226 N 
HETATM   12  H   UNL     1      -2.151  12.717  21.526  0.00  0.00     0.194 HD
HETATM   13  N   UNL     1      -0.373  13.010  22.601  0.00  0.00    -0.151 NA
BRANCH   8  14
HETATM   14  C   UNL     1      -1.057  10.959  25.489  0.00  0.00     0.067 A 
HETATM   15  C   UNL     1      -0.474   9.695  25.696  0.00  0.00     0.061 A 
HETATM   16 CL   UNL     1       0.671   9.029  24.579  0.00  0.00    -0.082 Cl
HETATM   17  C   UNL     1      -0.730   8.978  26.864  0.00  0.00     0.026 A 
HETATM   18  C   UNL     1      -1.565   9.517  27.840  0.00  0.00     0.002 A 
HETATM   19  C   UNL     1      -2.119  10.787  27.661  0.00  0.00     0.002 A 
HETATM   20  C   UNL     1      -1.863  11.513  26.494  0.00  0.00     0.032 A 
ENDBRANCH   8  14
ENDBRANCH   1   7
BRANCH   2  21
HETATM   21  O   UNL     1       0.244  14.264  25.987  0.00  0.00    -0.360 OA
HETATM   22  H   UNL     1       0.336  15.239  25.941  0.00  0.00     0.217 HD
ENDBRANCH   2  21
BRANCH   6  23
HETATM   23  S   UNL     1       5.250  11.903  23.832  0.00  0.00     0.246 S 
HETATM   24  O   UNL     1       5.699  10.924  24.799  0.00  0.00    -0.206 OA
HETATM   25  O   UNL     1       4.967  11.506  22.471  0.00  0.00    -0.206 OA
BRANCH  23  26
HETATM   26  N   UNL     1       6.499  13.129  23.768  0.00  0.00    -0.207 NA
HETATM   27  C   UNL     1       7.863  12.536  23.662  0.00  0.00     0.130 C 
BRANCH  26  28
HETATM   28  C   UNL     1       6.257  14.126  22.621  0.00  0.00     0.065 C 
HETATM   29  C   UNL     1       5.849  15.520  23.110  0.00  0.00     0.027 C 
HETATM   30  C   UNL     1       7.501  14.309  21.740  0.00  0.00     0.027 C 
ENDBRANCH  26  28
ENDBRANCH  23  26
ENDBRANCH   6  23
BRANCH   4  31
HETATM   31  O   UNL     1       4.922  14.002  26.077  0.00  0.00    -0.359 OA
HETATM   32  H   UNL     1       5.112  13.476  26.873  0.00  0.00     0.217 HD
ENDBRANCH   4  31
TORSDOF 7
ENDMDL
MODEL 6
REMARK VINA RESULT:    -7.630      2.538      4.367
REMARK INTER + INTRA:         -11.756
REMARK INTER:                  -9.781
REMARK INTRA:                  -1.975
REMARK UNBOUND:                -1.449
REMARK  7 active torsions:
REMARK  status: ('A' for Active; 'I' for Inactive)
REMARK    1  A    between atoms: C_7  and  N_8 
REMARK    2  A    between atoms: C_14  and  C_15 
REMARK    3  A    between atoms: C_16  and  O_17 
REMARK    4  A    between atoms: C_19  and  O_20 
REMARK    5  A    between atoms: C_22  and  S_23 
REMARK    6  A    between atoms: S_23  and  N_26 
REMARK    7  A    between atoms: N_26  and  C_28 
ROOT
HETATM    1  C   UNL     1       6.843  12.604  21.568  0.00  0.00     0.047 A 
HETATM    2  C   UNL     1       6.840  11.310  21.014  0.00  0.00     0.082 A 
HETATM    3  C   UNL     1       5.869  10.372  21.362  0.00  0.00     0.075 A 
HETATM    4  C   UNL     1       4.868  10.711  22.267  0.00  0.00     0.091 A 
HETATM    5  C   UNL     1       5.816  12.943  22.464  0.00  0.00     0.046 A 
HETATM    6  C   UNL     1       4.832  11.995  22.822  0.00  0.00     0.108 A 
ENDROOT
BRANCH   1   7
HETATM    7  C   UNL     1       7.888  13.561  21.112  0.00  0.00     0.172 A 
HETATM    8  N   UNL     1       8.808  14.196  21.895  0.00  0.00    -0.243 N 
HETATM    9  C   UNL     1       9.543  14.995  21.034  0.00  0.00     0.349 A 
HETATM   10  O   UNL     1      10.546  15.657  21.248  0.00  0.00    -0.245 OA
HETATM   11  N   UNL     1       8.956  14.824  19.788  0.00  0.00    -0.226 N 
HETATM   12  H   UNL     1       9.281  15.247  18.929  0.00  0.00     0.194 HD
HETATM   13  N   UNL     1       7.950  13.912  19.848  0.00  0.00    -0.151 NA
BRANCH   8  14
HETATM   14  C   UNL     1       9.226  13.998  23.221  0.00  0.00     0.067 A 
HETATM   15  C   UNL     1       9.906  12.818  23.577  0.00  0.00     0.061 A 
HETATM   16 CL   UNL     1      10.538  11.737  22.380  0.00  0.00    -0.082 Cl
HETATM   17  C   UNL     1      10.179  12.533  24.914  0.00  0.00     0.026 A 
HETATM   18  C   UNL     1       9.780  13.423  25.909  0.00  0.00     0.002 A 
HETATM   19  C   UNL     1       9.138  14.614  25.564  0.00  0.00     0.002 A 
HETATM   20  C   UNL     1       8.866  14.909  24.224  0.00  0.00     0.032 A 
ENDBRANCH   8  14
ENDBRANCH   1   7
BRANCH   2  21
HETATM   21  O   UNL     1       7.763  10.866  20.100  0.00  0.00    -0.360 OA
HETATM   22  H   UNL     1       7.725  11.450  19.314  0.00  0.00     0.217 HD
ENDBRANCH   2  21
BRANCH   6  23
HETATM   23  S   UNL     1       3.681  12.432  24.120  0.00  0.00     0.246 S 
HETATM   24  O   UNL     1       2.466  11.654  23.999  0.00  0.00    -0.206 OA
HETATM   25  O   UNL     1       4.453  12.391  25.341  0.00  0.00    -0.206 OA
BRANCH  23  26
HETATM   26  N   UNL     1       3.218  14.098  23.851  0.00  0.00    -0.207 NA
HETATM   27  C   UNL     1       1.795  14.353  24.219  0.00  0.00     0.130 C 
BRANCH  26  28
HETATM   28  C   UNL     1       4.147  15.073  24.597  0.00  0.00     0.065 C 
HETATM   29  C   UNL     1       4.778  16.126  23.679  0.00  0.00     0.027 C 
HETATM   30  C   UNL     1       3.415  15.833  25.712  0.00  0.00     0.027 C 
ENDBRANCH  26  28
ENDBRANCH  23  26
ENDBRANCH   6  23
BRANCH   4  31
HETATM   31  O   UNL     1       3.931   9.772  22.565  0.00  0.00    -0.359 OA
HETATM   32  H   UNL     1       3.348  10.084  23.278  0.00  0.00     0.217 HD
ENDBRANCH   4  31
TORSDOF 7
ENDMDL
MODEL 7
REMARK VINA RESULT:    -7.551      2.579      5.590
REMARK INTER + INTRA:         -11.649
REMARK INTER:                  -9.314
REMARK INTRA:                  -2.335
REMARK UNBOUND:                -1.449
REMARK  7 active torsions:
REMARK  status: ('A' for Active; 'I' for Inactive)
REMARK    1  A    between atoms: C_7  and  N_8 
REMARK    2  A    between atoms: C_14  and  C_15 
REMARK    3  A    between atoms: C_16  and  O_17 
REMARK    4  A    between atoms: C_19  and  O_20 
REMARK    5  A    between atoms: C_22  and  S_23 
REMARK    6  A    between atoms: S_23  and  N_26 
REMARK    7  A    between atoms: N_26  and  C_28 
ROOT
HETATM    1  C   UNL     1       6.636  14.822  23.504  0.00  0.00     0.047 A 
HETATM    2  C   UNL     1       7.468  14.929  24.634  0.00  0.00     0.082 A 
HETATM    3  C   UNL     1       8.856  14.956  24.515  0.00  0.00     0.075 A 
HETATM    4  C   UNL     1       9.447  14.889  23.256  0.00  0.00     0.091 A 
HETATM    5  C   UNL     1       7.241  14.777  22.237  0.00  0.00     0.046 A 
HETATM    6  C   UNL     1       8.648  14.801  22.111  0.00  0.00     0.108 A 
ENDROOT
BRANCH   1   7
HETATM    7  C   UNL     1       5.162  14.844  23.712  0.00  0.00     0.172 A 
HETATM    8  N   UNL     1       4.303  13.794  23.560  0.00  0.00    -0.243 N 
HETATM    9  C   UNL     1       3.043  14.299  23.839  0.00  0.00     0.349 A 
HETATM   10  O   UNL     1       1.975  13.719  23.948  0.00  0.00    -0.245 OA
HETATM   11  N   UNL     1       3.238  15.653  24.078  0.00  0.00    -0.226 N 
HETATM   12  H   UNL     1       2.514  16.307  24.346  0.00  0.00     0.194 HD
HETATM   13  N   UNL     1       4.559  15.969  24.023  0.00  0.00    -0.151 NA
BRANCH   8  14
HETATM   14  C   UNL     1       4.506  12.411  23.426  0.00  0.00     0.067 A 
HETATM   15  C   UNL     1       4.915  11.648  24.536  0.00  0.00     0.061 A 
HETATM   16 CL   UNL     1       4.867  12.288  26.146  0.00  0.00    -0.082 Cl
HETATM   17  C   UNL     1       5.281  10.312  24.382  0.00  0.00     0.026 A 
HETATM   18  C   UNL     1       5.238   9.721  23.121  0.00  0.00     0.002 A 
HETATM   19  C   UNL     1       4.798  10.459  22.019  0.00  0.00     0.002 A 
HETATM   20  C   UNL     1       4.425  11.799  22.168  0.00  0.00     0.032 A 
ENDBRANCH   8  14
ENDBRANCH   1   7
BRANCH   2  21
HETATM   21  O   UNL     1       7.002  15.021  25.922  0.00  0.00    -0.360 OA
HETATM   22  H   UNL     1       7.472  15.754  26.369  0.00  0.00     0.217 HD
ENDBRANCH   2  21
BRANCH   6  23
HETATM   23  S   UNL     1       9.349  14.533  20.488  0.00  0.00     0.246 S 
HETATM   24  O   UNL     1       8.409  14.928  19.460  0.00  0.00    -0.206 OA
HETATM   25  O   UNL     1      10.665  15.129  20.540  0.00  0.00    -0.206 OA
BRANCH  23  26
HETATM   26  N   UNL     1       9.567  12.805  20.306  0.00  0.00    -0.207 NA
HETATM   27  C   UNL     1      10.867  12.340  20.871  0.00  0.00     0.130 C 
BRANCH  26  28
HETATM   28  C   UNL     1       8.400  12.017  20.927  0.00  0.00     0.065 C 
HETATM   29  C   UNL     1       7.575  11.245  19.892  0.00  0.00     0.027 C 
HETATM   30  C   UNL     1       8.879  10.996  21.968  0.00  0.00     0.027 C 
ENDBRANCH  26  28
ENDBRANCH  23  26
ENDBRANCH   6  23
BRANCH   4  31
HETATM   31  O   UNL     1      10.805  14.936  23.185  0.00  0.00    -0.359 OA
HETATM   32  H   UNL     1      11.089  15.537  22.475  0.00  0.00     0.217 HD
ENDBRANCH   4  31
TORSDOF 7
ENDMDL
MODEL 8
REMARK VINA RESULT:    -7.541      2.809      6.364
REMARK INTER + INTRA:         -11.636
REMARK INTER:                 -10.186
REMARK INTRA:                  -1.449
REMARK UNBOUND:                -1.449
REMARK  7 active torsions:
REMARK  status: ('A' for Active; 'I' for Inactive)
REMARK    1  A    between atoms: C_7  and  N_8 
REMARK    2  A    between atoms: C_14  and  C_15 
REMARK    3  A    between atoms: C_16  and  O_17 
REMARK    4  A    between atoms: C_19  and  O_20 
REMARK    5  A    between atoms: C_22  and  S_23 
REMARK    6  A    between atoms: S_23  and  N_26 
REMARK    7  A    between atoms: N_26  and  C_28 
ROOT
HETATM    1  C   UNL     1       6.266  11.839  21.723  0.00  0.00     0.047 A 
HETATM    2  C   UNL     1       6.758  10.967  20.734  0.00  0.00     0.082 A 
HETATM    3  C   UNL     1       7.863  11.301  19.954  0.00  0.00     0.075 A 
HETATM    4  C   UNL     1       8.514  12.515  20.154  0.00  0.00     0.091 A 
HETATM    5  C   UNL     1       6.942  13.052  21.932  0.00  0.00     0.046 A 
HETATM    6  C   UNL     1       8.062  13.396  21.142  0.00  0.00     0.108 A 
ENDROOT
BRANCH   1   7
HETATM    7  C   UNL     1       5.108  11.390  22.543  0.00  0.00     0.172 A 
HETATM    8  N   UNL     1       4.518  12.078  23.564  0.00  0.00    -0.243 N 
HETATM    9  C   UNL     1       3.506  11.255  24.033  0.00  0.00     0.349 A 
HETATM   10  O   UNL     1       2.634  11.481  24.856  0.00  0.00    -0.245 OA
HETATM   11  N   UNL     1       3.610  10.089  23.287  0.00  0.00    -0.226 N 
HETATM   12  H   UNL     1       2.990   9.294  23.362  0.00  0.00     0.194 HD
HETATM   13  N   UNL     1       4.589  10.199  22.351  0.00  0.00    -0.151 NA
BRANCH   8  14
HETATM   14  C   UNL     1       4.608  13.414  23.987  0.00  0.00     0.067 A 
HETATM   15  C   UNL     1       5.377  13.746  25.118  0.00  0.00     0.061 A 
HETATM   16 CL   UNL     1       6.484  12.615  25.827  0.00  0.00    -0.082 Cl
HETATM   17  C   UNL     1       5.343  15.035  25.646  0.00  0.00     0.026 A 
HETATM   18  C   UNL     1       4.545  16.009  25.049  0.00  0.00     0.002 A 
HETATM   19  C   UNL     1       3.807  15.700  23.904  0.00  0.00     0.002 A 
HETATM   20  C   UNL     1       3.841  14.410  23.366  0.00  0.00     0.032 A 
ENDBRANCH   8  14
ENDBRANCH   1   7
BRANCH   2  21
HETATM   21  O   UNL     1       6.212   9.737  20.458  0.00  0.00    -0.360 OA
HETATM   22  H   UNL     1       6.072   9.671  19.491  0.00  0.00     0.217 HD
ENDBRANCH   2  21
BRANCH   6  23
HETATM   23  S   UNL     1       8.743  15.040  21.324  0.00  0.00     0.246 S 
HETATM   24  O   UNL     1       9.506  15.404  20.149  0.00  0.00    -0.206 OA
HETATM   25  O   UNL     1       7.636  15.864  21.757  0.00  0.00    -0.206 OA
BRANCH  23  26
HETATM   26  N   UNL     1       9.890  14.973  22.644  0.00  0.00    -0.207 NA
HETATM   27  C   UNL     1      10.530  16.296  22.902  0.00  0.00     0.130 C 
BRANCH  26  28
HETATM   28  C   UNL     1       9.243  14.431  23.932  0.00  0.00     0.065 C 
HETATM   29  C   UNL     1       9.864  13.115  24.411  0.00  0.00     0.027 C 
HETATM   30  C   UNL     1       9.350  15.426  25.096  0.00  0.00     0.027 C 
ENDBRANCH  26  28
ENDBRANCH  23  26
ENDBRANCH   6  23
BRANCH   4  31
HETATM   31  O   UNL     1       9.599  12.793  19.383  0.00  0.00    -0.359 OA
HETATM   32  H   UNL     1       9.887  11.999  18.900  0.00  0.00     0.217 HD
ENDBRANCH   4  31
TORSDOF 7
ENDMDL
MODEL 9
REMARK VINA RESULT:    -7.508      2.957      6.600
REMARK INTER + INTRA:         -11.591
REMARK INTER:                  -9.137
REMARK INTRA:                  -2.454
REMARK UNBOUND:                -1.449
REMARK  7 active torsions:
REMARK  status: ('A' for Active; 'I' for Inactive)
REMARK    1  A    between atoms: C_7  and  N_8 
REMARK    2  A    between atoms: C_14  and  C_15 
REMARK    3  A    between atoms: C_16  and  O_17 
REMARK    4  A    between atoms: C_19  and  O_20 
REMARK    5  A    between atoms: C_22  and  S_23 
REMARK    6  A    between atoms: S_23  and  N_26 
REMARK    7  A    between atoms: N_26  and  C_28 
ROOT
HETATM    1  C   UNL     1       4.971  12.178  22.297  0.00  0.00     0.047 A 
HETATM    2  C   UNL     1       5.041  10.857  21.815  0.00  0.00     0.082 A 
HETATM    3  C   UNL     1       6.159  10.392  21.125  0.00  0.00     0.075 A 
HETATM    4  C   UNL     1       7.244  11.237  20.911  0.00  0.00     0.091 A 
HETATM    5  C   UNL     1       6.079  13.016  22.094  0.00  0.00     0.046 A 
HETATM    6  C   UNL     1       7.214  12.550  21.393  0.00  0.00     0.108 A 
ENDROOT
BRANCH   1   7
HETATM    7  C   UNL     1       3.760  12.584  23.062  0.00  0.00     0.172 A 
HETATM    8  N   UNL     1       3.718  12.984  24.367  0.00  0.00    -0.243 N 
HETATM    9  C   UNL     1       2.382  13.234  24.637  0.00  0.00     0.349 A 
HETATM   10  O   UNL     1       1.864  13.722  25.628  0.00  0.00    -0.245 OA
HETATM   11  N   UNL     1       1.705  12.898  23.472  0.00  0.00    -0.226 N 
HETATM   12  H   UNL     1       0.709  12.999  23.329  0.00  0.00     0.194 HD
HETATM   13  N   UNL     1       2.576  12.523  22.498  0.00  0.00    -0.151 NA
BRANCH   8  14
HETATM   14  C   UNL     1       4.717  13.366  25.277  0.00  0.00     0.067 A 
HETATM   15  C   UNL     1       5.234  14.675  25.247  0.00  0.00     0.061 A 
HETATM   16 CL   UNL     1       4.461  15.937  24.344  0.00  0.00    -0.082 Cl
HETATM   17  C   UNL     1       6.336  15.021  26.027  0.00  0.00     0.026 A 
HETATM   18  C   UNL     1       6.932  14.065  26.848  0.00  0.00     0.002 A 
HETATM   19  C   UNL     1       6.403  12.774  26.914  0.00  0.00     0.002 A 
HETATM   20  C   UNL     1       5.294  12.422  26.137  0.00  0.00     0.032 A 
ENDBRANCH   8  14
ENDBRANCH   1   7
BRANCH   2  21
HETATM   21  O   UNL     1       4.043   9.928  21.981  0.00  0.00    -0.360 OA
HETATM   22  H   UNL     1       3.740   9.638  21.096  0.00  0.00     0.217 HD
ENDBRANCH   2  21
BRANCH   6  23
HETATM   23  S   UNL     1       8.497  13.732  20.995  0.00  0.00     0.246 S 
HETATM   24  O   UNL     1       9.123  13.392  19.734  0.00  0.00    -0.206 OA
HETATM   25  O   UNL     1       7.887  15.030  21.178  0.00  0.00    -0.206 OA
BRANCH  23  26
HETATM   26  N   UNL     1       9.741  13.564  22.214  0.00  0.00    -0.207 NA
HETATM   27  C   UNL     1      10.870  14.514  22.001  0.00  0.00     0.130 C 
BRANCH  26  28
HETATM   28  C   UNL     1       9.169  13.722  23.634  0.00  0.00     0.065 C 
HETATM   29  C   UNL     1       9.360  12.475  24.504  0.00  0.00     0.027 C 
HETATM   30  C   UNL     1       9.809  14.895  24.389  0.00  0.00     0.027 C 
ENDBRANCH  26  28
ENDBRANCH  23  26
ENDBRANCH   6  23
BRANCH   4  31
HETATM   31  O   UNL     1       8.321  10.737  20.248  0.00  0.00    -0.359 OA
HETATM   32  H   UNL     1       8.137   9.839  19.926  0.00  0.00     0.217 HD
ENDBRANCH   4  31
TORSDOF 7
ENDMDL
