REMARK  7 active torsions:
REMARK  status: ('A' for Active; 'I' for Inactive)
REMARK    1  A    between atoms: C_7  and  N_8 
REMARK    2  A    between atoms: C_14  and  C_15 
REMARK    3  A    between atoms: C_16  and  O_17 
REMARK    4  A    between atoms: C_19  and  O_20 
REMARK    5  A    between atoms: C_22  and  S_23 
REMARK    6  A    between atoms: S_23  and  N_26 
REMARK    7  A    between atoms: N_26  and  C_28 
ROOT
HETATM    1  C   UNL     1       0.644  -1.389  -0.533  0.00  0.00     0.047 A 
HETATM    2  C   UNL     1      -0.702  -1.706  -0.795  0.00  0.00     0.082 A 
HETATM    3  C   UNL     1      -1.644  -0.715  -1.064  0.00  0.00     0.075 A 
HETATM    4  C   UNL     1      -1.258   0.622  -1.089  0.00  0.00     0.091 A 
HETATM    5  C   UNL     1       1.028  -0.039  -0.582  0.00  0.00     0.046 A 
HETATM    6  C   UNL     1       0.076   0.970  -0.851  0.00  0.00     0.108 A 
ENDROOT
BRANCH   1   7
HETATM    7  C   UNL     1       1.597  -2.508  -0.298  0.00  0.00     0.172 A 
HETATM    8  N   UNL     1       2.825  -2.421   0.293  0.00  0.00    -0.243 N 
HETATM    9  C   UNL     1       3.343  -3.706   0.267  0.00  0.00     0.349 A 
HETATM   10  O   UNL     1       4.358  -4.149   0.779  0.00  0.00    -0.245 OA
HETATM   11  N   UNL     1       2.397  -4.467  -0.407  0.00  0.00    -0.226 N 
HETATM   12  H   UNL     1       2.459  -5.464  -0.566  0.00  0.00     0.194 HD
HETATM   13  N   UNL     1       1.310  -3.716  -0.726  0.00  0.00    -0.151 NA
BRANCH   8  14
HETATM   14  C   UNL     1       3.449  -1.412   1.044  0.00  0.00     0.067 A 
HETATM   15  C   UNL     1       4.754  -0.996   0.719  0.00  0.00     0.061 A 
HETATM   16 CL   UNL     1       5.507  -1.451  -0.774  0.00  0.00    -0.082 Cl
HETATM   17  C   UNL     1       5.447  -0.119   1.552  0.00  0.00     0.026 A 
HETATM   18  C   UNL     1       4.844   0.356   2.715  0.00  0.00     0.002 A 
HETATM   19  C   UNL     1       3.536  -0.021   3.027  0.00  0.00     0.002 A 
HETATM   20  C   UNL     1       2.833  -0.897   2.193  0.00  0.00     0.032 A 
ENDBRANCH   8  14
ENDBRANCH   1   7
BRANCH   2  21
HETATM   21  O   UNL     1      -1.196  -2.987  -0.816  0.00  0.00    -0.360 OA
HETATM   22  H   UNL     1      -0.440  -3.610  -0.823  0.00  0.00     0.217 HD
ENDBRANCH   2  21
BRANCH   6  23
HETATM   23  S   UNL     1       0.594   2.675  -0.694  0.00  0.00     0.246 S 
HETATM   24  O   UNL     1      -0.538   3.563  -0.854  0.00  0.00    -0.206 OA
HETATM   25  O   UNL     1       1.390   2.720   0.512  0.00  0.00    -0.206 OA
BRANCH  23  26
HETATM   26  N   UNL     1       1.665   3.008  -2.038  0.00  0.00    -0.207 NA
HETATM   27  C   UNL     1       1.112   2.516  -3.333  0.00  0.00     0.130 C 
BRANCH  26  28
HETATM   28  C   UNL     1       2.005   4.506  -2.135  0.00  0.00     0.065 C 
HETATM   29  C   UNL     1       2.593   5.076  -0.840  0.00  0.00     0.027 C 
HETATM   30  C   UNL     1       3.017   4.799  -3.252  0.00  0.00     0.027 C 
ENDBRANCH  26  28
ENDBRANCH  23  26
ENDBRANCH   6  23
BRANCH   4  31
HETATM   31  O   UNL     1      -2.206   1.555  -1.373  0.00  0.00    -0.359 OA
HETATM   32  H   UNL     1      -3.090   1.150  -1.390  0.00  0.00     0.217 HD
ENDBRANCH   4  31
TORSDOF 7
