MODEL 1
REMARK VINA RESULT:    -7.630      0.000      0.000
REMARK INTER + INTRA:          -9.008
REMARK INTER:                  -8.634
REMARK INTRA:                  -0.374
REMARK UNBOUND:                -0.486
REMARK  3 active torsions:
REMARK  status: ('A' for Active; 'I' for Inactive)
REMARK    1  A    between atoms: C_7  and  N_8 
REMARK    2  A    between atoms: C_10  and  C_11 
REMARK       I    between atoms: C_11  and  N_13 
REMARK    3  A    between atoms: C_18  and  O_19 
ROOT
HETATM    1  C   UNL     1       1.883  14.522  24.038  0.00  0.00     0.048 C 
HETATM    2  C   UNL     1       3.345  14.562  23.702  0.00  0.00    -0.061 A 
HETATM    3  C   UNL     1       4.045  15.762  23.652  0.00  0.00     0.009 A 
HETATM    4  C   UNL     1       5.406  15.759  23.334  0.00  0.00     0.033 A 
HETATM    5  C   UNL     1       6.103  14.589  23.051  0.00  0.00     0.073 A 
HETATM    6  N   UNL     1       7.396  14.689  22.725  0.00  0.00    -0.218 NA
HETATM    7  C   UNL     1       8.057  13.574  22.418  0.00  0.00     0.200 A 
HETATM    8  N   UNL     1       7.548  12.348  22.443  0.00  0.00    -0.212 NA
HETATM    9  C   UNL     1       6.243  12.259  22.800  0.00  0.00     0.140 A 
HETATM   10  C   UNL     1       5.430  13.369  23.111  0.00  0.00     0.028 A 
HETATM   11  C   UNL     1       4.041  13.375  23.447  0.00  0.00     0.023 A 
ENDROOT
BRANCH   9  12
HETATM   12  C   UNL     1       5.701  10.863  22.923  0.00  0.00     0.274 C 
HETATM   13  O   UNL     1       5.552  10.382  24.049  0.00  0.00    -0.266 OA
HETATM   14  N   UNL     1       5.358  10.112  21.807  0.00  0.00    -0.338 N 
HETATM   15  C   UNL     1       5.498  10.423  20.377  0.00  0.00     0.165 A 
HETATM   16  C   UNL     1       4.720   8.819  22.032  0.00  0.00     0.165 A 
HETATM   17  C   UNL     1       4.930   9.204  19.700  0.00  0.00    -0.032 A 
HETATM   18  C   UNL     1       4.818   8.906  18.350  0.00  0.00     0.012 A 
HETATM   19  C   UNL     1       4.488   8.287  20.661  0.00  0.00    -0.030 A 
HETATM   20  C   UNL     1       4.258   7.674  17.978  0.00  0.00     0.037 A 
HETATM   21  C   UNL     1       3.821   6.772  18.958  0.00  0.00     0.066 A 
HETATM   22  C   UNL     1       3.929   7.070  20.309  0.00  0.00     0.046 A 
BRANCH  21  23
HETATM   23  O   UNL     1       3.276   5.565  18.626  0.00  0.00    -0.361 OA
HETATM   24  H   UNL     1       2.587   5.706  17.957  0.00  0.00     0.217 HD
ENDBRANCH  21  23
ENDBRANCH   9  12
BRANCH   7  25
HETATM   25  N   UNL     1       9.387  13.718  22.080  0.00  0.00    -0.271 NA
HETATM   26  H   UNL     1       9.571  14.685  21.844  0.00  0.00     0.127 HD
HETATM   27  H   UNL     1       9.976  13.298  22.784  0.00  0.00     0.127 HD
ENDBRANCH   7  25
TORSDOF 3
ENDMDL
MODEL 2
REMARK VINA RESULT:    -7.607      6.935      8.515
REMARK INTER + INTRA:          -8.982
REMARK INTER:                  -8.562
REMARK INTRA:                  -0.420
REMARK UNBOUND:                -0.486
REMARK  3 active torsions:
REMARK  status: ('A' for Active; 'I' for Inactive)
REMARK    1  A    between atoms: C_7  and  N_8 
REMARK    2  A    between atoms: C_10  and  C_11 
REMARK       I    between atoms: C_11  and  N_13 
REMARK    3  A    between atoms: C_18  and  O_19 
ROOT
HETATM    1  C   UNL     1       2.402  14.585  26.597  0.00  0.00     0.048 C 
HETATM    2  C   UNL     1       1.525  14.145  25.462  0.00  0.00    -0.061 A 
HETATM    3  C   UNL     1       1.791  14.523  24.151  0.00  0.00     0.009 A 
HETATM    4  C   UNL     1       0.949  14.096  23.120  0.00  0.00     0.033 A 
HETATM    5  C   UNL     1      -0.169  13.302  23.352  0.00  0.00     0.073 A 
HETATM    6  N   UNL     1      -0.934  12.969  22.307  0.00  0.00    -0.218 NA
HETATM    7  C   UNL     1      -2.026  12.239  22.531  0.00  0.00     0.200 A 
HETATM    8  N   UNL     1      -2.409  11.774  23.714  0.00  0.00    -0.212 NA
HETATM    9  C   UNL     1      -1.610  12.097  24.761  0.00  0.00     0.140 A 
HETATM   10  C   UNL     1      -0.451  12.893  24.656  0.00  0.00     0.028 A 
HETATM   11  C   UNL     1       0.418  13.324  25.705  0.00  0.00     0.023 A 
ENDROOT
BRANCH   9  12
HETATM   12  C   UNL     1      -1.995  11.486  26.079  0.00  0.00     0.274 C 
HETATM   13  O   UNL     1      -2.940  11.973  26.704  0.00  0.00    -0.266 OA
HETATM   14  N   UNL     1      -1.321  10.390  26.599  0.00  0.00    -0.338 N 
HETATM   15  C   UNL     1      -0.140   9.675  26.093  0.00  0.00     0.165 A 
HETATM   16  C   UNL     1      -1.849   9.789  27.820  0.00  0.00     0.165 A 
HETATM   17  C   UNL     1       0.069   8.586  27.111  0.00  0.00    -0.032 A 
HETATM   18  C   UNL     1       1.052   7.610  27.182  0.00  0.00     0.012 A 
HETATM   19  C   UNL     1      -0.918   8.662  28.101  0.00  0.00    -0.030 A 
HETATM   20  C   UNL     1       1.032   6.713  28.260  0.00  0.00     0.037 A 
HETATM   21  C   UNL     1       0.033   6.807  29.238  0.00  0.00     0.066 A 
HETATM   22  C   UNL     1      -0.953   7.780  29.168  0.00  0.00     0.046 A 
BRANCH  21  23
HETATM   23  O   UNL     1      -0.010   5.950  30.301  0.00  0.00    -0.361 OA
HETATM   24  H   UNL     1       0.810   6.045  30.812  0.00  0.00     0.217 HD
ENDBRANCH  21  23
ENDBRANCH   9  12
BRANCH   7  25
HETATM   25  N   UNL     1      -2.793  11.922  21.429  0.00  0.00    -0.271 NA
HETATM   26  H   UNL     1      -2.195  11.837  20.616  0.00  0.00     0.127 HD
HETATM   27  H   UNL     1      -3.400  11.141  21.635  0.00  0.00     0.127 HD
ENDBRANCH   7  25
TORSDOF 3
ENDMDL
MODEL 3
REMARK VINA RESULT:    -7.593      4.860      7.222
REMARK INTER + INTRA:          -8.966
REMARK INTER:                  -8.900
REMARK INTRA:                  -0.066
REMARK UNBOUND:                -0.486
REMARK  3 active torsions:
REMARK  status: ('A' for Active; 'I' for Inactive)
REMARK    1  A    between atoms: C_7  and  N_8 
REMARK    2  A    between atoms: C_10  and  C_11 
REMARK       I    between atoms: C_11  and  N_13 
REMARK    3  A    between atoms: C_18  and  O_19 
ROOT
HETATM    1  C   UNL     1      10.318  17.700  22.316  0.00  0.00     0.048 C 
HETATM    2  C   UNL     1      10.430  16.275  21.859  0.00  0.00    -0.061 A 
HETATM    3  C   UNL     1      11.133  15.936  20.708  0.00  0.00     0.009 A 
HETATM    4  C   UNL     1      11.213  14.598  20.313  0.00  0.00     0.033 A 
HETATM    5  C   UNL     1      10.603  13.572  21.027  0.00  0.00     0.073 A 
HETATM    6  N   UNL     1      10.707  12.326  20.554  0.00  0.00    -0.218 NA
HETATM    7  C   UNL     1      10.093  11.345  21.215  0.00  0.00     0.200 A 
HETATM    8  N   UNL     1       9.407  11.493  22.341  0.00  0.00    -0.212 NA
HETATM    9  C   UNL     1       9.330  12.758  22.824  0.00  0.00     0.140 A 
HETATM   10  C   UNL     1       9.906  13.881  22.194  0.00  0.00     0.028 A 
HETATM   11  C   UNL     1       9.835  15.249  22.601  0.00  0.00     0.023 A 
ENDROOT
BRANCH   9  12
HETATM   12  C   UNL     1       8.637  12.903  24.149  0.00  0.00     0.274 C 
HETATM   13  O   UNL     1       9.111  12.328  25.132  0.00  0.00    -0.266 OA
HETATM   14  N   UNL     1       7.489  13.670  24.293  0.00  0.00    -0.338 N 
HETATM   15  C   UNL     1       6.699  14.391  23.284  0.00  0.00     0.165 A 
HETATM   16  C   UNL     1       6.963  13.855  25.641  0.00  0.00     0.165 A 
HETATM   17  C   UNL     1       5.599  15.025  24.093  0.00  0.00    -0.032 A 
HETATM   18  C   UNL     1       4.529  15.806  23.683  0.00  0.00     0.012 A 
HETATM   19  C   UNL     1       5.759  14.707  25.447  0.00  0.00    -0.030 A 
HETATM   20  C   UNL     1       3.621  16.264  24.650  0.00  0.00     0.037 A 
HETATM   21  C   UNL     1       3.803  15.935  26.001  0.00  0.00     0.066 A 
HETATM   22  C   UNL     1       4.874  15.156  26.413  0.00  0.00     0.046 A 
BRANCH  21  23
HETATM   23  O   UNL     1       2.934  16.363  26.963  0.00  0.00    -0.361 OA
HETATM   24  H   UNL     1       2.210  15.721  27.038  0.00  0.00     0.217 HD
ENDBRANCH  21  23
ENDBRANCH   9  12
BRANCH   7  25
HETATM   25  N   UNL     1      10.218  10.075  20.692  0.00  0.00    -0.271 NA
HETATM   26  H   UNL     1       9.653   9.998  19.856  0.00  0.00     0.127 HD
HETATM   27  H   UNL     1      11.192   9.822  20.612  0.00  0.00     0.127 HD
ENDBRANCH   7  25
TORSDOF 3
ENDMDL
MODEL 4
REMARK VINA RESULT:    -7.586      4.316      5.772
REMARK INTER + INTRA:          -8.958
REMARK INTER:                  -8.460
REMARK INTRA:                  -0.499
REMARK UNBOUND:                -0.486
REMARK  3 active torsions:
REMARK  status: ('A' for Active; 'I' for Inactive)
REMARK    1  A    between atoms: C_7  and  N_8 
REMARK    2  A    between atoms: C_10  and  C_11 
REMARK       I    between atoms: C_11  and  N_13 
REMARK    3  A    between atoms: C_18  and  O_19 
ROOT
HETATM    1  C   UNL     1       8.791  14.479  19.926  0.00  0.00     0.048 C 
HETATM    2  C   UNL     1       8.980  14.805  21.378  0.00  0.00    -0.061 A 
HETATM    3  C   UNL     1       9.844  15.814  21.788  0.00  0.00     0.009 A 
HETATM    4  C   UNL     1       9.996  16.086  23.151  0.00  0.00     0.033 A 
HETATM    5  C   UNL     1       9.316  15.375  24.134  0.00  0.00     0.073 A 
HETATM    6  N   UNL     1       9.549  15.686  25.413  0.00  0.00    -0.218 NA
HETATM    7  C   UNL     1       8.927  14.982  26.358  0.00  0.00     0.200 A 
HETATM    8  N   UNL     1       8.052  14.008  26.138  0.00  0.00    -0.212 NA
HETATM    9  C   UNL     1       7.805  13.720  24.836  0.00  0.00     0.140 A 
HETATM   10  C   UNL     1       8.429  14.369  23.750  0.00  0.00     0.028 A 
HETATM   11  C   UNL     1       8.269  14.100  22.356  0.00  0.00     0.023 A 
ENDROOT
BRANCH   9  12
HETATM   12  C   UNL     1       6.742  12.686  24.594  0.00  0.00     0.274 C 
HETATM   13  O   UNL     1       7.065  11.496  24.586  0.00  0.00    -0.266 OA
HETATM   14  N   UNL     1       5.415  13.037  24.388  0.00  0.00    -0.338 N 
HETATM   15  C   UNL     1       4.791  14.365  24.285  0.00  0.00     0.165 A 
HETATM   16  C   UNL     1       4.437  11.959  24.291  0.00  0.00     0.165 A 
HETATM   17  C   UNL     1       3.335  14.048  24.076  0.00  0.00    -0.032 A 
HETATM   18  C   UNL     1       2.257  14.899  23.883  0.00  0.00     0.012 A 
HETATM   19  C   UNL     1       3.142  12.661  24.078  0.00  0.00    -0.030 A 
HETATM   20  C   UNL     1       0.985  14.340  23.691  0.00  0.00     0.037 A 
HETATM   21  C   UNL     1       0.816  12.949  23.699  0.00  0.00     0.066 A 
HETATM   22  C   UNL     1       1.892  12.095  23.895  0.00  0.00     0.046 A 
BRANCH  21  23
HETATM   23  O   UNL     1      -0.409  12.376  23.510  0.00  0.00    -0.361 OA
HETATM   24  H   UNL     1      -1.015  12.701  24.195  0.00  0.00     0.217 HD
ENDBRANCH  21  23
ENDBRANCH   9  12
BRANCH   7  25
HETATM   25  N   UNL     1       9.199  15.327  27.665  0.00  0.00    -0.271 NA
HETATM   26  H   UNL     1       8.774  16.222  27.873  0.00  0.00     0.127 HD
HETATM   27  H   UNL     1       8.979  14.561  28.285  0.00  0.00     0.127 HD
ENDBRANCH   7  25
TORSDOF 3
ENDMDL
MODEL 5
REMARK VINA RESULT:    -7.487      4.008      5.706
REMARK INTER + INTRA:          -8.848
REMARK INTER:                  -8.399
REMARK INTRA:                  -0.450
REMARK UNBOUND:                -0.486
REMARK  3 active torsions:
REMARK  status: ('A' for Active; 'I' for Inactive)
REMARK    1  A    between atoms: C_7  and  N_8 
REMARK    2  A    between atoms: C_10  and  C_11 
REMARK       I    between atoms: C_11  and  N_13 
REMARK    3  A    between atoms: C_18  and  O_19 
ROOT
HETATM    1  C   UNL     1       9.554  15.250  26.800  0.00  0.00     0.048 C 
HETATM    2  C   UNL     1       9.480  15.277  25.302  0.00  0.00    -0.061 A 
HETATM    3  C   UNL     1      10.334  16.073  24.547  0.00  0.00     0.009 A 
HETATM    4  C   UNL     1      10.232  16.073  23.153  0.00  0.00     0.033 A 
HETATM    5  C   UNL     1       9.293  15.304  22.474  0.00  0.00     0.073 A 
HETATM    6  N   UNL     1       9.249  15.394  21.141  0.00  0.00    -0.218 NA
HETATM    7  C   UNL     1       8.326  14.687  20.490  0.00  0.00     0.200 A 
HETATM    8  N   UNL     1       7.455  13.859  21.054  0.00  0.00    -0.212 NA
HETATM    9  C   UNL     1       7.527  13.759  22.404  0.00  0.00     0.140 A 
HETATM   10  C   UNL     1       8.434  14.483  23.204  0.00  0.00     0.028 A 
HETATM   11  C   UNL     1       8.548  14.478  24.629  0.00  0.00     0.023 A 
ENDROOT
BRANCH   9  12
HETATM   12  C   UNL     1       6.606  12.747  23.026  0.00  0.00     0.274 C 
HETATM   13  O   UNL     1       7.041  11.618  23.266  0.00  0.00    -0.266 OA
HETATM   14  N   UNL     1       5.290  13.055  23.342  0.00  0.00    -0.338 N 
HETATM   15  C   UNL     1       4.520  14.284  23.101  0.00  0.00     0.165 A 
HETATM   16  C   UNL     1       4.513  12.049  24.059  0.00  0.00     0.165 A 
HETATM   17  C   UNL     1       3.172  13.971  23.693  0.00  0.00    -0.032 A 
HETATM   18  C   UNL     1       2.019  14.741  23.740  0.00  0.00     0.012 A 
HETATM   19  C   UNL     1       3.178  12.682  24.238  0.00  0.00    -0.030 A 
HETATM   20  C   UNL     1       0.874  14.200  24.342  0.00  0.00     0.037 A 
HETATM   21  C   UNL     1       0.904  12.908  24.884  0.00  0.00     0.066 A 
HETATM   22  C   UNL     1       2.056  12.136  24.840  0.00  0.00     0.046 A 
BRANCH  21  23
HETATM   23  O   UNL     1      -0.197  12.353  25.471  0.00  0.00    -0.361 OA
HETATM   24  H   UNL     1      -0.750  13.064  25.833  0.00  0.00     0.217 HD
ENDBRANCH  21  23
ENDBRANCH   9  12
BRANCH   7  25
HETATM   25  N   UNL     1       8.308  14.811  19.116  0.00  0.00    -0.271 NA
HETATM   26  H   UNL     1       7.660  15.543  18.852  0.00  0.00     0.127 HD
HETATM   27  H   UNL     1       9.249  14.882  18.757  0.00  0.00     0.127 HD
ENDBRANCH   7  25
TORSDOF 3
ENDMDL
MODEL 6
REMARK VINA RESULT:    -7.482      4.719      7.305
REMARK INTER + INTRA:          -8.842
REMARK INTER:                  -8.349
REMARK INTRA:                  -0.494
REMARK UNBOUND:                -0.486
REMARK  3 active torsions:
REMARK  status: ('A' for Active; 'I' for Inactive)
REMARK    1  A    between atoms: C_7  and  N_8 
REMARK    2  A    between atoms: C_10  and  C_11 
REMARK       I    between atoms: C_11  and  N_13 
REMARK    3  A    between atoms: C_18  and  O_19 
ROOT
HETATM    1  C   UNL     1       9.103   9.356  22.589  0.00  0.00     0.048 C 
HETATM    2  C   UNL     1       9.457  10.670  21.956  0.00  0.00    -0.061 A 
HETATM    3  C   UNL     1       9.950  10.740  20.658  0.00  0.00     0.009 A 
HETATM    4  C   UNL     1      10.272  11.982  20.103  0.00  0.00     0.033 A 
HETATM    5  C   UNL     1      10.125  13.172  20.807  0.00  0.00     0.073 A 
HETATM    6  N   UNL     1      10.489  14.310  20.205  0.00  0.00    -0.218 NA
HETATM    7  C   UNL     1      10.385  15.448  20.890  0.00  0.00     0.200 A 
HETATM    8  N   UNL     1       9.910  15.560  22.123  0.00  0.00    -0.212 NA
HETATM    9  C   UNL     1       9.520  14.403  22.713  0.00  0.00     0.140 A 
HETATM   10  C   UNL     1       9.617  13.134  22.105  0.00  0.00     0.028 A 
HETATM   11  C   UNL     1       9.280  11.863  22.665  0.00  0.00     0.023 A 
ENDROOT
BRANCH   9  12
HETATM   12  C   UNL     1       8.892  14.549  24.070  0.00  0.00     0.274 C 
HETATM   13  O   UNL     1       9.616  14.491  25.067  0.00  0.00    -0.266 OA
HETATM   14  N   UNL     1       7.528  14.754  24.225  0.00  0.00    -0.338 N 
HETATM   15  C   UNL     1       6.456  14.795  23.220  0.00  0.00     0.165 A 
HETATM   16  C   UNL     1       7.032  15.013  25.573  0.00  0.00     0.165 A 
HETATM   17  C   UNL     1       5.223  15.066  24.040  0.00  0.00    -0.032 A 
HETATM   18  C   UNL     1       3.898  15.183  23.644  0.00  0.00     0.012 A 
HETATM   19  C   UNL     1       5.565  15.186  25.392  0.00  0.00    -0.030 A 
HETATM   20  C   UNL     1       2.923  15.422  24.623  0.00  0.00     0.037 A 
HETATM   21  C   UNL     1       3.289  15.542  25.971  0.00  0.00     0.066 A 
HETATM   22  C   UNL     1       4.614  15.427  26.369  0.00  0.00     0.046 A 
BRANCH  21  23
HETATM   23  O   UNL     1       2.361  15.769  26.946  0.00  0.00    -0.361 OA
HETATM   24  H   UNL     1       2.743  16.368  27.607  0.00  0.00     0.217 HD
ENDBRANCH  21  23
ENDBRANCH   9  12
BRANCH   7  25
HETATM   25  N   UNL     1      10.777  16.599  20.237  0.00  0.00    -0.271 NA
HETATM   26  H   UNL     1       9.959  17.142  19.993  0.00  0.00     0.127 HD
HETATM   27  H   UNL     1      11.501  17.070  20.759  0.00  0.00     0.127 HD
ENDBRANCH   7  25
TORSDOF 3
ENDMDL
MODEL 7
REMARK VINA RESULT:    -7.331      3.524      5.843
REMARK INTER + INTRA:          -8.674
REMARK INTER:                  -8.242
REMARK INTRA:                  -0.432
REMARK UNBOUND:                -0.486
REMARK  3 active torsions:
REMARK  status: ('A' for Active; 'I' for Inactive)
REMARK    1  A    between atoms: C_7  and  N_8 
REMARK    2  A    between atoms: C_10  and  C_11 
REMARK       I    between atoms: C_11  and  N_13 
REMARK    3  A    between atoms: C_18  and  O_19 
ROOT
HETATM    1  C   UNL     1       5.643  10.472  20.357  0.00  0.00     0.048 C 
HETATM    2  C   UNL     1       6.109  11.113  21.631  0.00  0.00    -0.061 A 
HETATM    3  C   UNL     1       7.368  10.848  22.158  0.00  0.00     0.009 A 
HETATM    4  C   UNL     1       7.766  11.461  23.349  0.00  0.00     0.033 A 
HETATM    5  C   UNL     1       6.940  12.335  24.049  0.00  0.00     0.073 A 
HETATM    6  N   UNL     1       7.395  12.849  25.197  0.00  0.00    -0.218 NA
HETATM    7  C   UNL     1       6.592  13.656  25.889  0.00  0.00     0.200 A 
HETATM    8  N   UNL     1       5.376  14.033  25.516  0.00  0.00    -0.212 NA
HETATM    9  C   UNL     1       4.937  13.524  24.337  0.00  0.00     0.140 A 
HETATM   10  C   UNL     1       5.678  12.632  23.536  0.00  0.00     0.028 A 
HETATM   11  C   UNL     1       5.279  12.011  22.313  0.00  0.00     0.023 A 
ENDROOT
BRANCH   9  12
HETATM   12  C   UNL     1       3.600  14.031  23.873  0.00  0.00     0.274 C 
HETATM   13  O   UNL     1       3.523  15.182  23.436  0.00  0.00    -0.266 OA
HETATM   14  N   UNL     1       2.463  13.238  23.918  0.00  0.00    -0.338 N 
HETATM   15  C   UNL     1       2.276  11.878  24.446  0.00  0.00     0.165 A 
HETATM   16  C   UNL     1       1.241  13.773  23.326  0.00  0.00     0.165 A 
HETATM   17  C   UNL     1       0.821  11.599  24.177  0.00  0.00    -0.032 A 
HETATM   18  C   UNL     1       0.058  10.481  24.481  0.00  0.00     0.012 A 
HETATM   19  C   UNL     1       0.235  12.696  23.536  0.00  0.00    -0.030 A 
HETATM   20  C   UNL     1      -1.301  10.480  24.133  0.00  0.00     0.037 A 
HETATM   21  C   UNL     1      -1.866  11.589  23.489  0.00  0.00     0.066 A 
HETATM   22  C   UNL     1      -1.104  12.707  23.181  0.00  0.00     0.046 A 
BRANCH  21  23
HETATM   23  O   UNL     1      -3.186  11.618  23.142  0.00  0.00    -0.361 OA
HETATM   24  H   UNL     1      -3.431  10.757  22.769  0.00  0.00     0.217 HD
ENDBRANCH  21  23
ENDBRANCH   9  12
BRANCH   7  25
HETATM   25  N   UNL     1       7.094  14.161  27.071  0.00  0.00    -0.271 NA
HETATM   26  H   UNL     1       8.009  14.562  26.904  0.00  0.00     0.127 HD
HETATM   27  H   UNL     1       6.410  14.752  27.520  0.00  0.00     0.127 HD
ENDBRANCH   7  25
TORSDOF 3
ENDMDL
MODEL 8
REMARK VINA RESULT:    -7.104      4.013      6.228
REMARK INTER + INTRA:          -8.420
REMARK INTER:                  -7.934
REMARK INTRA:                  -0.486
REMARK UNBOUND:                -0.486
REMARK  3 active torsions:
REMARK  status: ('A' for Active; 'I' for Inactive)
REMARK    1  A    between atoms: C_7  and  N_8 
REMARK    2  A    between atoms: C_10  and  C_11 
REMARK       I    between atoms: C_11  and  N_13 
REMARK    3  A    between atoms: C_18  and  O_19 
ROOT
HETATM    1  C   UNL     1      10.068  11.577  26.311  0.00  0.00     0.048 C 
HETATM    2  C   UNL     1      10.231  12.784  25.435  0.00  0.00    -0.061 A 
HETATM    3  C   UNL     1      11.317  13.640  25.575  0.00  0.00     0.009 A 
HETATM    4  C   UNL     1      11.433  14.757  24.743  0.00  0.00     0.033 A 
HETATM    5  C   UNL     1      10.488  15.061  23.768  0.00  0.00     0.073 A 
HETATM    6  N   UNL     1      10.667  16.169  23.040  0.00  0.00    -0.218 NA
HETATM    7  C   UNL     1       9.745  16.483  22.131  0.00  0.00     0.200 A 
HETATM    8  N   UNL     1       8.666  15.762  21.853  0.00  0.00    -0.212 NA
HETATM    9  C   UNL     1       8.510  14.628  22.580  0.00  0.00     0.140 A 
HETATM   10  C   UNL     1       9.397  14.211  23.594  0.00  0.00     0.028 A 
HETATM   11  C   UNL     1       9.287  13.064  24.440  0.00  0.00     0.023 A 
ENDROOT
BRANCH   9  12
HETATM   12  C   UNL     1       7.341  13.767  22.192  0.00  0.00     0.274 C 
HETATM   13  O   UNL     1       7.508  12.889  21.343  0.00  0.00    -0.266 OA
HETATM   14  N   UNL     1       6.090  13.932  22.770  0.00  0.00    -0.338 N 
HETATM   15  C   UNL     1       5.618  14.931  23.740  0.00  0.00     0.165 A 
HETATM   16  C   UNL     1       5.052  12.966  22.423  0.00  0.00     0.165 A 
HETATM   17  C   UNL     1       4.179  14.547  23.961  0.00  0.00    -0.032 A 
HETATM   18  C   UNL     1       3.210  15.144  24.755  0.00  0.00     0.012 A 
HETATM   19  C   UNL     1       3.863  13.418  23.196  0.00  0.00    -0.030 A 
HETATM   20  C   UNL     1       1.921  14.592  24.769  0.00  0.00     0.037 A 
HETATM   21  C   UNL     1       1.628  13.459  23.997  0.00  0.00     0.066 A 
HETATM   22  C   UNL     1       2.597  12.859  23.205  0.00  0.00     0.046 A 
BRANCH  21  23
HETATM   23  O   UNL     1       0.381  12.903  23.988  0.00  0.00    -0.361 OA
HETATM   24  H   UNL     1       0.331  12.260  23.263  0.00  0.00     0.217 HD
ENDBRANCH  21  23
ENDBRANCH   9  12
BRANCH   7  25
HETATM   25  N   UNL     1       9.961  17.636  21.406  0.00  0.00    -0.271 NA
HETATM   26  H   UNL     1      10.788  18.104  21.756  0.00  0.00     0.127 HD
HETATM   27  H   UNL     1       9.930  17.440  20.416  0.00  0.00     0.127 HD
ENDBRANCH   7  25
TORSDOF 3
ENDMDL
MODEL 9
REMARK VINA RESULT:    -7.052      2.102      2.636
REMARK INTER + INTRA:          -8.363
REMARK INTER:                  -7.924
REMARK INTRA:                  -0.439
REMARK UNBOUND:                -0.486
REMARK  3 active torsions:
REMARK  status: ('A' for Active; 'I' for Inactive)
REMARK    1  A    between atoms: C_7  and  N_8 
REMARK    2  A    between atoms: C_10  and  C_11 
REMARK       I    between atoms: C_11  and  N_13 
REMARK    3  A    between atoms: C_18  and  O_19 
ROOT
HETATM    1  C   UNL     1       3.973  16.072  23.681  0.00  0.00     0.048 C 
HETATM    2  C   UNL     1       5.061  15.223  24.270  0.00  0.00    -0.061 A 
HETATM    3  C   UNL     1       5.406  15.316  25.613  0.00  0.00     0.009 A 
HETATM    4  C   UNL     1       6.427  14.510  26.125  0.00  0.00     0.033 A 
HETATM    5  C   UNL     1       7.131  13.607  25.335  0.00  0.00     0.073 A 
HETATM    6  N   UNL     1       8.113  12.901  25.906  0.00  0.00    -0.218 NA
HETATM    7  C   UNL     1       8.814  12.063  25.143  0.00  0.00     0.200 A 
HETATM    8  N   UNL     1       8.597  11.835  23.854  0.00  0.00    -0.212 NA
HETATM    9  C   UNL     1       7.582  12.539  23.294  0.00  0.00     0.140 A 
HETATM   10  C   UNL     1       6.794  13.480  23.988  0.00  0.00     0.028 A 
HETATM   11  C   UNL     1       5.744  14.299  23.470  0.00  0.00     0.023 A 
ENDROOT
BRANCH   9  12
HETATM   12  C   UNL     1       7.278  12.203  21.861  0.00  0.00     0.274 C 
HETATM   13  O   UNL     1       7.719  12.938  20.974  0.00  0.00    -0.266 OA
HETATM   14  N   UNL     1       6.525  11.090  21.515  0.00  0.00    -0.338 N 
HETATM   15  C   UNL     1       5.840  10.107  22.368  0.00  0.00     0.165 A 
HETATM   16  C   UNL     1       6.393  10.776  20.096  0.00  0.00     0.165 A 
HETATM   17  C   UNL     1       5.226   9.156  21.376  0.00  0.00    -0.032 A 
HETATM   18  C   UNL     1       4.432   8.038  21.589  0.00  0.00     0.012 A 
HETATM   19  C   UNL     1       5.547   9.551  20.073  0.00  0.00    -0.030 A 
HETATM   20  C   UNL     1       3.966   7.323  20.475  0.00  0.00     0.037 A 
HETATM   21  C   UNL     1       4.303   7.737  19.179  0.00  0.00     0.066 A 
HETATM   22  C   UNL     1       5.099   8.853  18.964  0.00  0.00     0.046 A 
BRANCH  21  23
HETATM   23  O   UNL     1       3.860   7.064  18.076  0.00  0.00    -0.361 OA
HETATM   24  H   UNL     1       3.463   6.225  18.360  0.00  0.00     0.217 HD
ENDBRANCH  21  23
ENDBRANCH   9  12
BRANCH   7  25
HETATM   25  N   UNL     1       9.823  11.358  25.767  0.00  0.00    -0.271 NA
HETATM   26  H   UNL     1      10.451  12.005  26.226  0.00  0.00     0.127 HD
HETATM   27  H   UNL     1       9.436  10.616  26.331  0.00  0.00     0.127 HD
ENDBRANCH   7  25
TORSDOF 3
ENDMDL
