MODEL 1
REMARK VINA RESULT:    -8.801      0.000      0.000
REMARK INTER + INTRA:         -14.478
REMARK INTER:                 -13.342
REMARK INTRA:                  -1.136
REMARK UNBOUND:                -1.303
REMARK  9 active torsions:
REMARK  status: ('A' for Active; 'I' for Inactive)
REMARK       I    between atoms: C_2  and  N_3 
REMARK    1  A    between atoms: C_2  and  C_17 
REMARK    2  A    between atoms: N_3  and  C_5 
REMARK    3  A    between atoms: C_8  and  O_9 
REMARK    4  A    between atoms: O_9  and  C_10 
REMARK    5  A    between atoms: C_10  and  C_11 
REMARK    6  A    between atoms: C_11  and  C_12 
REMARK    7  A    between atoms: C_18  and  O_19 
REMARK    8  A    between atoms: C_25  and  C_26 
REMARK    9  A    between atoms: C_26  and  C_27 
ROOT
HETATM    1  C   UNL     1       2.148   6.717  17.730  0.00  0.00     0.110 C 
HETATM    2  C   UNL     1       2.045   8.228  17.863  0.00  0.00    -0.021 C 
HETATM    3  N   UNL     1       1.959   9.481  17.974  0.00  0.00    -0.102 N 
ENDROOT
BRANCH   1   4
HETATM    4  C   UNL     1       3.415   6.367  16.963  0.00  0.00     0.040 C 
BRANCH   4   5
HETATM    5  C   UNL     1       4.479   5.780  17.875  0.00  0.00     0.176 C 
BRANCH   5   6
HETATM    6  O   UNL     1       5.332   6.811  18.382  0.00  0.00    -0.351 OA
BRANCH   6   7
HETATM    7  C   UNL     1       4.956   7.321  19.599  0.00  0.00     0.068 A 
HETATM    8  C   UNL     1       5.073   8.651  19.977  0.00  0.00     0.039 A 
HETATM    9  C   UNL     1       4.619   9.084  21.228  0.00  0.00     0.032 A 
HETATM   10  C   UNL     1       4.011   8.213  22.144  0.00  0.00     0.037 A 
HETATM   11  C   UNL     1       3.966   6.858  21.771  0.00  0.00     0.032 A 
HETATM   12  C   UNL     1       4.419   6.419  20.512  0.00  0.00     0.039 A 
BRANCH  10  13
HETATM   13  N   UNL     1       3.477   8.702  23.403  0.00  0.00    -0.318 N 
HETATM   14  C   UNL     1       2.763   7.833  24.275  0.00  0.00     0.260 C 
HETATM   15  O   UNL     1       2.761   6.603  24.167  0.00  0.00    -0.267 OA
HETATM   16  C   UNL     1       3.827  10.067  23.797  0.00  0.00     0.159 C 
BRANCH  14  17
HETATM   17  C   UNL     1       1.999   8.337  25.460  0.00  0.00     0.066 A 
HETATM   18  C   UNL     1       2.514   8.073  26.747  0.00  0.00     0.083 A 
HETATM   19  C   UNL     1       1.870   8.494  27.911  0.00  0.00     0.069 A 
HETATM   20  C   UNL     1       0.670   9.185  27.753  0.00  0.00     0.065 A 
HETATM   21  N   UNL     1      -0.187   9.717  28.676  0.00  0.00    -0.277 N 
HETATM   22  C   UNL     1       0.093   9.441  26.516  0.00  0.00     0.020 A 
HETATM   23  H   UNL     1      -0.089   9.708  29.684  0.00  0.00     0.189 HD
HETATM   24  N   UNL     1      -1.271  10.302  28.147  0.00  0.00    -0.178 NA
HETATM   25  C   UNL     1      -1.129  10.125  26.823  0.00  0.00     0.071 A 
HETATM   26  C   UNL     1       0.752   8.982  25.350  0.00  0.00     0.035 A 
BRANCH  18  27
HETATM   27  O   UNL     1       3.673   7.362  26.959  0.00  0.00    -0.360 OA
HETATM   28  H   UNL     1       3.596   6.933  27.842  0.00  0.00     0.217 HD
ENDBRANCH  18  27
BRANCH  25  29
HETATM   29  C   UNL     1      -2.207  10.627  25.903  0.00  0.00     0.100 C 
BRANCH  29  30
HETATM   30  C   UNL     1      -1.582  11.657  24.990  0.00  0.00    -0.052 A 
HETATM   31  C   UNL     1      -2.027  11.819  23.668  0.00  0.00     0.014 A 
HETATM   32  C   UNL     1      -1.338  12.642  22.772  0.00  0.00    -0.061 A 
HETATM   33  C   UNL     1      -1.669  12.601  21.311  0.00  0.00     0.048 C 
HETATM   34  C   UNL     1      -0.262  13.404  23.237  0.00  0.00     0.007 A 
HETATM   35  C   UNL     1       0.126  13.332  24.575  0.00  0.00     0.001 A 
HETATM   36  C   UNL     1      -0.522  12.455  25.445  0.00  0.00     0.007 A 
ENDBRANCH  29  30
ENDBRANCH  25  29
ENDBRANCH  14  17
ENDBRANCH  10  13
ENDBRANCH   6   7
ENDBRANCH   5   6
ENDBRANCH   4   5
ENDBRANCH   1   4
TORSDOF 9
ENDMDL
MODEL 2
REMARK VINA RESULT:    -8.487      1.102      1.610
REMARK INTER + INTRA:         -14.008
REMARK INTER:                 -12.921
REMARK INTRA:                  -1.086
REMARK UNBOUND:                -1.303
REMARK  9 active torsions:
REMARK  status: ('A' for Active; 'I' for Inactive)
REMARK       I    between atoms: C_2  and  N_3 
REMARK    1  A    between atoms: C_2  and  C_17 
REMARK    2  A    between atoms: N_3  and  C_5 
REMARK    3  A    between atoms: C_8  and  O_9 
REMARK    4  A    between atoms: O_9  and  C_10 
REMARK    5  A    between atoms: C_10  and  C_11 
REMARK    6  A    between atoms: C_11  and  C_12 
REMARK    7  A    between atoms: C_18  and  O_19 
REMARK    8  A    between atoms: C_25  and  C_26 
REMARK    9  A    between atoms: C_26  and  C_27 
ROOT
HETATM    1  C   UNL     1       1.129   6.304  16.535  0.00  0.00     0.110 C 
HETATM    2  C   UNL     1       0.606   5.953  17.918  0.00  0.00    -0.021 C 
HETATM    3  N   UNL     1       0.170   5.661  19.065  0.00  0.00    -0.102 N 
ENDROOT
BRANCH   1   4
HETATM    4  C   UNL     1       2.530   6.886  16.663  0.00  0.00     0.040 C 
BRANCH   4   5
HETATM    5  C   UNL     1       3.512   5.868  17.219  0.00  0.00     0.176 C 
BRANCH   5   6
HETATM    6  O   UNL     1       4.646   6.525  17.795  0.00  0.00    -0.351 OA
BRANCH   6   7
HETATM    7  C   UNL     1       4.438   7.034  19.051  0.00  0.00     0.068 A 
HETATM    8  C   UNL     1       4.235   8.376  19.345  0.00  0.00     0.039 A 
HETATM    9  C   UNL     1       3.986   8.792  20.657  0.00  0.00     0.032 A 
HETATM   10  C   UNL     1       3.908   7.889  21.727  0.00  0.00     0.037 A 
HETATM   11  C   UNL     1       4.185   6.544  21.420  0.00  0.00     0.032 A 
HETATM   12  C   UNL     1       4.433   6.120  20.100  0.00  0.00     0.039 A 
BRANCH  10  13
HETATM   13  N   UNL     1       3.569   8.337  23.066  0.00  0.00    -0.318 N 
HETATM   14  C   UNL     1       2.826   7.501  23.946  0.00  0.00     0.260 C 
HETATM   15  O   UNL     1       2.641   6.295  23.753  0.00  0.00    -0.267 OA
HETATM   16  C   UNL     1       4.143   9.606  23.515  0.00  0.00     0.159 C 
BRANCH  14  17
HETATM   17  C   UNL     1       2.257   8.001  25.237  0.00  0.00     0.066 A 
HETATM   18  C   UNL     1       2.980   7.755  26.424  0.00  0.00     0.083 A 
HETATM   19  C   UNL     1       2.527   8.175  27.676  0.00  0.00     0.069 A 
HETATM   20  C   UNL     1       1.305   8.844  27.712  0.00  0.00     0.065 A 
HETATM   21  N   UNL     1       0.600   9.368  28.759  0.00  0.00    -0.277 N 
HETATM   22  C   UNL     1       0.529   9.081  26.585  0.00  0.00     0.020 A 
HETATM   23  H   UNL     1       0.862   9.369  29.738  0.00  0.00     0.189 HD
HETATM   24  N   UNL     1      -0.566   9.931  28.411  0.00  0.00    -0.178 NA
HETATM   25  C   UNL     1      -0.639   9.746  27.083  0.00  0.00     0.071 A 
HETATM   26  C   UNL     1       0.997   8.624  25.329  0.00  0.00     0.035 A 
BRANCH  18  27
HETATM   27  O   UNL     1       4.170   7.066  26.448  0.00  0.00    -0.360 OA
HETATM   28  H   UNL     1       4.892   7.723  26.319  0.00  0.00     0.217 HD
ENDBRANCH  18  27
BRANCH  25  29
HETATM   29  C   UNL     1      -1.860  10.223  26.349  0.00  0.00     0.100 C 
BRANCH  29  30
HETATM   30  C   UNL     1      -1.394  11.114  25.220  0.00  0.00    -0.052 A 
HETATM   31  C   UNL     1      -0.317  11.998  25.390  0.00  0.00     0.014 A 
HETATM   32  C   UNL     1       0.001  12.942  24.411  0.00  0.00    -0.061 A 
HETATM   33  C   UNL     1       0.977  14.039  24.717  0.00  0.00     0.048 C 
HETATM   34  C   UNL     1      -0.691  12.925  23.196  0.00  0.00     0.007 A 
HETATM   35  C   UNL     1      -1.695  11.982  22.973  0.00  0.00     0.001 A 
HETATM   36  C   UNL     1      -2.054  11.088  23.982  0.00  0.00     0.007 A 
ENDBRANCH  29  30
ENDBRANCH  25  29
ENDBRANCH  14  17
ENDBRANCH  10  13
ENDBRANCH   6   7
ENDBRANCH   5   6
ENDBRANCH   4   5
ENDBRANCH   1   4
TORSDOF 9
ENDMDL
MODEL 3
REMARK VINA RESULT:    -8.141      1.427      1.585
REMARK INTER + INTRA:         -13.490
REMARK INTER:                 -12.087
REMARK INTRA:                  -1.404
REMARK UNBOUND:                -1.303
REMARK  9 active torsions:
REMARK  status: ('A' for Active; 'I' for Inactive)
REMARK       I    between atoms: C_2  and  N_3 
REMARK    1  A    between atoms: C_2  and  C_17 
REMARK    2  A    between atoms: N_3  and  C_5 
REMARK    3  A    between atoms: C_8  and  O_9 
REMARK    4  A    between atoms: O_9  and  C_10 
REMARK    5  A    between atoms: C_10  and  C_11 
REMARK    6  A    between atoms: C_11  and  C_12 
REMARK    7  A    between atoms: C_18  and  O_19 
REMARK    8  A    between atoms: C_25  and  C_26 
REMARK    9  A    between atoms: C_26  and  C_27 
ROOT
HETATM    1  C   UNL     1       2.127   3.898  19.227  0.00  0.00     0.110 C 
HETATM    2  C   UNL     1       1.256   5.099  18.899  0.00  0.00    -0.021 C 
HETATM    3  N   UNL     1       0.532   6.096  18.628  0.00  0.00    -0.102 N 
ENDROOT
BRANCH   1   4
HETATM    4  C   UNL     1       3.403   3.964  18.400  0.00  0.00     0.040 C 
BRANCH   4   5
HETATM    5  C   UNL     1       4.629   3.621  19.232  0.00  0.00     0.176 C 
BRANCH   5   6
HETATM    6  O   UNL     1       5.414   4.792  19.477  0.00  0.00    -0.351 OA
BRANCH   6   7
HETATM    7  C   UNL     1       4.930   5.612  20.464  0.00  0.00     0.068 A 
HETATM    8  C   UNL     1       4.378   6.869  20.258  0.00  0.00     0.039 A 
HETATM    9  C   UNL     1       3.868   7.613  21.328  0.00  0.00     0.032 A 
HETATM   10  C   UNL     1       3.869   7.127  22.644  0.00  0.00     0.037 A 
HETATM   11  C   UNL     1       4.496   5.883  22.841  0.00  0.00     0.032 A 
HETATM   12  C   UNL     1       5.007   5.129  21.767  0.00  0.00     0.039 A 
BRANCH  10  13
HETATM   13  N   UNL     1       3.264   7.884  23.725  0.00  0.00    -0.318 N 
HETATM   14  C   UNL     1       2.333   7.270  24.609  0.00  0.00     0.260 C 
HETATM   15  O   UNL     1       2.166   6.049  24.690  0.00  0.00    -0.267 OA
HETATM   16  C   UNL     1       3.756   9.243  23.951  0.00  0.00     0.159 C 
BRANCH  14  17
HETATM   17  C   UNL     1       1.512   8.058  25.582  0.00  0.00     0.066 A 
HETATM   18  C   UNL     1       1.864   8.004  26.948  0.00  0.00     0.083 A 
HETATM   19  C   UNL     1       1.156   8.696  27.931  0.00  0.00     0.069 A 
HETATM   20  C   UNL     1       0.059   9.445  27.508  0.00  0.00     0.065 A 
HETATM   21  N   UNL     1      -0.824  10.217  28.209  0.00  0.00    -0.277 N 
HETATM   22  C   UNL     1      -0.360   9.506  26.185  0.00  0.00     0.020 A 
HETATM   23  H   UNL     1      -0.830  10.395  29.207  0.00  0.00     0.189 HD
HETATM   24  N   UNL     1      -1.781  10.781  27.457  0.00  0.00    -0.178 NA
HETATM   25  C   UNL     1      -1.526  10.339  26.214  0.00  0.00     0.071 A 
HETATM   26  C   UNL     1       0.359   8.775  25.209  0.00  0.00     0.035 A 
BRANCH  18  27
HETATM   27  O   UNL     1       2.912   7.250  27.423  0.00  0.00    -0.360 OA
HETATM   28  H   UNL     1       2.823   6.348  27.037  0.00  0.00     0.217 HD
ENDBRANCH  18  27
BRANCH  25  29
HETATM   29  C   UNL     1      -2.446  10.746  25.097  0.00  0.00     0.100 C 
BRANCH  29  30
HETATM   30  C   UNL     1      -1.723  11.783  24.267  0.00  0.00    -0.052 A 
HETATM   31  C   UNL     1      -2.088  12.029  22.934  0.00  0.00     0.014 A 
HETATM   32  C   UNL     1      -1.313  12.855  22.116  0.00  0.00    -0.061 A 
HETATM   33  C   UNL     1      -1.568  12.898  20.639  0.00  0.00     0.048 C 
HETATM   34  C   UNL     1      -0.227  13.538  22.671  0.00  0.00     0.007 A 
HETATM   35  C   UNL     1       0.084  13.385  24.022  0.00  0.00     0.001 A 
HETATM   36  C   UNL     1      -0.652  12.504  24.815  0.00  0.00     0.007 A 
ENDBRANCH  29  30
ENDBRANCH  25  29
ENDBRANCH  14  17
ENDBRANCH  10  13
ENDBRANCH   6   7
ENDBRANCH   5   6
ENDBRANCH   4   5
ENDBRANCH   1   4
TORSDOF 9
ENDMDL
MODEL 4
REMARK VINA RESULT:    -8.093      3.777      9.080
REMARK INTER + INTRA:         -13.418
REMARK INTER:                 -11.693
REMARK INTRA:                  -1.725
REMARK UNBOUND:                -1.303
REMARK  9 active torsions:
REMARK  status: ('A' for Active; 'I' for Inactive)
REMARK       I    between atoms: C_2  and  N_3 
REMARK    1  A    between atoms: C_2  and  C_17 
REMARK    2  A    between atoms: N_3  and  C_5 
REMARK    3  A    between atoms: C_8  and  O_9 
REMARK    4  A    between atoms: O_9  and  C_10 
REMARK    5  A    between atoms: C_10  and  C_11 
REMARK    6  A    between atoms: C_11  and  C_12 
REMARK    7  A    between atoms: C_18  and  O_19 
REMARK    8  A    between atoms: C_25  and  C_26 
REMARK    9  A    between atoms: C_26  and  C_27 
ROOT
HETATM    1  C   UNL     1       1.664   8.650  31.292  0.00  0.00     0.110 C 
HETATM    2  C   UNL     1       2.872   8.860  30.393  0.00  0.00    -0.021 C 
HETATM    3  N   UNL     1       3.873   9.036  29.647  0.00  0.00    -0.102 N 
ENDROOT
BRANCH   1   4
HETATM    4  C   UNL     1       1.527   7.167  31.608  0.00  0.00     0.040 C 
BRANCH   4   5
HETATM    5  C   UNL     1       0.495   6.496  30.715  0.00  0.00     0.176 C 
BRANCH   5   6
HETATM    6  O   UNL     1       1.087   5.416  29.987  0.00  0.00    -0.351 OA
BRANCH   6   7
HETATM    7  C   UNL     1       1.498   5.736  28.718  0.00  0.00     0.068 A 
HETATM    8  C   UNL     1       0.664   6.162  27.694  0.00  0.00     0.039 A 
HETATM    9  C   UNL     1       1.185   6.509  26.442  0.00  0.00     0.032 A 
HETATM   10  C   UNL     1       2.560   6.466  26.167  0.00  0.00     0.037 A 
HETATM   11  C   UNL     1       3.379   5.965  27.195  0.00  0.00     0.032 A 
HETATM   12  C   UNL     1       2.859   5.618  28.456  0.00  0.00     0.039 A 
BRANCH  10  13
HETATM   13  N   UNL     1       3.084   6.906  24.886  0.00  0.00    -0.318 N 
HETATM   14  C   UNL     1       3.464   5.961  23.893  0.00  0.00     0.260 C 
HETATM   15  O   UNL     1       3.158   4.765  23.931  0.00  0.00    -0.267 OA
HETATM   16  C   UNL     1       3.064   8.343  24.610  0.00  0.00     0.159 C 
BRANCH  14  17
HETATM   17  C   UNL     1       4.219   6.352  22.661  0.00  0.00     0.066 A 
HETATM   18  C   UNL     1       5.608   6.102  22.622  0.00  0.00     0.083 A 
HETATM   19  C   UNL     1       6.398   6.438  21.522  0.00  0.00     0.069 A 
HETATM   20  C   UNL     1       5.755   7.055  20.450  0.00  0.00     0.065 A 
HETATM   21  N   UNL     1       6.238   7.503  19.252  0.00  0.00    -0.277 N 
HETATM   22  C   UNL     1       4.401   7.364  20.445  0.00  0.00     0.020 A 
HETATM   23  H   UNL     1       7.193   7.452  18.915  0.00  0.00     0.189 HD
HETATM   24  N   UNL     1       5.315   8.072  18.464  0.00  0.00    -0.178 NA
HETATM   25  C   UNL     1       4.184   8.016  19.187  0.00  0.00     0.071 A 
HETATM   26  C   UNL     1       3.625   7.036  21.582  0.00  0.00     0.035 A 
BRANCH  18  27
HETATM   27  O   UNL     1       6.296   5.531  23.667  0.00  0.00    -0.360 OA
HETATM   28  H   UNL     1       6.591   4.640  23.372  0.00  0.00     0.217 HD
ENDBRANCH  18  27
BRANCH  25  29
HETATM   29  C   UNL     1       2.928   8.615  18.618  0.00  0.00     0.100 C 
BRANCH  29  30
HETATM   30  C   UNL     1       2.169   7.506  17.925  0.00  0.00    -0.052 A 
HETATM   31  C   UNL     1       1.209   6.744  18.611  0.00  0.00     0.014 A 
HETATM   32  C   UNL     1       0.637   5.612  18.026  0.00  0.00    -0.061 A 
HETATM   33  C   UNL     1      -0.181   4.671  18.860  0.00  0.00     0.048 C 
HETATM   34  C   UNL     1       0.938   5.305  16.697  0.00  0.00     0.007 A 
HETATM   35  C   UNL     1       1.810   6.114  15.968  0.00  0.00     0.001 A 
HETATM   36  C   UNL     1       2.432   7.203  16.581  0.00  0.00     0.007 A 
ENDBRANCH  29  30
ENDBRANCH  25  29
ENDBRANCH  14  17
ENDBRANCH  10  13
ENDBRANCH   6   7
ENDBRANCH   5   6
ENDBRANCH   4   5
ENDBRANCH   1   4
TORSDOF 9
ENDMDL
MODEL 5
REMARK VINA RESULT:    -8.043      1.928      2.074
REMARK INTER + INTRA:         -13.342
REMARK INTER:                 -11.987
REMARK INTRA:                  -1.355
REMARK UNBOUND:                -1.303
REMARK  9 active torsions:
REMARK  status: ('A' for Active; 'I' for Inactive)
REMARK       I    between atoms: C_2  and  N_3 
REMARK    1  A    between atoms: C_2  and  C_17 
REMARK    2  A    between atoms: N_3  and  C_5 
REMARK    3  A    between atoms: C_8  and  O_9 
REMARK    4  A    between atoms: O_9  and  C_10 
REMARK    5  A    between atoms: C_10  and  C_11 
REMARK    6  A    between atoms: C_11  and  C_12 
REMARK    7  A    between atoms: C_18  and  O_19 
REMARK    8  A    between atoms: C_25  and  C_26 
REMARK    9  A    between atoms: C_26  and  C_27 
ROOT
HETATM    1  C   UNL     1       3.238   2.402  18.618  0.00  0.00     0.110 C 
HETATM    2  C   UNL     1       2.340   3.293  17.777  0.00  0.00    -0.021 C 
HETATM    3  N   UNL     1       1.593   4.033  17.079  0.00  0.00    -0.102 N 
ENDROOT
BRANCH   1   4
HETATM    4  C   UNL     1       4.650   2.971  18.618  0.00  0.00     0.040 C 
BRANCH   4   5
HETATM    5  C   UNL     1       4.656   4.458  18.933  0.00  0.00     0.176 C 
BRANCH   5   6
HETATM    6  O   UNL     1       5.585   4.745  19.983  0.00  0.00    -0.351 OA
BRANCH   6   7
HETATM    7  C   UNL     1       5.065   5.461  21.031  0.00  0.00     0.068 A 
HETATM    8  C   UNL     1       5.807   6.226  21.920  0.00  0.00     0.039 A 
HETATM    9  C   UNL     1       5.178   6.959  22.933  0.00  0.00     0.032 A 
HETATM   10  C   UNL     1       3.784   6.976  23.089  0.00  0.00     0.037 A 
HETATM   11  C   UNL     1       3.057   6.140  22.222  0.00  0.00     0.032 A 
HETATM   12  C   UNL     1       3.685   5.403  21.199  0.00  0.00     0.039 A 
BRANCH  10  13
HETATM   13  N   UNL     1       3.151   7.807  24.097  0.00  0.00    -0.318 N 
HETATM   14  C   UNL     1       2.333   7.227  25.107  0.00  0.00     0.260 C 
HETATM   15  O   UNL     1       2.302   6.017  25.354  0.00  0.00    -0.267 OA
HETATM   16  C   UNL     1       3.505   9.226  24.118  0.00  0.00     0.159 C 
BRANCH  14  17
HETATM   17  C   UNL     1       1.479   8.051  26.018  0.00  0.00     0.066 A 
HETATM   18  C   UNL     1       1.780   8.050  27.398  0.00  0.00     0.083 A 
HETATM   19  C   UNL     1       1.037   8.780  28.326  0.00  0.00     0.069 A 
HETATM   20  C   UNL     1      -0.042   9.512  27.834  0.00  0.00     0.065 A 
HETATM   21  N   UNL     1      -0.949  10.311  28.473  0.00  0.00    -0.277 N 
HETATM   22  C   UNL     1      -0.413   9.522  26.496  0.00  0.00     0.020 A 
HETATM   23  H   UNL     1      -0.991  10.527  29.462  0.00  0.00     0.189 HD
HETATM   24  N   UNL     1      -1.877  10.845  27.665  0.00  0.00    -0.178 NA
HETATM   25  C   UNL     1      -1.577  10.356  26.450  0.00  0.00     0.071 A 
HETATM   26  C   UNL     1       0.341   8.754  25.576  0.00  0.00     0.035 A 
BRANCH  18  27
HETATM   27  O   UNL     1       2.809   7.315  27.939  0.00  0.00    -0.360 OA
HETATM   28  H   UNL     1       3.567   7.928  28.075  0.00  0.00     0.217 HD
ENDBRANCH  18  27
BRANCH  25  29
HETATM   29  C   UNL     1      -2.455  10.719  25.285  0.00  0.00     0.100 C 
BRANCH  29  30
HETATM   30  C   UNL     1      -1.704  11.730  24.448  0.00  0.00    -0.052 A 
HETATM   31  C   UNL     1      -2.068  11.982  23.115  0.00  0.00     0.014 A 
HETATM   32  C   UNL     1      -1.271  12.781  22.290  0.00  0.00    -0.061 A 
HETATM   33  C   UNL     1      -1.532  12.826  20.814  0.00  0.00     0.048 C 
HETATM   34  C   UNL     1      -0.162  13.432  22.837  0.00  0.00     0.007 A 
HETATM   35  C   UNL     1       0.151  13.274  24.187  0.00  0.00     0.001 A 
HETATM   36  C   UNL     1      -0.608  12.419  24.987  0.00  0.00     0.007 A 
ENDBRANCH  29  30
ENDBRANCH  25  29
ENDBRANCH  14  17
ENDBRANCH  10  13
ENDBRANCH   6   7
ENDBRANCH   5   6
ENDBRANCH   4   5
ENDBRANCH   1   4
TORSDOF 9
ENDMDL
MODEL 6
REMARK VINA RESULT:    -7.584      2.889      5.285
REMARK INTER + INTRA:         -12.656
REMARK INTER:                 -10.909
REMARK INTRA:                  -1.747
REMARK UNBOUND:                -1.303
REMARK  9 active torsions:
REMARK  status: ('A' for Active; 'I' for Inactive)
REMARK       I    between atoms: C_2  and  N_3 
REMARK    1  A    between atoms: C_2  and  C_17 
REMARK    2  A    between atoms: N_3  and  C_5 
REMARK    3  A    between atoms: C_8  and  O_9 
REMARK    4  A    between atoms: O_9  and  C_10 
REMARK    5  A    between atoms: C_10  and  C_11 
REMARK    6  A    between atoms: C_11  and  C_12 
REMARK    7  A    between atoms: C_18  and  O_19 
REMARK    8  A    between atoms: C_25  and  C_26 
REMARK    9  A    between atoms: C_26  and  C_27 
ROOT
HETATM    1  C   UNL     1       1.426   2.220  15.417  0.00  0.00     0.110 C 
HETATM    2  C   UNL     1       1.799   2.546  16.854  0.00  0.00    -0.021 C 
HETATM    3  N   UNL     1       2.110   2.816  18.046  0.00  0.00    -0.102 N 
ENDROOT
BRANCH   1   4
HETATM    4  C   UNL     1       0.319   3.161  14.961  0.00  0.00     0.040 C 
BRANCH   4   5
HETATM    5  C   UNL     1       0.876   4.368  14.224  0.00  0.00     0.176 C 
BRANCH   5   6
HETATM    6  O   UNL     1       0.342   5.579  14.767  0.00  0.00    -0.351 OA
BRANCH   6   7
HETATM    7  C   UNL     1       0.897   5.968  15.959  0.00  0.00     0.068 A 
HETATM    8  C   UNL     1       0.200   6.136  17.147  0.00  0.00     0.039 A 
HETATM    9  C   UNL     1       0.865   6.494  18.325  0.00  0.00     0.032 A 
HETATM   10  C   UNL     1       2.255   6.678  18.372  0.00  0.00     0.037 A 
HETATM   11  C   UNL     1       2.933   6.571  17.145  0.00  0.00     0.032 A 
HETATM   12  C   UNL     1       2.268   6.209  15.958  0.00  0.00     0.039 A 
BRANCH  10  13
HETATM   13  N   UNL     1       2.931   6.971  19.624  0.00  0.00    -0.318 N 
HETATM   14  C   UNL     1       3.162   5.945  20.582  0.00  0.00     0.260 C 
HETATM   15  O   UNL     1       3.047   4.740  20.338  0.00  0.00    -0.267 OA
HETATM   16  C   UNL     1       3.488   8.314  19.788  0.00  0.00     0.159 C 
BRANCH  14  17
HETATM   17  C   UNL     1       3.639   6.238  21.970  0.00  0.00     0.066 A 
HETATM   18  C   UNL     1       5.028   6.371  22.184  0.00  0.00     0.083 A 
HETATM   19  C   UNL     1       5.570   6.635  23.442  0.00  0.00     0.069 A 
HETATM   20  C   UNL     1       4.673   6.750  24.503  0.00  0.00     0.065 A 
HETATM   21  N   UNL     1       4.881   6.996  25.831  0.00  0.00    -0.277 N 
HETATM   22  C   UNL     1       3.300   6.589  24.364  0.00  0.00     0.020 A 
HETATM   23  H   UNL     1       5.767   7.155  26.296  0.00  0.00     0.189 HD
HETATM   24  N   UNL     1       3.762   7.015  26.570  0.00  0.00    -0.178 NA
HETATM   25  C   UNL     1       2.782   6.746  25.691  0.00  0.00     0.071 A 
HETATM   26  C   UNL     1       2.776   6.296  23.082  0.00  0.00     0.035 A 
BRANCH  18  27
HETATM   27  O   UNL     1       5.958   6.229  21.179  0.00  0.00    -0.360 OA
HETATM   28  H   UNL     1       6.825   6.045  21.607  0.00  0.00     0.217 HD
ENDBRANCH  18  27
BRANCH  25  29
HETATM   29  C   UNL     1       1.368   6.643  26.190  0.00  0.00     0.100 C 
BRANCH  29  30
HETATM   30  C   UNL     1       0.784   8.038  26.190  0.00  0.00    -0.052 A 
HETATM   31  C   UNL     1       0.275   8.611  27.367  0.00  0.00     0.014 A 
HETATM   32  C   UNL     1      -0.422   9.822  27.335  0.00  0.00    -0.061 A 
HETATM   33  C   UNL     1      -1.175  10.284  28.546  0.00  0.00     0.048 C 
HETATM   34  C   UNL     1      -0.509  10.526  26.131  0.00  0.00     0.007 A 
HETATM   35  C   UNL     1       0.083  10.019  24.975  0.00  0.00     0.001 A 
HETATM   36  C   UNL     1       0.716   8.775  25.000  0.00  0.00     0.007 A 
ENDBRANCH  29  30
ENDBRANCH  25  29
ENDBRANCH  14  17
ENDBRANCH  10  13
ENDBRANCH   6   7
ENDBRANCH   5   6
ENDBRANCH   4   5
ENDBRANCH   1   4
TORSDOF 9
ENDMDL
MODEL 7
REMARK VINA RESULT:    -7.422      2.295      3.404
REMARK INTER + INTRA:         -12.413
REMARK INTER:                 -10.294
REMARK INTRA:                  -2.119
REMARK UNBOUND:                -1.303
REMARK  9 active torsions:
REMARK  status: ('A' for Active; 'I' for Inactive)
REMARK       I    between atoms: C_2  and  N_3 
REMARK    1  A    between atoms: C_2  and  C_17 
REMARK    2  A    between atoms: N_3  and  C_5 
REMARK    3  A    between atoms: C_8  and  O_9 
REMARK    4  A    between atoms: O_9  and  C_10 
REMARK    5  A    between atoms: C_10  and  C_11 
REMARK    6  A    between atoms: C_11  and  C_12 
REMARK    7  A    between atoms: C_18  and  O_19 
REMARK    8  A    between atoms: C_25  and  C_26 
REMARK    9  A    between atoms: C_26  and  C_27 
ROOT
HETATM    1  C   UNL     1       1.746   7.734  17.196  0.00  0.00     0.110 C 
HETATM    2  C   UNL     1       2.639   8.257  18.309  0.00  0.00    -0.021 C 
HETATM    3  N   UNL     1       3.379   8.691  19.232  0.00  0.00    -0.102 N 
ENDROOT
BRANCH   1   4
HETATM    4  C   UNL     1       2.463   6.607  16.466  0.00  0.00     0.040 C 
BRANCH   4   5
HETATM    5  C   UNL     1       1.783   5.267  16.694  0.00  0.00     0.176 C 
BRANCH   5   6
HETATM    6  O   UNL     1       2.645   4.382  17.416  0.00  0.00    -0.351 OA
BRANCH   6   7
HETATM    7  C   UNL     1       2.892   4.753  18.714  0.00  0.00     0.068 A 
HETATM    8  C   UNL     1       4.148   5.022  19.241  0.00  0.00     0.039 A 
HETATM    9  C   UNL     1       4.293   5.438  20.569  0.00  0.00     0.032 A 
HETATM   10  C   UNL     1       3.193   5.623  21.420  0.00  0.00     0.037 A 
HETATM   11  C   UNL     1       1.938   5.278  20.888  0.00  0.00     0.032 A 
HETATM   12  C   UNL     1       1.786   4.862  19.551  0.00  0.00     0.039 A 
BRANCH  10  13
HETATM   13  N   UNL     1       3.364   6.131  22.769  0.00  0.00    -0.318 N 
HETATM   14  C   UNL     1       3.303   5.255  23.889  0.00  0.00     0.260 C 
HETATM   15  O   UNL     1       3.355   4.024  23.800  0.00  0.00    -0.267 OA
HETATM   16  C   UNL     1       3.744   7.537  22.915  0.00  0.00     0.159 C 
BRANCH  14  17
HETATM   17  C   UNL     1       3.240   5.757  25.297  0.00  0.00     0.066 A 
HETATM   18  C   UNL     1       4.432   5.779  26.052  0.00  0.00     0.083 A 
HETATM   19  C   UNL     1       4.473   6.222  27.374  0.00  0.00     0.069 A 
HETATM   20  C   UNL     1       3.267   6.635  27.938  0.00  0.00     0.065 A 
HETATM   21  N   UNL     1       2.976   7.110  29.186  0.00  0.00    -0.277 N 
HETATM   22  C   UNL     1       2.055   6.599  27.261  0.00  0.00     0.020 A 
HETATM   23  H   UNL     1       3.621   7.260  29.954  0.00  0.00     0.189 HD
HETATM   24  N   UNL     1       1.680   7.391  29.381  0.00  0.00    -0.178 NA
HETATM   25  C   UNL     1       1.093   7.064  28.217  0.00  0.00     0.071 A 
HETATM   26  C   UNL     1       2.034   6.122  25.928  0.00  0.00     0.035 A 
BRANCH  18  27
HETATM   27  O   UNL     1       5.641   5.347  25.556  0.00  0.00    -0.360 OA
HETATM   28  H   UNL     1       5.450   4.655  24.882  0.00  0.00     0.217 HD
ENDBRANCH  18  27
BRANCH  25  29
HETATM   29  C   UNL     1      -0.396   7.213  28.088  0.00  0.00     0.100 C 
BRANCH  29  30
HETATM   30  C   UNL     1      -0.677   8.633  27.652  0.00  0.00    -0.052 A 
HETATM   31  C   UNL     1      -0.600   9.006  26.300  0.00  0.00     0.014 A 
HETATM   32  C   UNL     1      -0.685  10.347  25.918  0.00  0.00    -0.061 A 
HETATM   33  C   UNL     1      -0.343  10.748  24.514  0.00  0.00     0.048 C 
HETATM   34  C   UNL     1      -0.967  11.316  26.885  0.00  0.00     0.007 A 
HETATM   35  C   UNL     1      -1.150  10.946  28.218  0.00  0.00     0.001 A 
HETATM   36  C   UNL     1      -0.994   9.614  28.603  0.00  0.00     0.007 A 
ENDBRANCH  29  30
ENDBRANCH  25  29
ENDBRANCH  14  17
ENDBRANCH  10  13
ENDBRANCH   6   7
ENDBRANCH   5   6
ENDBRANCH   4   5
ENDBRANCH   1   4
TORSDOF 9
ENDMDL
MODEL 8
REMARK VINA RESULT:    -7.371      3.495      9.320
REMARK INTER + INTRA:         -12.338
REMARK INTER:                 -10.964
REMARK INTRA:                  -1.374
REMARK UNBOUND:                -1.303
REMARK  9 active torsions:
REMARK  status: ('A' for Active; 'I' for Inactive)
REMARK       I    between atoms: C_2  and  N_3 
REMARK    1  A    between atoms: C_2  and  C_17 
REMARK    2  A    between atoms: N_3  and  C_5 
REMARK    3  A    between atoms: C_8  and  O_9 
REMARK    4  A    between atoms: O_9  and  C_10 
REMARK    5  A    between atoms: C_10  and  C_11 
REMARK    6  A    between atoms: C_11  and  C_12 
REMARK    7  A    between atoms: C_18  and  O_19 
REMARK    8  A    between atoms: C_25  and  C_26 
REMARK    9  A    between atoms: C_26  and  C_27 
ROOT
HETATM    1  C   UNL     1       0.635   6.324  31.131  0.00  0.00     0.110 C 
HETATM    2  C   UNL     1       1.993   6.079  31.768  0.00  0.00    -0.021 C 
HETATM    3  N   UNL     1       3.119   5.874  32.296  0.00  0.00    -0.102 N 
ENDROOT
BRANCH   1   4
HETATM    4  C   UNL     1       0.213   7.763  31.392  0.00  0.00     0.040 C 
BRANCH   4   5
HETATM    5  C   UNL     1       0.993   8.743  30.530  0.00  0.00     0.176 C 
BRANCH   5   6
HETATM    6  O   UNL     1       0.284   9.024  29.320  0.00  0.00    -0.351 OA
BRANCH   6   7
HETATM    7  C   UNL     1       0.819   8.454  28.194  0.00  0.00     0.068 A 
HETATM    8  C   UNL     1       0.121   8.190  27.024  0.00  0.00     0.039 A 
HETATM    9  C   UNL     1       0.768   7.646  25.909  0.00  0.00     0.032 A 
HETATM   10  C   UNL     1       2.141   7.361  25.907  0.00  0.00     0.037 A 
HETATM   11  C   UNL     1       2.816   7.570  27.123  0.00  0.00     0.032 A 
HETATM   12  C   UNL     1       2.169   8.120  28.247  0.00  0.00     0.039 A 
BRANCH  10  13
HETATM   13  N   UNL     1       2.805   6.871  24.712  0.00  0.00    -0.318 N 
HETATM   14  C   UNL     1       3.599   7.741  23.914  0.00  0.00     0.260 C 
HETATM   15  O   UNL     1       3.982   8.854  24.285  0.00  0.00    -0.267 OA
HETATM   16  C   UNL     1       2.743   5.432  24.451  0.00  0.00     0.159 C 
BRANCH  14  17
HETATM   17  C   UNL     1       4.107   7.347  22.562  0.00  0.00     0.066 A 
HETATM   18  C   UNL     1       5.292   6.584  22.490  0.00  0.00     0.083 A 
HETATM   19  C   UNL     1       5.848   6.176  21.277  0.00  0.00     0.069 A 
HETATM   20  C   UNL     1       5.185   6.571  20.116  0.00  0.00     0.065 A 
HETATM   21  N   UNL     1       5.470   6.343  18.799  0.00  0.00    -0.277 N 
HETATM   22  C   UNL     1       4.039   7.356  20.120  0.00  0.00     0.020 A 
HETATM   23  H   UNL     1       6.245   5.812  18.420  0.00  0.00     0.189 HD
HETATM   24  N   UNL     1       4.605   6.906  17.943  0.00  0.00    -0.178 NA
HETATM   25  C   UNL     1       3.731   7.551  18.733  0.00  0.00     0.071 A 
HETATM   26  C   UNL     1       3.508   7.778  21.362  0.00  0.00     0.035 A 
BRANCH  18  27
HETATM   27  O   UNL     1       6.005   6.201  23.603  0.00  0.00    -0.360 OA
HETATM   28  H   UNL     1       5.361   6.090  24.339  0.00  0.00     0.217 HD
ENDBRANCH  18  27
BRANCH  25  29
HETATM   29  C   UNL     1       2.625   8.345  18.097  0.00  0.00     0.100 C 
BRANCH  29  30
HETATM   30  C   UNL     1       1.672   7.363  17.452  0.00  0.00    -0.052 A 
HETATM   31  C   UNL     1       0.827   6.556  18.230  0.00  0.00     0.014 A 
HETATM   32  C   UNL     1       0.077   5.529  17.649  0.00  0.00    -0.061 A 
HETATM   33  C   UNL     1      -0.610   4.520  18.519  0.00  0.00     0.048 C 
HETATM   34  C   UNL     1       0.082   5.385  16.259  0.00  0.00     0.007 A 
HETATM   35  C   UNL     1       0.836   6.249  15.465  0.00  0.00     0.001 A 
HETATM   36  C   UNL     1       1.636   7.226  16.057  0.00  0.00     0.007 A 
ENDBRANCH  29  30
ENDBRANCH  25  29
ENDBRANCH  14  17
ENDBRANCH  10  13
ENDBRANCH   6   7
ENDBRANCH   5   6
ENDBRANCH   4   5
ENDBRANCH   1   4
TORSDOF 9
ENDMDL
MODEL 9
REMARK VINA RESULT:    -7.292      3.132      9.439
REMARK INTER + INTRA:         -12.218
REMARK INTER:                 -10.915
REMARK INTRA:                  -1.303
REMARK UNBOUND:                -1.303
REMARK  9 active torsions:
REMARK  status: ('A' for Active; 'I' for Inactive)
REMARK       I    between atoms: C_2  and  N_3 
REMARK    1  A    between atoms: C_2  and  C_17 
REMARK    2  A    between atoms: N_3  and  C_5 
REMARK    3  A    between atoms: C_8  and  O_9 
REMARK    4  A    between atoms: O_9  and  C_10 
REMARK    5  A    between atoms: C_10  and  C_11 
REMARK    6  A    between atoms: C_11  and  C_12 
REMARK    7  A    between atoms: C_18  and  O_19 
REMARK    8  A    between atoms: C_25  and  C_26 
REMARK    9  A    between atoms: C_26  and  C_27 
ROOT
HETATM    1  C   UNL     1       1.781   6.081  31.890  0.00  0.00     0.110 C 
HETATM    2  C   UNL     1       2.004   5.944  33.387  0.00  0.00    -0.021 C 
HETATM    3  N   UNL     1       2.191   5.829  34.629  0.00  0.00    -0.102 N 
ENDROOT
BRANCH   1   4
HETATM    4  C   UNL     1       0.538   6.926  31.645  0.00  0.00     0.040 C 
BRANCH   4   5
HETATM    5  C   UNL     1       0.896   8.351  31.256  0.00  0.00     0.176 C 
BRANCH   5   6
HETATM    6  O   UNL     1       0.145   8.763  30.110  0.00  0.00    -0.351 OA
BRANCH   6   7
HETATM    7  C   UNL     1       0.849   8.770  28.933  0.00  0.00     0.068 A 
HETATM    8  C   UNL     1       2.230   8.671  28.830  0.00  0.00     0.039 A 
HETATM    9  C   UNL     1       2.855   8.641  27.578  0.00  0.00     0.032 A 
HETATM   10  C   UNL     1       2.130   8.688  26.379  0.00  0.00     0.037 A 
HETATM   11  C   UNL     1       0.739   8.858  26.505  0.00  0.00     0.032 A 
HETATM   12  C   UNL     1       0.105   8.886  27.763  0.00  0.00     0.039 A 
BRANCH  10  13
HETATM   13  N   UNL     1       2.796   8.576  25.093  0.00  0.00    -0.318 N 
HETATM   14  C   UNL     1       3.044   7.301  24.513  0.00  0.00     0.260 C 
HETATM   15  O   UNL     1       2.516   6.255  24.903  0.00  0.00    -0.267 OA
HETATM   16  C   UNL     1       3.063   9.817  24.364  0.00  0.00     0.159 C 
BRANCH  14  17
HETATM   17  C   UNL     1       3.925   7.123  23.316  0.00  0.00     0.066 A 
HETATM   18  C   UNL     1       5.209   6.569  23.508  0.00  0.00     0.083 A 
HETATM   19  C   UNL     1       6.105   6.372  22.457  0.00  0.00     0.069 A 
HETATM   20  C   UNL     1       5.682   6.764  21.187  0.00  0.00     0.065 A 
HETATM   21  N   UNL     1       6.312   6.709  19.976  0.00  0.00    -0.277 N 
HETATM   22  C   UNL     1       4.448   7.352  20.940  0.00  0.00     0.020 A 
HETATM   23  H   UNL     1       7.238   6.347  19.779  0.00  0.00     0.189 HD
HETATM   24  N   UNL     1       5.594   7.206  18.958  0.00  0.00    -0.178 NA
HETATM   25  C   UNL     1       4.454   7.625  19.533  0.00  0.00     0.071 A 
HETATM   26  C   UNL     1       3.567   7.564  22.027  0.00  0.00     0.035 A 
BRANCH  18  27
HETATM   27  O   UNL     1       5.689   6.201  24.745  0.00  0.00    -0.360 OA
HETATM   28  H   UNL     1       5.798   7.025  25.273  0.00  0.00     0.217 HD
ENDBRANCH  18  27
BRANCH  25  29
HETATM   29  C   UNL     1       3.412   8.290  18.678  0.00  0.00     0.100 C 
BRANCH  29  30
HETATM   30  C   UNL     1       2.465   7.214  18.196  0.00  0.00    -0.052 A 
HETATM   31  C   UNL     1       2.355   6.903  16.831  0.00  0.00     0.014 A 
HETATM   32  C   UNL     1       1.359   6.039  16.368  0.00  0.00    -0.061 A 
HETATM   33  C   UNL     1       1.093   5.923  14.896  0.00  0.00     0.048 C 
HETATM   34  C   UNL     1       0.540   5.385  17.292  0.00  0.00     0.007 A 
HETATM   35  C   UNL     1       0.708   5.604  18.660  0.00  0.00     0.001 A 
HETATM   36  C   UNL     1       1.658   6.522  19.110  0.00  0.00     0.007 A 
ENDBRANCH  29  30
ENDBRANCH  25  29
ENDBRANCH  14  17
ENDBRANCH  10  13
ENDBRANCH   6   7
ENDBRANCH   5   6
ENDBRANCH   4   5
ENDBRANCH   1   4
TORSDOF 9
ENDMDL
