REMARK  9 active torsions:
REMARK  status: ('A' for Active; 'I' for Inactive)
REMARK       I    between atoms: C_2  and  N_3 
REMARK    1  A    between atoms: C_2  and  C_17 
REMARK    2  A    between atoms: N_3  and  C_5 
REMARK    3  A    between atoms: C_8  and  O_9 
REMARK    4  A    between atoms: O_9  and  C_10 
REMARK    5  A    between atoms: C_10  and  C_11 
REMARK    6  A    between atoms: C_11  and  C_12 
REMARK    7  A    between atoms: C_18  and  O_19 
REMARK    8  A    between atoms: C_25  and  C_26 
REMARK    9  A    between atoms: C_26  and  C_27 
ROOT
HETATM    1  C   UNL     1      -1.542  -8.134   2.135  0.00  0.00     0.110 C 
HETATM    2  C   UNL     1      -2.191  -9.389   2.694  0.00  0.00    -0.021 C 
HETATM    3  N   UNL     1      -2.730 -10.431   3.157  0.00  0.00    -0.102 N 
ENDROOT
BRANCH   1   4
HETATM    4  C   UNL     1      -0.946  -7.326   3.279  0.00  0.00     0.040 C 
BRANCH   4   5
HETATM    5  C   UNL     1      -0.240  -6.077   2.776  0.00  0.00     0.176 C 
BRANCH   5   6
HETATM    6  O   UNL     1      -1.172  -5.192   2.147  0.00  0.00    -0.351 OA
BRANCH   6   7
HETATM    7  C   UNL     1      -0.615  -4.062   1.605  0.00  0.00     0.068 A 
HETATM    8  C   UNL     1       0.725  -3.711   1.696  0.00  0.00     0.039 A 
HETATM    9  C   UNL     1       1.208  -2.557   1.069  0.00  0.00     0.032 A 
HETATM   10  C   UNL     1       0.381  -1.717   0.309  0.00  0.00     0.037 A 
HETATM   11  C   UNL     1      -0.985  -2.052   0.287  0.00  0.00     0.032 A 
HETATM   12  C   UNL     1      -1.475  -3.214   0.914  0.00  0.00     0.039 A 
BRANCH  10  13
HETATM   13  N   UNL     1       0.922  -0.569  -0.397  0.00  0.00    -0.318 N 
HETATM   14  C   UNL     1       2.315  -0.476  -0.672  0.00  0.00     0.260 C 
HETATM   15  O   UNL     1       3.099  -1.425  -0.572  0.00  0.00    -0.267 OA
HETATM   16  C   UNL     1      -0.033   0.401  -0.934  0.00  0.00     0.159 C 
BRANCH  14  17
HETATM   17  C   UNL     1       2.949   0.780  -1.183  0.00  0.00     0.066 A 
HETATM   18  C   UNL     1       4.079   0.664  -2.021  0.00  0.00     0.083 A 
HETATM   19  C   UNL     1       4.743   1.776  -2.540  0.00  0.00     0.069 A 
HETATM   20  C   UNL     1       4.249   3.029  -2.181  0.00  0.00     0.065 A 
HETATM   21  N   UNL     1       4.669   4.287  -2.512  0.00  0.00    -0.277 N 
HETATM   22  C   UNL     1       3.167   3.209  -1.329  0.00  0.00     0.020 A 
HETATM   23  H   UNL     1       5.445   4.539  -3.113  0.00  0.00     0.189 HD
HETATM   24  N   UNL     1       3.951   5.272  -1.953  0.00  0.00    -0.178 NA
HETATM   25  C   UNL     1       3.037   4.631  -1.206  0.00  0.00     0.071 A 
HETATM   26  C   UNL     1       2.525   2.066  -0.795  0.00  0.00     0.035 A 
BRANCH  18  27
HETATM   27  O   UNL     1       4.629  -0.547  -2.374  0.00  0.00    -0.360 OA
HETATM   28  H   UNL     1       4.252  -1.227  -1.770  0.00  0.00     0.217 HD
ENDBRANCH  18  27
BRANCH  25  29
HETATM   29  C   UNL     1       2.071   5.441  -0.388  0.00  0.00     0.100 C 
BRANCH  29  30
HETATM   30  C   UNL     1       2.178   4.967   1.044  0.00  0.00    -0.052 A 
HETATM   31  C   UNL     1       3.426   4.843   1.676  0.00  0.00     0.014 A 
HETATM   32  C   UNL     1       3.540   4.241   2.932  0.00  0.00    -0.061 A 
HETATM   33  C   UNL     1       4.893   3.884   3.471  0.00  0.00     0.048 C 
HETATM   34  C   UNL     1       2.380   3.866   3.616  0.00  0.00     0.007 A 
HETATM   35  C   UNL     1       1.126   4.080   3.044  0.00  0.00     0.001 A 
HETATM   36  C   UNL     1       1.024   4.617   1.760  0.00  0.00     0.007 A 
ENDBRANCH  29  30
ENDBRANCH  25  29
ENDBRANCH  14  17
ENDBRANCH  10  13
ENDBRANCH   6   7
ENDBRANCH   5   6
ENDBRANCH   4   5
ENDBRANCH   1   4
TORSDOF 9
