MODEL 1
REMARK VINA RESULT:    -6.183      0.000      0.000
REMARK INTER + INTRA:          -8.883
REMARK INTER:                  -7.747
REMARK INTRA:                  -1.136
REMARK UNBOUND:                -0.892
REMARK  5 active torsions:
REMARK  status: ('A' for Active; 'I' for Inactive)
REMARK    1  A    between atoms: N8_1  and  C24_2 
REMARK    2  A    between atoms: N8_1  and  C7_8 
REMARK    3  A    between atoms: C2_13  and  N1_14 
REMARK    4  A    between atoms: N1_14  and  C17_15 
REMARK    5  A    between atoms: C14_16  and  C13_19 
ROOT
ATOM      1  C17 FTA A   1       7.432  12.478  11.295  1.00  0.00     0.142 C 
ATOM      2  C14 FTA A   1       7.760  12.406   9.989  1.00  0.00     0.158 C 
ATOM      3  C18 FTA A   1       8.438  13.511   9.347  1.00  0.00     0.069 C 
ATOM      4  N21 FTA A   1       8.930  14.498   8.949  1.00  0.00    -0.197 NA
ENDROOT
BRANCH   2   5
ATOM      5  C13 FTA A   1       7.434  11.181   9.224  1.00  0.00     0.197 A 
ATOM      6  N15 FTA A   1       8.349  10.323   8.617  1.00  0.00    -0.093 NA
ATOM      7  N19 FTA A   1       7.625   9.331   7.969  1.00  0.00    -0.231 N 
ATOM      8  N20 FTA A   1       6.270   9.558   8.160  1.00  0.00    -0.017 NA
ATOM      9  H15 FTA A   1       8.029   8.550   7.431  1.00  0.00     0.200 HD
ATOM     10  N16 FTA A   1       6.150  10.699   8.947  1.00  0.00    -0.090 NA
ENDBRANCH   2   5
BRANCH   1  11
ATOM     11  N1  FTA A   1       6.159  12.238  11.661  1.00  0.00    -0.389 N 
ATOM     12  H11 FTA A   1       5.970  11.374  12.190  1.00  0.00     0.159 HD
BRANCH  11  13
ATOM     13  C2  FTA A   1       5.054  13.087  11.374  1.00  0.00     0.028 A 
ATOM     14  C4  FTA A   1       5.045  14.434  11.725  1.00  0.00     0.031 A 
ATOM     15  C6  FTA A   1       3.846  15.154  11.624  1.00  0.00     0.031 A 
ATOM     16  C7  FTA A   1       2.663  14.565  11.186  1.00  0.00     0.032 A 
ATOM     17  C5  FTA A   1       2.696  13.231  10.817  1.00  0.00     0.031 A 
ATOM     18  C3  FTA A   1       3.870  12.497  10.923  1.00  0.00     0.031 A 
BRANCH  16  19
ATOM     19  N8  FTA A   1       1.403  15.210  11.274  1.00  0.00    -0.356 N 
ATOM     20  H1  FTA A   1       1.366  16.209  11.024  1.00  0.00     0.166 HD
BRANCH  19  21
ATOM     21  C24 FTA A   1       0.183  14.590  11.681  1.00  0.00     0.032 A 
ATOM     22  C26 FTA A   1      -0.024  14.193  12.981  1.00  0.00     0.029 A 
ATOM     23  C28 FTA A   1      -1.150  13.446  13.273  1.00  0.00     0.002 A 
ATOM     24  C30 FTA A   1      -2.089  13.111  12.313  1.00  0.00     0.000 A 
ATOM     25  C29 FTA A   1      -1.913  13.532  11.022  1.00  0.00     0.002 A 
ATOM     26  C27 FTA A   1      -0.772  14.286  10.722  1.00  0.00     0.029 A 
ENDBRANCH  19  21
ENDBRANCH  16  19
ENDBRANCH  11  13
ENDBRANCH   1  11
TORSDOF 5
ENDMDL
MODEL 2
REMARK VINA RESULT:    -5.974      1.103      1.792
REMARK INTER + INTRA:          -8.612
REMARK INTER:                  -7.590
REMARK INTRA:                  -1.023
REMARK UNBOUND:                -0.892
REMARK  5 active torsions:
REMARK  status: ('A' for Active; 'I' for Inactive)
REMARK    1  A    between atoms: N8_1  and  C24_2 
REMARK    2  A    between atoms: N8_1  and  C7_8 
REMARK    3  A    between atoms: C2_13  and  N1_14 
REMARK    4  A    between atoms: N1_14  and  C17_15 
REMARK    5  A    between atoms: C14_16  and  C13_19 
ROOT
ATOM      1  C17 FTA A   1       7.196  13.277  10.747  1.00  0.00     0.142 C 
ATOM      2  C14 FTA A   1       7.815  12.338  10.004  1.00  0.00     0.158 C 
ATOM      3  C18 FTA A   1       9.255  12.357   9.860  1.00  0.00     0.069 C 
ATOM      4  N21 FTA A   1      10.412  12.531   9.785  1.00  0.00    -0.197 NA
ENDROOT
BRANCH   2   5
ATOM      5  C13 FTA A   1       7.012  11.278   9.353  1.00  0.00     0.197 A 
ATOM      6  N15 FTA A   1       7.212   9.904   9.471  1.00  0.00    -0.093 NA
ATOM      7  N19 FTA A   1       6.272   9.275   8.665  1.00  0.00    -0.231 N 
ATOM      8  N20 FTA A   1       5.489  10.236   8.043  1.00  0.00    -0.017 NA
ATOM      9  H15 FTA A   1       6.173   8.256   8.548  1.00  0.00     0.200 HD
ATOM     10  N16 FTA A   1       5.939  11.479   8.476  1.00  0.00    -0.090 NA
ENDBRANCH   2   5
BRANCH   1  11
ATOM     11  N1  FTA A   1       6.184  13.977  10.199  1.00  0.00    -0.389 N 
ATOM     12  H11 FTA A   1       6.348  14.410   9.279  1.00  0.00     0.159 HD
BRANCH  11  13
ATOM     13  C2  FTA A   1       4.906  14.164  10.794  1.00  0.00     0.028 A 
ATOM     14  C4  FTA A   1       3.910  13.193  10.729  1.00  0.00     0.031 A 
ATOM     15  C6  FTA A   1       2.609  13.527  11.130  1.00  0.00     0.031 A 
ATOM     16  C7  FTA A   1       2.279  14.799  11.589  1.00  0.00     0.032 A 
ATOM     17  C5  FTA A   1       3.286  15.745  11.671  1.00  0.00     0.031 A 
ATOM     18  C3  FTA A   1       4.579  15.438  11.266  1.00  0.00     0.031 A 
BRANCH  16  19
ATOM     19  N8  FTA A   1       0.940  15.219  11.799  1.00  0.00    -0.356 N 
ATOM     20  H1  FTA A   1       0.791  16.199  12.079  1.00  0.00     0.166 HD
BRANCH  19  21
ATOM     21  C24 FTA A   1      -0.217  14.395  11.654  1.00  0.00     0.032 A 
ATOM     22  C26 FTA A   1      -0.948  14.378  10.491  1.00  0.00     0.029 A 
ATOM     23  C28 FTA A   1      -2.150  13.695  10.473  1.00  0.00     0.002 A 
ATOM     24  C30 FTA A   1      -2.626  13.003  11.574  1.00  0.00     0.000 A 
ATOM     25  C29 FTA A   1      -1.888  12.980  12.727  1.00  0.00     0.002 A 
ATOM     26  C27 FTA A   1      -0.673  13.674  12.748  1.00  0.00     0.029 A 
ENDBRANCH  19  21
ENDBRANCH  16  19
ENDBRANCH  11  13
ENDBRANCH   1  11
TORSDOF 5
ENDMDL
MODEL 3
REMARK VINA RESULT:    -5.967      2.431      8.036
REMARK INTER + INTRA:          -8.603
REMARK INTER:                  -7.516
REMARK INTRA:                  -1.086
REMARK UNBOUND:                -0.892
REMARK  5 active torsions:
REMARK  status: ('A' for Active; 'I' for Inactive)
REMARK    1  A    between atoms: N8_1  and  C24_2 
REMARK    2  A    between atoms: N8_1  and  C7_8 
REMARK    3  A    between atoms: C2_13  and  N1_14 
REMARK    4  A    between atoms: N1_14  and  C17_15 
REMARK    5  A    between atoms: C14_16  and  C13_19 
ROOT
ATOM      1  C17 FTA A   1       1.387  16.036  11.155  1.00  0.00     0.142 C 
ATOM      2  C14 FTA A   1       1.208  15.799  12.469  1.00  0.00     0.158 C 
ATOM      3  C18 FTA A   1       1.842  16.647  13.455  1.00  0.00     0.069 C 
ATOM      4  N21 FTA A   1       2.460  17.376  14.134  1.00  0.00    -0.197 NA
ENDROOT
BRANCH   2   5
ATOM      5  C13 FTA A   1       0.345  14.673  12.895  1.00  0.00     0.197 A 
ATOM      6  N15 FTA A   1      -0.140  13.654  12.077  1.00  0.00    -0.093 NA
ATOM      7  N19 FTA A   1      -0.942  12.835  12.861  1.00  0.00    -0.231 N 
ATOM      8  N20 FTA A   1      -0.968  13.330  14.157  1.00  0.00    -0.017 NA
ATOM      9  H15 FTA A   1      -1.439  11.995  12.533  1.00  0.00     0.200 HD
ATOM     10  N16 FTA A   1      -0.162  14.463  14.182  1.00  0.00    -0.090 NA
ENDBRANCH   2   5
BRANCH   1  11
ATOM     11  N1  FTA A   1       1.810  15.032  10.363  1.00  0.00    -0.389 N 
ATOM     12  H11 FTA A   1       1.147  14.665   9.665  1.00  0.00     0.159 HD
BRANCH  11  13
ATOM     13  C2  FTA A   1       3.102  14.442  10.415  1.00  0.00     0.028 A 
ATOM     14  C4  FTA A   1       3.320  13.185  10.975  1.00  0.00     0.031 A 
ATOM     15  C6  FTA A   1       4.636  12.763  11.205  1.00  0.00     0.031 A 
ATOM     16  C7  FTA A   1       5.735  13.560  10.893  1.00  0.00     0.032 A 
ATOM     17  C5  FTA A   1       5.502  14.794  10.314  1.00  0.00     0.031 A 
ATOM     18  C3  FTA A   1       4.204  15.237  10.091  1.00  0.00     0.031 A 
BRANCH  16  19
ATOM     19  N8  FTA A   1       7.055  13.245  11.304  1.00  0.00    -0.356 N 
ATOM     20  H1  FTA A   1       7.380  13.647  12.195  1.00  0.00     0.166 HD
BRANCH  19  21
ATOM     21  C24 FTA A   1       7.971  12.419  10.585  1.00  0.00     0.032 A 
ATOM     22  C26 FTA A   1       9.243  12.844  10.284  1.00  0.00     0.029 A 
ATOM     23  C28 FTA A   1      10.018  12.071   9.441  1.00  0.00     0.002 A 
ATOM     24  C30 FTA A   1       9.572  10.871   8.914  1.00  0.00     0.000 A 
ATOM     25  C29 FTA A   1       8.321  10.417   9.237  1.00  0.00     0.002 A 
ATOM     26  C27 FTA A   1       7.532  11.200  10.088  1.00  0.00     0.029 A 
ENDBRANCH  19  21
ENDBRANCH  16  19
ENDBRANCH  11  13
ENDBRANCH   1  11
TORSDOF 5
ENDMDL
MODEL 4
REMARK VINA RESULT:    -5.906      1.285      1.638
REMARK INTER + INTRA:          -8.524
REMARK INTER:                  -7.502
REMARK INTRA:                  -1.022
REMARK UNBOUND:                -0.892
REMARK  5 active torsions:
REMARK  status: ('A' for Active; 'I' for Inactive)
REMARK    1  A    between atoms: N8_1  and  C24_2 
REMARK    2  A    between atoms: N8_1  and  C7_8 
REMARK    3  A    between atoms: C2_13  and  N1_14 
REMARK    4  A    between atoms: N1_14  and  C17_15 
REMARK    5  A    between atoms: C14_16  and  C13_19 
ROOT
ATOM      1  C17 FTA A   1       7.471  13.707  10.684  1.00  0.00     0.142 C 
ATOM      2  C14 FTA A   1       8.485  12.917  10.279  1.00  0.00     0.158 C 
ATOM      3  C18 FTA A   1       9.852  13.381  10.377  1.00  0.00     0.069 C 
ATOM      4  N21 FTA A   1      10.897  13.907  10.461  1.00  0.00    -0.197 NA
ENDROOT
BRANCH   2   5
ATOM      5  C13 FTA A   1       8.189  11.566   9.749  1.00  0.00     0.197 A 
ATOM      6  N15 FTA A   1       7.089  10.777  10.078  1.00  0.00    -0.093 NA
ATOM      7  N19 FTA A   1       7.220   9.574   9.396  1.00  0.00    -0.231 N 
ATOM      8  N20 FTA A   1       8.387   9.599   8.648  1.00  0.00    -0.017 NA
ATOM      9  H15 FTA A   1       6.555   8.787   9.440  1.00  0.00     0.200 HD
ATOM     10  N16 FTA A   1       8.984  10.838   8.857  1.00  0.00    -0.090 NA
ENDBRANCH   2   5
BRANCH   1  11
ATOM     11  N1  FTA A   1       6.453  13.947   9.835  1.00  0.00    -0.389 N 
ATOM     12  H11 FTA A   1       6.682  14.059   8.836  1.00  0.00     0.159 HD
BRANCH  11  13
ATOM     13  C2  FTA A   1       5.086  14.056  10.211  1.00  0.00     0.028 A 
ATOM     14  C4  FTA A   1       4.529  15.259  10.635  1.00  0.00     0.031 A 
ATOM     15  C6  FTA A   1       3.249  15.251  11.208  1.00  0.00     0.031 A 
ATOM     16  C7  FTA A   1       2.518  14.078  11.368  1.00  0.00     0.032 A 
ATOM     17  C5  FTA A   1       3.075  12.894  10.918  1.00  0.00     0.031 A 
ATOM     18  C3  FTA A   1       4.348  12.879  10.360  1.00  0.00     0.031 A 
BRANCH  16  19
ATOM     19  N8  FTA A   1       1.322  14.014  12.128  1.00  0.00    -0.356 N 
ATOM     20  H1  FTA A   1       1.415  13.978  13.153  1.00  0.00     0.166 HD
BRANCH  19  21
ATOM     21  C24 FTA A   1      -0.000  13.997  11.588  1.00  0.00     0.032 A 
ATOM     22  C26 FTA A   1      -1.032  13.353  12.230  1.00  0.00     0.029 A 
ATOM     23  C28 FTA A   1      -2.242  13.224  11.575  1.00  0.00     0.002 A 
ATOM     24  C30 FTA A   1      -2.462  13.747  10.312  1.00  0.00     0.000 A 
ATOM     25  C29 FTA A   1      -1.454  14.424   9.678  1.00  0.00     0.002 A 
ATOM     26  C27 FTA A   1      -0.227  14.552  10.337  1.00  0.00     0.029 A 
ENDBRANCH  19  21
ENDBRANCH  16  19
ENDBRANCH  11  13
ENDBRANCH   1  11
TORSDOF 5
ENDMDL
MODEL 5
REMARK VINA RESULT:    -5.890      7.556     10.944
REMARK INTER + INTRA:          -8.504
REMARK INTER:                  -7.612
REMARK INTRA:                  -0.892
REMARK UNBOUND:                -0.892
REMARK  5 active torsions:
REMARK  status: ('A' for Active; 'I' for Inactive)
REMARK    1  A    between atoms: N8_1  and  C24_2 
REMARK    2  A    between atoms: N8_1  and  C7_8 
REMARK    3  A    between atoms: C2_13  and  N1_14 
REMARK    4  A    between atoms: N1_14  and  C17_15 
REMARK    5  A    between atoms: C14_16  and  C13_19 
ROOT
ATOM      1  C17 FTA A   1       1.081  16.951  16.330  1.00  0.00     0.142 C 
ATOM      2  C14 FTA A   1      -0.041  16.315  15.935  1.00  0.00     0.158 C 
ATOM      3  C18 FTA A   1      -1.294  16.561  16.617  1.00  0.00     0.069 C 
ATOM      4  N21 FTA A   1      -2.217  16.812  17.294  1.00  0.00    -0.197 NA
ENDROOT
BRANCH   2   5
ATOM      5  C13 FTA A   1       0.018  15.378  14.791  1.00  0.00     0.197 A 
ATOM      6  N15 FTA A   1      -0.594  14.128  14.719  1.00  0.00    -0.093 NA
ATOM      7  N19 FTA A   1      -0.249  13.563  13.498  1.00  0.00    -0.231 N 
ATOM      8  N20 FTA A   1       0.572  14.442  12.806  1.00  0.00    -0.017 NA
ATOM      9  H15 FTA A   1      -0.554  12.639  13.160  1.00  0.00     0.200 HD
ATOM     10  N16 FTA A   1       0.730  15.572  13.601  1.00  0.00    -0.090 NA
ENDBRANCH   2   5
BRANCH   1  11
ATOM     11  N1  FTA A   1       2.178  16.222  16.608  1.00  0.00    -0.389 N 
ATOM     12  H11 FTA A   1       2.236  15.275  16.206  1.00  0.00     0.159 HD
BRANCH  11  13
ATOM     13  C2  FTA A   1       3.264  16.659  17.415  1.00  0.00     0.028 A 
ATOM     14  C4  FTA A   1       3.177  17.787  18.227  1.00  0.00     0.031 A 
ATOM     15  C6  FTA A   1       4.344  18.295  18.813  1.00  0.00     0.031 A 
ATOM     16  C7  FTA A   1       5.591  17.709  18.608  1.00  0.00     0.032 A 
ATOM     17  C5  FTA A   1       5.657  16.574  17.819  1.00  0.00     0.031 A 
ATOM     18  C3  FTA A   1       4.513  16.063  17.218  1.00  0.00     0.031 A 
BRANCH  16  19
ATOM     19  N8  FTA A   1       6.804  18.320  19.015  1.00  0.00    -0.356 N 
ATOM     20  H1  FTA A   1       7.496  18.530  18.282  1.00  0.00     0.166 HD
BRANCH  19  21
ATOM     21  C24 FTA A   1       7.146  18.667  20.357  1.00  0.00     0.032 A 
ATOM     22  C26 FTA A   1       7.470  19.956  20.708  1.00  0.00     0.029 A 
ATOM     23  C28 FTA A   1       7.957  20.194  21.979  1.00  0.00     0.002 A 
ATOM     24  C30 FTA A   1       8.100  19.189  22.920  1.00  0.00     0.000 A 
ATOM     25  C29 FTA A   1       7.745  17.907  22.596  1.00  0.00     0.002 A 
ATOM     26  C27 FTA A   1       7.255  17.662  21.308  1.00  0.00     0.029 A 
ENDBRANCH  19  21
ENDBRANCH  16  19
ENDBRANCH  11  13
ENDBRANCH   1  11
TORSDOF 5
ENDMDL
MODEL 6
REMARK VINA RESULT:    -5.882      1.291      2.072
REMARK INTER + INTRA:          -8.493
REMARK INTER:                  -7.474
REMARK INTRA:                  -1.019
REMARK UNBOUND:                -0.892
REMARK  5 active torsions:
REMARK  status: ('A' for Active; 'I' for Inactive)
REMARK    1  A    between atoms: N8_1  and  C24_2 
REMARK    2  A    between atoms: N8_1  and  C7_8 
REMARK    3  A    between atoms: C2_13  and  N1_14 
REMARK    4  A    between atoms: N1_14  and  C17_15 
REMARK    5  A    between atoms: C14_16  and  C13_19 
ROOT
ATOM      1  C17 FTA A   1       7.735  13.637  10.829  1.00  0.00     0.142 C 
ATOM      2  C14 FTA A   1       8.675  12.840  10.283  1.00  0.00     0.158 C 
ATOM      3  C18 FTA A   1      10.058  13.265  10.250  1.00  0.00     0.069 C 
ATOM      4  N21 FTA A   1      11.121  13.760  10.242  1.00  0.00    -0.197 NA
ENDROOT
BRANCH   2   5
ATOM      5  C13 FTA A   1       8.283  11.523   9.733  1.00  0.00     0.197 A 
ATOM      6  N15 FTA A   1       7.174  10.770  10.112  1.00  0.00    -0.093 NA
ATOM      7  N19 FTA A   1       7.204   9.587   9.386  1.00  0.00    -0.231 N 
ATOM      8  N20 FTA A   1       8.318   9.588   8.559  1.00  0.00    -0.017 NA
ATOM      9  H15 FTA A   1       6.510   8.828   9.450  1.00  0.00     0.200 HD
ATOM     10  N16 FTA A   1       8.983  10.792   8.765  1.00  0.00    -0.090 NA
ENDBRANCH   2   5
BRANCH   1  11
ATOM     11  N1  FTA A   1       6.638  13.939  10.108  1.00  0.00    -0.389 N 
ATOM     12  H11 FTA A   1       6.758  14.070   9.092  1.00  0.00     0.159 HD
BRANCH  11  13
ATOM     13  C2  FTA A   1       5.329  14.092  10.639  1.00  0.00     0.028 A 
ATOM     14  C4  FTA A   1       4.403  13.052  10.640  1.00  0.00     0.031 A 
ATOM     15  C6  FTA A   1       3.068  13.330  10.963  1.00  0.00     0.031 A 
ATOM     16  C7  FTA A   1       2.636  14.615  11.282  1.00  0.00     0.032 A 
ATOM     17  C5  FTA A   1       3.573  15.632  11.302  1.00  0.00     0.031 A 
ATOM     18  C3  FTA A   1       4.898  15.380  10.971  1.00  0.00     0.031 A 
BRANCH  16  19
ATOM     19  N8  FTA A   1       1.265  14.957  11.406  1.00  0.00    -0.356 N 
ATOM     20  H1  FTA A   1       0.881  15.623  10.721  1.00  0.00     0.166 HD
BRANCH  19  21
ATOM     21  C24 FTA A   1       0.374  14.454  12.402  1.00  0.00     0.032 A 
ATOM     22  C26 FTA A   1      -0.620  13.556  12.092  1.00  0.00     0.029 A 
ATOM     23  C28 FTA A   1      -1.553  13.241  13.061  1.00  0.00     0.002 A 
ATOM     24  C30 FTA A   1      -1.506  13.773  14.339  1.00  0.00     0.000 A 
ATOM     25  C29 FTA A   1      -0.499  14.639  14.671  1.00  0.00     0.002 A 
ATOM     26  C27 FTA A   1       0.446  14.962  13.691  1.00  0.00     0.029 A 
ENDBRANCH  19  21
ENDBRANCH  16  19
ENDBRANCH  11  13
ENDBRANCH   1  11
TORSDOF 5
ENDMDL
MODEL 7
REMARK VINA RESULT:    -5.793      2.640      8.146
REMARK INTER + INTRA:          -8.379
REMARK INTER:                  -7.284
REMARK INTRA:                  -1.095
REMARK UNBOUND:                -0.892
REMARK  5 active torsions:
REMARK  status: ('A' for Active; 'I' for Inactive)
REMARK    1  A    between atoms: N8_1  and  C24_2 
REMARK    2  A    between atoms: N8_1  and  C7_8 
REMARK    3  A    between atoms: C2_13  and  N1_14 
REMARK    4  A    between atoms: N1_14  and  C17_15 
REMARK    5  A    between atoms: C14_16  and  C13_19 
ROOT
ATOM      1  C17 FTA A   1       1.928  16.775  12.179  1.00  0.00     0.142 C 
ATOM      2  C14 FTA A   1       1.884  16.520  13.502  1.00  0.00     0.158 C 
ATOM      3  C18 FTA A   1       2.895  17.066  14.382  1.00  0.00     0.069 C 
ATOM      4  N21 FTA A   1       3.807  17.523  14.961  1.00  0.00    -0.197 NA
ENDROOT
BRANCH   2   5
ATOM      5  C13 FTA A   1       0.785  15.692  14.048  1.00  0.00     0.197 A 
ATOM      6  N15 FTA A   1       0.325  15.699  15.363  1.00  0.00    -0.093 NA
ATOM      7  N19 FTA A   1      -0.680  14.746  15.460  1.00  0.00    -0.231 N 
ATOM      8  N20 FTA A   1      -0.853  14.140  14.224  1.00  0.00    -0.017 NA
ATOM      9  H15 FTA A   1      -1.212  14.523  16.313  1.00  0.00     0.200 HD
ATOM     10  N16 FTA A   1       0.047  14.733  13.344  1.00  0.00    -0.090 NA
ENDBRANCH   2   5
BRANCH   1  11
ATOM     11  N1  FTA A   1       1.888  15.742  11.316  1.00  0.00    -0.389 N 
ATOM     12  H11 FTA A   1       1.018  15.602  10.781  1.00  0.00     0.159 HD
BRANCH  11  13
ATOM     13  C2  FTA A   1       2.953  14.829  11.086  1.00  0.00     0.028 A 
ATOM     14  C4  FTA A   1       2.742  13.458  10.964  1.00  0.00     0.031 A 
ATOM     15  C6  FTA A   1       3.847  12.596  10.971  1.00  0.00     0.031 A 
ATOM     16  C7  FTA A   1       5.151  13.066  11.098  1.00  0.00     0.032 A 
ATOM     17  C5  FTA A   1       5.346  14.433  11.193  1.00  0.00     0.031 A 
ATOM     18  C3  FTA A   1       4.263  15.303  11.201  1.00  0.00     0.031 A 
BRANCH  16  19
ATOM     19  N8  FTA A   1       6.260  12.210  11.316  1.00  0.00    -0.356 N 
ATOM     20  H1  FTA A   1       6.489  11.973  12.293  1.00  0.00     0.166 HD
BRANCH  19  21
ATOM     21  C24 FTA A   1       7.085  11.648  10.295  1.00  0.00     0.032 A 
ATOM     22  C26 FTA A   1       6.615  10.677   9.442  1.00  0.00     0.029 A 
ATOM     23  C28 FTA A   1       7.509  10.053   8.593  1.00  0.00     0.002 A 
ATOM     24  C30 FTA A   1       8.851  10.391   8.548  1.00  0.00     0.000 A 
ATOM     25  C29 FTA A   1       9.323  11.383   9.365  1.00  0.00     0.002 A 
ATOM     26  C27 FTA A   1       8.421  12.014  10.229  1.00  0.00     0.029 A 
ENDBRANCH  19  21
ENDBRANCH  16  19
ENDBRANCH  11  13
ENDBRANCH   1  11
TORSDOF 5
ENDMDL
MODEL 8
REMARK VINA RESULT:    -5.726      2.159      8.577
REMARK INTER + INTRA:          -8.292
REMARK INTER:                  -7.346
REMARK INTRA:                  -0.947
REMARK UNBOUND:                -0.892
REMARK  5 active torsions:
REMARK  status: ('A' for Active; 'I' for Inactive)
REMARK    1  A    between atoms: N8_1  and  C24_2 
REMARK    2  A    between atoms: N8_1  and  C7_8 
REMARK    3  A    between atoms: C2_13  and  N1_14 
REMARK    4  A    between atoms: N1_14  and  C17_15 
REMARK    5  A    between atoms: C14_16  and  C13_19 
ROOT
ATOM      1  C17 FTA A   1       0.488  14.894  10.998  1.00  0.00     0.142 C 
ATOM      2  C14 FTA A   1      -0.486  15.244  11.861  1.00  0.00     0.158 C 
ATOM      3  C18 FTA A   1      -1.703  15.856  11.376  1.00  0.00     0.069 C 
ATOM      4  N21 FTA A   1      -2.604  16.392  10.849  1.00  0.00    -0.197 NA
ENDROOT
BRANCH   2   5
ATOM      5  C13 FTA A   1      -0.304  14.983  13.308  1.00  0.00     0.197 A 
ATOM      6  N15 FTA A   1      -0.861  13.928  14.029  1.00  0.00    -0.093 NA
ATOM      7  N19 FTA A   1      -0.479  14.082  15.355  1.00  0.00    -0.231 N 
ATOM      8  N20 FTA A   1       0.307  15.219  15.474  1.00  0.00    -0.017 NA
ATOM      9  H15 FTA A   1      -0.737  13.452  16.128  1.00  0.00     0.200 HD
ATOM     10  N16 FTA A   1       0.426  15.773  14.203  1.00  0.00    -0.090 NA
ENDBRANCH   2   5
BRANCH   1  11
ATOM     11  N1  FTA A   1       1.742  15.334  11.216  1.00  0.00    -0.389 N 
ATOM     12  H11 FTA A   1       1.856  16.306  11.536  1.00  0.00     0.159 HD
BRANCH  11  13
ATOM     13  C2  FTA A   1       2.920  14.558  11.039  1.00  0.00     0.028 A 
ATOM     14  C4  FTA A   1       2.879  13.178  10.856  1.00  0.00     0.031 A 
ATOM     15  C6  FTA A   1       4.073  12.448  10.920  1.00  0.00     0.031 A 
ATOM     16  C7  FTA A   1       5.302  13.057  11.162  1.00  0.00     0.032 A 
ATOM     17  C5  FTA A   1       5.329  14.432  11.317  1.00  0.00     0.031 A 
ATOM     18  C3  FTA A   1       4.154  15.172  11.271  1.00  0.00     0.031 A 
BRANCH  16  19
ATOM     19  N8  FTA A   1       6.484  12.323  11.438  1.00  0.00    -0.356 N 
ATOM     20  H1  FTA A   1       6.717  12.157  12.427  1.00  0.00     0.166 HD
BRANCH  19  21
ATOM     21  C24 FTA A   1       7.377  11.796  10.456  1.00  0.00     0.032 A 
ATOM     22  C26 FTA A   1       7.096  10.635   9.776  1.00  0.00     0.029 A 
ATOM     23  C28 FTA A   1       8.074  10.087   8.969  1.00  0.00     0.002 A 
ATOM     24  C30 FTA A   1       9.314  10.680   8.797  1.00  0.00     0.000 A 
ATOM     25  C29 FTA A   1       9.592  11.857   9.439  1.00  0.00     0.002 A 
ATOM     26  C27 FTA A   1       8.604  12.413  10.260  1.00  0.00     0.029 A 
ENDBRANCH  19  21
ENDBRANCH  16  19
ENDBRANCH  11  13
ENDBRANCH   1  11
TORSDOF 5
ENDMDL
