MODEL 1
REMARK VINA RESULT:    -8.776      0.000      0.000
REMARK INTER + INTRA:         -12.990
REMARK INTER:                 -10.802
REMARK INTRA:                  -2.188
REMARK UNBOUND:                -1.392
REMARK  6 active torsions:
REMARK  status: ('A' for Active; 'I' for Inactive)
REMARK    1  A    between atoms: C_7  and  C_8 
REMARK    2  A    between atoms: C_8  and  C_9 
REMARK    3  A    between atoms: C_16  and  C_20 
REMARK    4  A    between atoms: C_17  and  O_19 
REMARK       I    between atoms: C_20  and  N_22 
REMARK    5  A    between atoms: N_22  and  C_24 
REMARK    6  A    between atoms: C_27  and  C_28 
ROOT
HETATM    1  C   UNL     1       3.050  11.496  23.193  0.00  0.00     0.071 A 
HETATM    2  N   UNL     1       2.559  10.536  23.995  0.00  0.00    -0.178 NA
HETATM    3  N   UNL     1       3.385   9.497  23.804  0.00  0.00    -0.277 N 
HETATM    4  H   UNL     1       3.202   8.639  24.313  0.00  0.00     0.189 HD
HETATM    5  C   UNL     1       4.214  11.054  22.499  0.00  0.00     0.020 A 
HETATM    6  C   UNL     1       4.347   9.717  22.857  0.00  0.00     0.065 A 
HETATM    7  C   UNL     1       5.113  11.608  21.569  0.00  0.00     0.035 C 
HETATM    8  C   UNL     1       6.088  10.778  20.986  0.00  0.00     0.066 C 
HETATM    9  C   UNL     1       6.088   9.404  21.271  0.00  0.00     0.083 C 
HETATM   10  C   UNL     1       5.271   8.856  22.261  0.00  0.00     0.069 C 
ENDROOT
BRANCH   8  11
HETATM   11  C   UNL     1       7.087  11.331  20.028  0.00  0.00     0.260 C 
HETATM   12  O   UNL     1       6.918  11.016  18.844  0.00  0.00    -0.267 OA
HETATM   13  N   UNL     1       8.107  12.206  20.460  0.00  0.00    -0.318 N 
HETATM   14  C   UNL     1       8.833  12.955  19.436  0.00  0.00     0.159 C 
BRANCH  13  15
HETATM   15  C   UNL     1       8.576  12.319  21.809  0.00  0.00     0.037 A 
HETATM   16  C   UNL     1       8.195  13.398  22.613  0.00  0.00     0.030 A 
HETATM   17  C   UNL     1       8.750  13.581  23.882  0.00  0.00     0.017 A 
HETATM   18  C   UNL     1       9.688  12.680  24.394  0.00  0.00     0.009 A 
HETATM   19  C   UNL     1      10.004  11.548  23.642  0.00  0.00     0.017 A 
HETATM   20  C   UNL     1       9.439  11.360  22.361  0.00  0.00     0.030 A 
BRANCH  18  21
HETATM   21  C   UNL     1      10.300  13.012  25.723  0.00  0.00     0.155 C 
HETATM   22  O   UNL     1      10.653  12.089  26.464  0.00  0.00    -0.293 OA
HETATM   23  C   UNL     1      10.451  14.430  26.194  0.00  0.00     0.096 C 
ENDBRANCH  18  21
ENDBRANCH  13  15
ENDBRANCH   8  11
BRANCH   9  24
HETATM   24  O   UNL     1       6.858   8.508  20.574  0.00  0.00    -0.360 OA
HETATM   25  H   UNL     1       7.019   7.746  21.173  0.00  0.00     0.217 HD
ENDBRANCH   9  24
BRANCH   1  26
HETATM   26  C   UNL     1       2.292  12.765  22.976  0.00  0.00     0.100 C 
BRANCH  26  27
HETATM   27  C   UNL     1       2.968  13.965  23.605  0.00  0.00    -0.052 A 
HETATM   28  C   UNL     1       4.106  14.610  23.100  0.00  0.00     0.014 A 
HETATM   29  C   UNL     1       4.768  15.597  23.845  0.00  0.00    -0.061 A 
HETATM   30  C   UNL     1       6.093  16.128  23.382  0.00  0.00     0.048 C 
HETATM   31  C   UNL     1       4.247  15.996  25.081  0.00  0.00     0.007 A 
HETATM   32  C   UNL     1       3.081  15.414  25.569  0.00  0.00     0.001 A 
HETATM   33  C   UNL     1       2.454  14.404  24.840  0.00  0.00     0.007 A 
ENDBRANCH  26  27
ENDBRANCH   1  26
TORSDOF 6
ENDMDL
MODEL 2
REMARK VINA RESULT:    -8.728      2.193      5.183
REMARK INTER + INTRA:         -12.926
REMARK INTER:                 -10.887
REMARK INTRA:                  -2.039
REMARK UNBOUND:                -1.392
REMARK  6 active torsions:
REMARK  status: ('A' for Active; 'I' for Inactive)
REMARK    1  A    between atoms: C_7  and  C_8 
REMARK    2  A    between atoms: C_8  and  C_9 
REMARK    3  A    between atoms: C_16  and  C_20 
REMARK    4  A    between atoms: C_17  and  O_19 
REMARK       I    between atoms: C_20  and  N_22 
REMARK    5  A    between atoms: N_22  and  C_24 
REMARK    6  A    between atoms: C_27  and  C_28 
ROOT
HETATM    1  C   UNL     1       7.315  15.123  23.227  0.00  0.00     0.071 A 
HETATM    2  N   UNL     1       8.248  15.344  24.168  0.00  0.00    -0.178 NA
HETATM    3  N   UNL     1       9.031  14.255  24.115  0.00  0.00    -0.277 N 
HETATM    4  H   UNL     1       9.816  14.198  24.753  0.00  0.00     0.189 HD
HETATM    5  C   UNL     1       7.527  13.880  22.561  0.00  0.00     0.020 A 
HETATM    6  C   UNL     1       8.602  13.304  23.230  0.00  0.00     0.065 A 
HETATM    7  C   UNL     1       6.895  13.159  21.531  0.00  0.00     0.035 C 
HETATM    8  C   UNL     1       7.334  11.853  21.244  0.00  0.00     0.066 C 
HETATM    9  C   UNL     1       8.325  11.264  22.044  0.00  0.00     0.083 C 
HETATM   10  C   UNL     1       9.030  11.995  23.002  0.00  0.00     0.069 C 
ENDROOT
BRANCH   8  11
HETATM   11  C   UNL     1       6.721  11.069  20.135  0.00  0.00     0.260 C 
HETATM   12  O   UNL     1       7.081  11.390  18.996  0.00  0.00    -0.267 OA
HETATM   13  N   UNL     1       5.842   9.995  20.397  0.00  0.00    -0.318 N 
HETATM   14  C   UNL     1       5.546   9.080  19.297  0.00  0.00     0.159 C 
BRANCH  13  15
HETATM   15  C   UNL     1       5.118   9.806  21.619  0.00  0.00     0.037 A 
HETATM   16  C   UNL     1       5.235   8.619  22.347  0.00  0.00     0.030 A 
HETATM   17  C   UNL     1       4.435   8.379  23.466  0.00  0.00     0.017 A 
HETATM   18  C   UNL     1       3.505   9.327  23.904  0.00  0.00     0.009 A 
HETATM   19  C   UNL     1       3.445  10.555  23.243  0.00  0.00     0.017 A 
HETATM   20  C   UNL     1       4.259  10.799  22.114  0.00  0.00     0.030 A 
BRANCH  18  21
HETATM   21  C   UNL     1       2.622   8.940  25.054  0.00  0.00     0.155 C 
HETATM   22  O   UNL     1       3.147   8.580  26.112  0.00  0.00    -0.293 OA
HETATM   23  C   UNL     1       1.126   8.933  24.936  0.00  0.00     0.096 C 
ENDBRANCH  18  21
ENDBRANCH  13  15
ENDBRANCH   8  11
BRANCH   9  24
HETATM   24  O   UNL     1       8.639   9.932  21.965  0.00  0.00    -0.360 OA
HETATM   25  H   UNL     1       7.918   9.499  21.457  0.00  0.00     0.217 HD
ENDBRANCH   9  24
BRANCH   1  26
HETATM   26  C   UNL     1       6.135  16.029  23.100  0.00  0.00     0.100 C 
BRANCH  26  27
HETATM   27  C   UNL     1       4.861  15.408  23.631  0.00  0.00    -0.052 A 
HETATM   28  C   UNL     1       3.990  14.592  22.895  0.00  0.00     0.014 A 
HETATM   29  C   UNL     1       2.743  14.212  23.414  0.00  0.00    -0.061 A 
HETATM   30  C   UNL     1       1.744  13.515  22.537  0.00  0.00     0.048 C 
HETATM   31  C   UNL     1       2.392  14.591  24.713  0.00  0.00     0.007 A 
HETATM   32  C   UNL     1       3.271  15.345  25.484  0.00  0.00     0.001 A 
HETATM   33  C   UNL     1       4.489  15.754  24.944  0.00  0.00     0.007 A 
ENDBRANCH  26  27
ENDBRANCH   1  26
TORSDOF 6
ENDMDL
MODEL 3
REMARK VINA RESULT:    -8.486      2.494      5.428
REMARK INTER + INTRA:         -12.607
REMARK INTER:                  -9.732
REMARK INTRA:                  -2.875
REMARK UNBOUND:                -1.392
REMARK  6 active torsions:
REMARK  status: ('A' for Active; 'I' for Inactive)
REMARK    1  A    between atoms: C_7  and  C_8 
REMARK    2  A    between atoms: C_8  and  C_9 
REMARK    3  A    between atoms: C_16  and  C_20 
REMARK    4  A    between atoms: C_17  and  O_19 
REMARK       I    between atoms: C_20  and  N_22 
REMARK    5  A    between atoms: N_22  and  C_24 
REMARK    6  A    between atoms: C_27  and  C_28 
ROOT
HETATM    1  C   UNL     1       6.330  10.921  20.794  0.00  0.00     0.071 A 
HETATM    2  N   UNL     1       6.555   9.624  20.526  0.00  0.00    -0.178 NA
HETATM    3  N   UNL     1       5.628   8.976  21.247  0.00  0.00    -0.277 N 
HETATM    4  H   UNL     1       5.609   7.963  21.203  0.00  0.00     0.189 HD
HETATM    5  C   UNL     1       5.232  11.089  21.688  0.00  0.00     0.020 A 
HETATM    6  C   UNL     1       4.859   9.793  22.029  0.00  0.00     0.065 A 
HETATM    7  C   UNL     1       4.570  12.174  22.291  0.00  0.00     0.035 C 
HETATM    8  C   UNL     1       3.585  11.917  23.263  0.00  0.00     0.066 C 
HETATM    9  C   UNL     1       3.348  10.598  23.677  0.00  0.00     0.083 C 
HETATM   10  C   UNL     1       3.922   9.506  23.023  0.00  0.00     0.069 C 
ENDROOT
BRANCH   8  11
HETATM   11  C   UNL     1       2.829  13.035  23.897  0.00  0.00     0.260 C 
HETATM   12  O   UNL     1       1.598  12.928  23.864  0.00  0.00    -0.267 OA
HETATM   13  N   UNL     1       3.500  14.096  24.542  0.00  0.00    -0.318 N 
HETATM   14  C   UNL     1       2.709  14.966  25.411  0.00  0.00     0.159 C 
BRANCH  13  15
HETATM   15  C   UNL     1       4.865  14.467  24.312  0.00  0.00     0.037 A 
HETATM   16  C   UNL     1       5.194  15.442  23.365  0.00  0.00     0.030 A 
HETATM   17  C   UNL     1       6.526  15.713  23.046  0.00  0.00     0.017 A 
HETATM   18  C   UNL     1       7.571  15.033  23.678  0.00  0.00     0.009 A 
HETATM   19  C   UNL     1       7.259  14.128  24.692  0.00  0.00     0.017 A 
HETATM   20  C   UNL     1       5.912  13.856  25.019  0.00  0.00     0.030 A 
BRANCH  18  21
HETATM   21  C   UNL     1       8.964  15.322  23.198  0.00  0.00     0.155 C 
HETATM   22  O   UNL     1       9.901  15.216  23.995  0.00  0.00    -0.293 OA
HETATM   23  C   UNL     1       9.239  15.781  21.796  0.00  0.00     0.096 C 
ENDBRANCH  18  21
ENDBRANCH  13  15
ENDBRANCH   8  11
BRANCH   9  24
HETATM   24  O   UNL     1       2.572  10.296  24.767  0.00  0.00    -0.360 OA
HETATM   25  H   UNL     1       3.183  10.193  25.530  0.00  0.00     0.217 HD
ENDBRANCH   9  24
BRANCH   1  26
HETATM   26  C   UNL     1       7.283  11.971  20.324  0.00  0.00     0.100 C 
BRANCH  26  27
HETATM   27  C   UNL     1       8.588  11.962  21.091  0.00  0.00    -0.052 A 
HETATM   28  C   UNL     1       8.726  11.643  22.449  0.00  0.00     0.014 A 
HETATM   29  C   UNL     1       9.943  11.838  23.118  0.00  0.00    -0.061 A 
HETATM   30  C   UNL     1      10.016  11.687  24.609  0.00  0.00     0.048 C 
HETATM   31  C   UNL     1      11.058  12.291  22.405  0.00  0.00     0.007 A 
HETATM   32  C   UNL     1      10.958  12.550  21.041  0.00  0.00     0.001 A 
HETATM   33  C   UNL     1       9.733  12.393  20.395  0.00  0.00     0.007 A 
ENDBRANCH  26  27
ENDBRANCH   1  26
TORSDOF 6
ENDMDL
MODEL 4
REMARK VINA RESULT:    -8.476      2.344      5.976
REMARK INTER + INTRA:         -12.594
REMARK INTER:                 -10.495
REMARK INTRA:                  -2.099
REMARK UNBOUND:                -1.392
REMARK  6 active torsions:
REMARK  status: ('A' for Active; 'I' for Inactive)
REMARK    1  A    between atoms: C_7  and  C_8 
REMARK    2  A    between atoms: C_8  and  C_9 
REMARK    3  A    between atoms: C_16  and  C_20 
REMARK    4  A    between atoms: C_17  and  O_19 
REMARK       I    between atoms: C_20  and  N_22 
REMARK    5  A    between atoms: N_22  and  C_24 
REMARK    6  A    between atoms: C_27  and  C_28 
ROOT
HETATM    1  C   UNL     1       8.677  14.442  23.350  0.00  0.00     0.071 A 
HETATM    2  N   UNL     1       9.334  15.265  22.516  0.00  0.00    -0.178 NA
HETATM    3  N   UNL     1      10.005  14.437  21.701  0.00  0.00    -0.277 N 
HETATM    4  H   UNL     1      10.586  14.844  20.977  0.00  0.00     0.189 HD
HETATM    5  C   UNL     1       8.929  13.074  23.043  0.00  0.00     0.020 A 
HETATM    6  C   UNL     1       9.870  13.113  22.019  0.00  0.00     0.065 A 
HETATM    7  C   UNL     1       8.527  11.826  23.556  0.00  0.00     0.035 C 
HETATM    8  C   UNL     1       9.129  10.657  23.055  0.00  0.00     0.066 C 
HETATM    9  C   UNL     1      10.175  10.760  22.126  0.00  0.00     0.083 C 
HETATM   10  C   UNL     1      10.519  11.976  21.534  0.00  0.00     0.069 C 
ENDROOT
BRANCH   8  11
HETATM   11  C   UNL     1       8.704   9.313  23.540  0.00  0.00     0.260 C 
HETATM   12  O   UNL     1       9.517   8.729  24.265  0.00  0.00    -0.267 OA
HETATM   13  N   UNL     1       7.427   8.794  23.230  0.00  0.00    -0.318 N 
HETATM   14  C   UNL     1       6.963   7.641  23.998  0.00  0.00     0.159 C 
BRANCH  13  15
HETATM   15  C   UNL     1       6.607   9.227  22.138  0.00  0.00     0.037 A 
HETATM   16  C   UNL     1       6.548   8.493  20.950  0.00  0.00     0.030 A 
HETATM   17  C   UNL     1       5.854   8.977  19.839  0.00  0.00     0.017 A 
HETATM   18  C   UNL     1       5.181  10.202  19.887  0.00  0.00     0.009 A 
HETATM   19  C   UNL     1       5.152  10.898  21.096  0.00  0.00     0.017 A 
HETATM   20  C   UNL     1       5.850  10.406  22.221  0.00  0.00     0.030 A 
BRANCH  18  21
HETATM   21  C   UNL     1       4.547  10.685  18.616  0.00  0.00     0.155 C 
HETATM   22  O   UNL     1       3.873  11.719  18.642  0.00  0.00    -0.293 OA
HETATM   23  C   UNL     1       4.672   9.921  17.329  0.00  0.00     0.096 C 
ENDBRANCH  18  21
ENDBRANCH  13  15
ENDBRANCH   8  11
BRANCH   9  24
HETATM   24  O   UNL     1      10.950   9.686  21.768  0.00  0.00    -0.360 OA
HETATM   25  H   UNL     1      10.440   9.178  21.098  0.00  0.00     0.217 HD
ENDBRANCH   9  24
BRANCH   1  26
HETATM   26  C   UNL     1       7.953  14.985  24.539  0.00  0.00     0.100 C 
BRANCH  26  27
HETATM   27  C   UNL     1       6.449  14.921  24.388  0.00  0.00    -0.052 A 
HETATM   28  C   UNL     1       5.661  13.783  24.605  0.00  0.00     0.014 A 
HETATM   29  C   UNL     1       4.300  13.769  24.265  0.00  0.00    -0.061 A 
HETATM   30  C   UNL     1       3.525  12.484  24.312  0.00  0.00     0.048 C 
HETATM   31  C   UNL     1       3.701  14.931  23.767  0.00  0.00     0.007 A 
HETATM   32  C   UNL     1       4.451  16.091  23.607  0.00  0.00     0.001 A 
HETATM   33  C   UNL     1       5.813  16.083  23.908  0.00  0.00     0.007 A 
ENDBRANCH  26  27
ENDBRANCH   1  26
TORSDOF 6
ENDMDL
MODEL 5
REMARK VINA RESULT:    -8.467      2.456      4.960
REMARK INTER + INTRA:         -12.582
REMARK INTER:                  -9.815
REMARK INTRA:                  -2.766
REMARK UNBOUND:                -1.392
REMARK  6 active torsions:
REMARK  status: ('A' for Active; 'I' for Inactive)
REMARK    1  A    between atoms: C_7  and  C_8 
REMARK    2  A    between atoms: C_8  and  C_9 
REMARK    3  A    between atoms: C_16  and  C_20 
REMARK    4  A    between atoms: C_17  and  O_19 
REMARK       I    between atoms: C_20  and  N_22 
REMARK    5  A    between atoms: N_22  and  C_24 
REMARK    6  A    between atoms: C_27  and  C_28 
ROOT
HETATM    1  C   UNL     1       3.282  13.964  22.944  0.00  0.00     0.071 A 
HETATM    2  N   UNL     1       2.426  14.176  23.957  0.00  0.00    -0.178 NA
HETATM    3  N   UNL     1       3.166  14.801  24.885  0.00  0.00    -0.277 N 
HETATM    4  H   UNL     1       2.721  15.061  25.758  0.00  0.00     0.189 HD
HETATM    5  C   UNL     1       4.578  14.480  23.236  0.00  0.00     0.020 A 
HETATM    6  C   UNL     1       4.484  14.938  24.546  0.00  0.00     0.065 A 
HETATM    7  C   UNL     1       5.818  14.546  22.574  0.00  0.00     0.035 C 
HETATM    8  C   UNL     1       6.941  15.023  23.275  0.00  0.00     0.066 C 
HETATM    9  C   UNL     1       6.825  15.336  24.637  0.00  0.00     0.083 C 
HETATM   10  C   UNL     1       5.588  15.371  25.283  0.00  0.00     0.069 C 
ENDROOT
BRANCH   8  11
HETATM   11  C   UNL     1       8.264  15.148  22.601  0.00  0.00     0.260 C 
HETATM   12  O   UNL     1       8.467  16.224  22.026  0.00  0.00    -0.267 OA
HETATM   13  N   UNL     1       9.228  14.119  22.685  0.00  0.00    -0.318 N 
HETATM   14  C   UNL     1      10.597  14.442  22.288  0.00  0.00     0.159 C 
BRANCH  13  15
HETATM   15  C   UNL     1       8.943  12.752  23.004  0.00  0.00     0.037 A 
HETATM   16  C   UNL     1       9.094  12.273  24.309  0.00  0.00     0.030 A 
HETATM   17  C   UNL     1       8.943  10.915  24.598  0.00  0.00     0.017 A 
HETATM   18  C   UNL     1       8.619   9.996  23.596  0.00  0.00     0.009 A 
HETATM   19  C   UNL     1       8.372  10.475  22.309  0.00  0.00     0.017 A 
HETATM   20  C   UNL     1       8.519  11.849  22.017  0.00  0.00     0.030 A 
BRANCH  18  21
HETATM   21  C   UNL     1       8.575   8.547  23.984  0.00  0.00     0.155 C 
HETATM   22  O   UNL     1       9.605   8.014  24.410  0.00  0.00    -0.293 OA
HETATM   23  C   UNL     1       7.332   7.721  23.825  0.00  0.00     0.096 C 
ENDBRANCH  18  21
ENDBRANCH  13  15
ENDBRANCH   8  11
BRANCH   9  24
HETATM   24  O   UNL     1       7.915  15.589  25.430  0.00  0.00    -0.360 OA
HETATM   25  H   UNL     1       7.702  15.243  26.325  0.00  0.00     0.217 HD
ENDBRANCH   9  24
BRANCH   1  26
HETATM   26  C   UNL     1       2.886  13.115  21.780  0.00  0.00     0.100 C 
BRANCH  26  27
HETATM   27  C   UNL     1       3.837  11.961  21.547  0.00  0.00    -0.052 A 
HETATM   28  C   UNL     1       4.632  11.785  20.405  0.00  0.00     0.014 A 
HETATM   29  C   UNL     1       5.346  10.596  20.197  0.00  0.00    -0.061 A 
HETATM   30  C   UNL     1       6.022  10.345  18.881  0.00  0.00     0.048 C 
HETATM   31  C   UNL     1       5.322   9.596  21.176  0.00  0.00     0.007 A 
HETATM   32  C   UNL     1       4.593   9.780  22.346  0.00  0.00     0.001 A 
HETATM   33  C   UNL     1       3.853  10.948  22.525  0.00  0.00     0.007 A 
ENDBRANCH  26  27
ENDBRANCH   1  26
TORSDOF 6
ENDMDL
MODEL 6
REMARK VINA RESULT:    -8.431      2.732      5.664
REMARK INTER + INTRA:         -12.534
REMARK INTER:                 -10.475
REMARK INTRA:                  -2.059
REMARK UNBOUND:                -1.392
REMARK  6 active torsions:
REMARK  status: ('A' for Active; 'I' for Inactive)
REMARK    1  A    between atoms: C_7  and  C_8 
REMARK    2  A    between atoms: C_8  and  C_9 
REMARK    3  A    between atoms: C_16  and  C_20 
REMARK    4  A    between atoms: C_17  and  O_19 
REMARK       I    between atoms: C_20  and  N_22 
REMARK    5  A    between atoms: N_22  and  C_24 
REMARK    6  A    between atoms: C_27  and  C_28 
ROOT
HETATM    1  C   UNL     1       7.326  11.333  20.459  0.00  0.00     0.071 A 
HETATM    2  N   UNL     1       7.233  11.503  19.129  0.00  0.00    -0.178 NA
HETATM    3  N   UNL     1       6.260  10.658  18.759  0.00  0.00    -0.277 N 
HETATM    4  H   UNL     1       6.015  10.610  17.776  0.00  0.00     0.189 HD
HETATM    5  C   UNL     1       6.383  10.374  20.931  0.00  0.00     0.020 A 
HETATM    6  C   UNL     1       5.769   9.892  19.780  0.00  0.00     0.065 A 
HETATM    7  C   UNL     1       6.036   9.819  22.177  0.00  0.00     0.035 C 
HETATM    8  C   UNL     1       5.118   8.753  22.217  0.00  0.00     0.066 C 
HETATM    9  C   UNL     1       4.637   8.208  21.017  0.00  0.00     0.083 C 
HETATM   10  C   UNL     1       4.891   8.806  19.782  0.00  0.00     0.069 C 
ENDROOT
BRANCH   8  11
HETATM   11  C   UNL     1       4.691   8.163  23.517  0.00  0.00     0.260 C 
HETATM   12  O   UNL     1       4.720   6.928  23.574  0.00  0.00    -0.267 OA
HETATM   13  N   UNL     1       4.345   8.982  24.614  0.00  0.00    -0.318 N 
HETATM   14  C   UNL     1       4.258   8.350  25.929  0.00  0.00     0.159 C 
BRANCH  13  15
HETATM   15  C   UNL     1       3.946  10.356  24.520  0.00  0.00     0.037 A 
HETATM   16  C   UNL     1       2.749  10.714  23.893  0.00  0.00     0.030 A 
HETATM   17  C   UNL     1       2.420  12.055  23.685  0.00  0.00     0.017 A 
HETATM   18  C   UNL     1       3.268  13.080  24.114  0.00  0.00     0.009 A 
HETATM   19  C   UNL     1       4.418  12.738  24.826  0.00  0.00     0.017 A 
HETATM   20  C   UNL     1       4.749  11.382  25.041  0.00  0.00     0.030 A 
BRANCH  18  21
HETATM   21  C   UNL     1       2.877  14.485  23.759  0.00  0.00     0.155 C 
HETATM   22  O   UNL     1       3.526  15.421  24.235  0.00  0.00    -0.293 OA
HETATM   23  C   UNL     1       1.695  14.781  22.882  0.00  0.00     0.096 C 
ENDBRANCH  18  21
ENDBRANCH  13  15
ENDBRANCH   8  11
BRANCH   9  24
HETATM   24  O   UNL     1       3.923   7.038  20.974  0.00  0.00    -0.360 OA
HETATM   25  H   UNL     1       4.557   6.311  21.159  0.00  0.00     0.217 HD
ENDBRANCH   9  24
BRANCH   1  26
HETATM   26  C   UNL     1       8.437  11.968  21.230  0.00  0.00     0.100 C 
BRANCH  26  27
HETATM   27  C   UNL     1       8.162  13.417  21.566  0.00  0.00    -0.052 A 
HETATM   28  C   UNL     1       9.020  14.490  21.287  0.00  0.00     0.014 A 
HETATM   29  C   UNL     1       8.765  15.772  21.796  0.00  0.00    -0.061 A 
HETATM   30  C   UNL     1       9.795  16.855  21.660  0.00  0.00     0.048 C 
HETATM   31  C   UNL     1       7.600  16.002  22.536  0.00  0.00     0.007 A 
HETATM   32  C   UNL     1       6.702  14.965  22.768  0.00  0.00     0.001 A 
HETATM   33  C   UNL     1       6.986  13.685  22.293  0.00  0.00     0.007 A 
ENDBRANCH  26  27
ENDBRANCH   1  26
TORSDOF 6
ENDMDL
MODEL 7
REMARK VINA RESULT:    -8.431      2.490      5.612
REMARK INTER + INTRA:         -12.533
REMARK INTER:                 -10.539
REMARK INTRA:                  -1.995
REMARK UNBOUND:                -1.392
REMARK  6 active torsions:
REMARK  status: ('A' for Active; 'I' for Inactive)
REMARK    1  A    between atoms: C_7  and  C_8 
REMARK    2  A    between atoms: C_8  and  C_9 
REMARK    3  A    between atoms: C_16  and  C_20 
REMARK    4  A    between atoms: C_17  and  O_19 
REMARK       I    between atoms: C_20  and  N_22 
REMARK    5  A    between atoms: N_22  and  C_24 
REMARK    6  A    between atoms: C_27  and  C_28 
ROOT
HETATM    1  C   UNL     1       5.644  11.720  20.799  0.00  0.00     0.071 A 
HETATM    2  N   UNL     1       5.755  11.252  19.544  0.00  0.00    -0.178 NA
HETATM    3  N   UNL     1       7.064  11.355  19.271  0.00  0.00    -0.277 N 
HETATM    4  H   UNL     1       7.387  11.058  18.357  0.00  0.00     0.189 HD
HETATM    5  C   UNL     1       6.910  12.110  21.325  0.00  0.00     0.020 A 
HETATM    6  C   UNL     1       7.796  11.940  20.267  0.00  0.00     0.065 A 
HETATM    7  C   UNL     1       7.385  12.646  22.537  0.00  0.00     0.035 C 
HETATM    8  C   UNL     1       8.732  13.045  22.626  0.00  0.00     0.066 C 
HETATM    9  C   UNL     1       9.547  12.987  21.486  0.00  0.00     0.083 C 
HETATM   10  C   UNL     1       9.124  12.369  20.307  0.00  0.00     0.069 C 
ENDROOT
BRANCH   8  11
HETATM   11  C   UNL     1       9.287  13.578  23.902  0.00  0.00     0.260 C 
HETATM   12  O   UNL     1      10.446  13.233  24.162  0.00  0.00    -0.267 OA
HETATM   13  N   UNL     1       8.543  14.468  24.707  0.00  0.00    -0.318 N 
HETATM   14  C   UNL     1       9.261  15.195  25.752  0.00  0.00     0.159 C 
BRANCH  13  15
HETATM   15  C   UNL     1       7.118  14.617  24.667  0.00  0.00     0.037 A 
HETATM   16  C   UNL     1       6.281  13.679  25.278  0.00  0.00     0.030 A 
HETATM   17  C   UNL     1       4.894  13.750  25.132  0.00  0.00     0.017 A 
HETATM   18  C   UNL     1       4.299  14.772  24.385  0.00  0.00     0.009 A 
HETATM   19  C   UNL     1       5.117  15.767  23.850  0.00  0.00     0.017 A 
HETATM   20  C   UNL     1       6.520  15.699  24.003  0.00  0.00     0.030 A 
BRANCH  18  21
HETATM   21  C   UNL     1       2.811  14.708  24.203  0.00  0.00     0.155 C 
HETATM   22  O   UNL     1       2.104  14.425  25.174  0.00  0.00    -0.293 OA
HETATM   23  C   UNL     1       2.167  14.934  22.865  0.00  0.00     0.096 C 
ENDBRANCH  18  21
ENDBRANCH  13  15
ENDBRANCH   8  11
BRANCH   9  24
HETATM   24  O   UNL     1      10.791  13.562  21.440  0.00  0.00    -0.360 OA
HETATM   25  H   UNL     1      10.662  14.497  21.168  0.00  0.00     0.217 HD
ENDBRANCH   9  24
BRANCH   1  26
HETATM   26  C   UNL     1       4.300  11.948  21.409  0.00  0.00     0.100 C 
BRANCH  26  27
HETATM   27  C   UNL     1       4.047  11.066  22.612  0.00  0.00    -0.052 A 
HETATM   28  C   UNL     1       4.889  10.036  23.053  0.00  0.00     0.014 A 
HETATM   29  C   UNL     1       4.486   9.154  24.066  0.00  0.00    -0.061 A 
HETATM   30  C   UNL     1       5.310   7.940  24.380  0.00  0.00     0.048 C 
HETATM   31  C   UNL     1       3.252   9.347  24.698  0.00  0.00     0.007 A 
HETATM   32  C   UNL     1       2.430  10.404  24.320  0.00  0.00     0.001 A 
HETATM   33  C   UNL     1       2.822  11.249  23.283  0.00  0.00     0.007 A 
ENDBRANCH  26  27
ENDBRANCH   1  26
TORSDOF 6
ENDMDL
MODEL 8
REMARK VINA RESULT:    -8.430      2.402      6.098
REMARK INTER + INTRA:         -12.532
REMARK INTER:                 -10.713
REMARK INTRA:                  -1.819
REMARK UNBOUND:                -1.392
REMARK  6 active torsions:
REMARK  status: ('A' for Active; 'I' for Inactive)
REMARK    1  A    between atoms: C_7  and  C_8 
REMARK    2  A    between atoms: C_8  and  C_9 
REMARK    3  A    between atoms: C_16  and  C_20 
REMARK    4  A    between atoms: C_17  and  O_19 
REMARK       I    between atoms: C_20  and  N_22 
REMARK    5  A    between atoms: N_22  and  C_24 
REMARK    6  A    between atoms: C_27  and  C_28 
ROOT
HETATM    1  C   UNL     1       9.378  14.226  23.163  0.00  0.00     0.071 A 
HETATM    2  N   UNL     1      10.323  14.817  22.412  0.00  0.00    -0.178 NA
HETATM    3  N   UNL     1      10.894  13.802  21.747  0.00  0.00    -0.277 N 
HETATM    4  H   UNL     1      11.653  14.014  21.110  0.00  0.00     0.189 HD
HETATM    5  C   UNL     1       9.348  12.817  22.953  0.00  0.00     0.020 A 
HETATM    6  C   UNL     1      10.411  12.569  22.090  0.00  0.00     0.065 A 
HETATM    7  C   UNL     1       8.597  11.732  23.444  0.00  0.00     0.035 C 
HETATM    8  C   UNL     1       8.976  10.424  23.091  0.00  0.00     0.066 C 
HETATM    9  C   UNL     1      10.142  10.221  22.337  0.00  0.00     0.083 C 
HETATM   10  C   UNL     1      10.842  11.283  21.760  0.00  0.00     0.069 C 
ENDROOT
BRANCH   8  11
HETATM   11  C   UNL     1       8.185   9.249  23.554  0.00  0.00     0.260 C 
HETATM   12  O   UNL     1       8.731   8.547  24.414  0.00  0.00    -0.267 OA
HETATM   13  N   UNL     1       6.878   9.014  23.075  0.00  0.00    -0.318 N 
HETATM   14  C   UNL     1       6.054   8.052  23.804  0.00  0.00     0.159 C 
BRANCH  13  15
HETATM   15  C   UNL     1       6.341   9.545  21.857  0.00  0.00     0.037 A 
HETATM   16  C   UNL     1       5.558  10.703  21.862  0.00  0.00     0.030 A 
HETATM   17  C   UNL     1       4.927  11.150  20.699  0.00  0.00     0.017 A 
HETATM   18  C   UNL     1       5.075  10.464  19.490  0.00  0.00     0.009 A 
HETATM   19  C   UNL     1       5.931   9.363  19.450  0.00  0.00     0.017 A 
HETATM   20  C   UNL     1       6.573   8.913  20.626  0.00  0.00     0.030 A 
BRANCH  18  21
HETATM   21  C   UNL     1       4.281  10.963  18.319  0.00  0.00     0.155 C 
HETATM   22  O   UNL     1       3.605  11.988  18.452  0.00  0.00    -0.293 OA
HETATM   23  C   UNL     1       4.250  10.227  17.011  0.00  0.00     0.096 C 
ENDBRANCH  18  21
ENDBRANCH  13  15
ENDBRANCH   8  11
BRANCH   9  24
HETATM   24  O   UNL     1      10.689   8.978  22.148  0.00  0.00    -0.360 OA
HETATM   25  H   UNL     1      11.621   9.118  21.866  0.00  0.00     0.217 HD
ENDBRANCH   9  24
BRANCH   1  26
HETATM   26  C   UNL     1       8.636  15.004  24.201  0.00  0.00     0.100 C 
BRANCH  26  27
HETATM   27  C   UNL     1       7.155  15.107  23.906  0.00  0.00    -0.052 A 
HETATM   28  C   UNL     1       6.201  15.699  24.745  0.00  0.00     0.014 A 
HETATM   29  C   UNL     1       4.829  15.586  24.474  0.00  0.00    -0.061 A 
HETATM   30  C   UNL     1       3.822  16.047  25.487  0.00  0.00     0.048 C 
HETATM   31  C   UNL     1       4.406  14.934  23.311  0.00  0.00     0.007 A 
HETATM   32  C   UNL     1       5.341  14.398  22.431  0.00  0.00     0.001 A 
HETATM   33  C   UNL     1       6.700  14.478  22.730  0.00  0.00     0.007 A 
ENDBRANCH  26  27
ENDBRANCH   1  26
TORSDOF 6
ENDMDL
MODEL 9
REMARK VINA RESULT:    -8.386      2.486      5.503
REMARK INTER + INTRA:         -12.474
REMARK INTER:                 -11.082
REMARK INTRA:                  -1.392
REMARK UNBOUND:                -1.392
REMARK  6 active torsions:
REMARK  status: ('A' for Active; 'I' for Inactive)
REMARK    1  A    between atoms: C_7  and  C_8 
REMARK    2  A    between atoms: C_8  and  C_9 
REMARK    3  A    between atoms: C_16  and  C_20 
REMARK    4  A    between atoms: C_17  and  O_19 
REMARK       I    between atoms: C_20  and  N_22 
REMARK    5  A    between atoms: N_22  and  C_24 
REMARK    6  A    between atoms: C_27  and  C_28 
ROOT
HETATM    1  C   UNL     1       3.803  14.470  23.718  0.00  0.00     0.071 A 
HETATM    2  N   UNL     1       2.493  14.641  23.966  0.00  0.00    -0.178 NA
HETATM    3  N   UNL     1       2.024  13.393  24.120  0.00  0.00    -0.277 N 
HETATM    4  H   UNL     1       1.036  13.274  24.314  0.00  0.00     0.189 HD
HETATM    5  C   UNL     1       4.162  13.091  23.730  0.00  0.00     0.020 A 
HETATM    6  C   UNL     1       2.958  12.417  23.907  0.00  0.00     0.065 A 
HETATM    7  C   UNL     1       5.343  12.347  23.545  0.00  0.00     0.035 C 
HETATM    8  C   UNL     1       5.263  10.943  23.489  0.00  0.00     0.066 C 
HETATM    9  C   UNL     1       4.007  10.319  23.527  0.00  0.00     0.083 C 
HETATM   10  C   UNL     1       2.839  11.030  23.809  0.00  0.00     0.069 C 
ENDROOT
BRANCH   8  11
HETATM   11  C   UNL     1       6.492  10.115  23.335  0.00  0.00     0.260 C 
HETATM   12  O   UNL     1       7.228  10.067  24.328  0.00  0.00    -0.267 OA
HETATM   13  N   UNL     1       6.742   9.391  22.149  0.00  0.00    -0.318 N 
HETATM   14  C   UNL     1       7.777   8.360  22.192  0.00  0.00     0.159 C 
BRANCH  13  15
HETATM   15  C   UNL     1       6.154   9.675  20.873  0.00  0.00     0.037 A 
HETATM   16  C   UNL     1       6.295  10.934  20.282  0.00  0.00     0.030 A 
HETATM   17  C   UNL     1       5.617  11.256  19.104  0.00  0.00     0.017 A 
HETATM   18  C   UNL     1       4.792  10.322  18.470  0.00  0.00     0.009 A 
HETATM   19  C   UNL     1       4.719   9.032  18.997  0.00  0.00     0.017 A 
HETATM   20  C   UNL     1       5.409   8.705  20.186  0.00  0.00     0.030 A 
BRANCH  18  21
HETATM   21  C   UNL     1       4.029  10.790  17.265  0.00  0.00     0.155 C 
HETATM   22  O   UNL     1       4.104  10.135  16.222  0.00  0.00    -0.293 OA
HETATM   23  C   UNL     1       3.220  12.054  17.283  0.00  0.00     0.096 C 
ENDBRANCH  18  21
ENDBRANCH  13  15
ENDBRANCH   8  11
BRANCH   9  24
HETATM   24  O   UNL     1       3.839   8.986  23.254  0.00  0.00    -0.360 OA
HETATM   25  H   UNL     1       4.165   8.492  24.039  0.00  0.00     0.217 HD
ENDBRANCH   9  24
BRANCH   1  26
HETATM   26  C   UNL     1       4.654  15.624  23.300  0.00  0.00     0.100 C 
BRANCH  26  27
HETATM   27  C   UNL     1       6.086  15.496  23.771  0.00  0.00    -0.052 A 
HETATM   28  C   UNL     1       7.212  15.442  22.937  0.00  0.00     0.014 A 
HETATM   29  C   UNL     1       8.481  15.139  23.453  0.00  0.00    -0.061 A 
HETATM   30  C   UNL     1       9.630  14.885  22.522  0.00  0.00     0.048 C 
HETATM   31  C   UNL     1       8.641  14.958  24.831  0.00  0.00     0.007 A 
HETATM   32  C   UNL     1       7.547  15.074  25.683  0.00  0.00     0.001 A 
HETATM   33  C   UNL     1       6.283  15.333  25.156  0.00  0.00     0.007 A 
ENDBRANCH  26  27
ENDBRANCH   1  26
TORSDOF 6
ENDMDL
