REMARK  6 active torsions:
REMARK  status: ('A' for Active; 'I' for Inactive)
REMARK    1  A    between atoms: C_7  and  C_8 
REMARK    2  A    between atoms: C_8  and  C_9 
REMARK    3  A    between atoms: C_16  and  C_20 
REMARK    4  A    between atoms: C_17  and  O_19 
REMARK       I    between atoms: C_20  and  N_22 
REMARK    5  A    between atoms: N_22  and  C_24 
REMARK    6  A    between atoms: C_27  and  C_28 
ROOT
HETATM    1  C   UNL     1      -3.359   1.240  -0.309  0.00  0.00     0.071 A 
HETATM    2  N   UNL     1      -4.674   1.370  -0.066  0.00  0.00    -0.178 NA
HETATM    3  N   UNL     1      -4.877   2.696  -0.065  0.00  0.00    -0.277 N 
HETATM    4  H   UNL     1      -5.816   3.037   0.107  0.00  0.00     0.189 HD
HETATM    5  C   UNL     1      -2.730   2.508  -0.478  0.00  0.00     0.020 A 
HETATM    6  C   UNL     1      -3.736   3.434  -0.223  0.00  0.00     0.065 A 
HETATM    7  C   UNL     1      -1.427   2.968  -0.745  0.00  0.00     0.035 C 
HETATM    8  C   UNL     1      -1.167   4.350  -0.692  0.00  0.00     0.066 C 
HETATM    9  C   UNL     1      -2.182   5.230  -0.288  0.00  0.00     0.083 C 
HETATM   10  C   UNL     1      -3.501   4.806  -0.116  0.00  0.00     0.069 C 
ENDROOT
BRANCH   8  11
HETATM   11  C   UNL     1       0.188   4.884  -1.008  0.00  0.00     0.260 C 
HETATM   12  O   UNL     1       0.617   5.740  -0.225  0.00  0.00    -0.267 OA
HETATM   13  N   UNL     1       0.936   4.382  -2.095  0.00  0.00    -0.318 N 
HETATM   14  C   UNL     1       2.359   4.711  -2.145  0.00  0.00     0.159 C 
BRANCH  13  15
HETATM   15  C   UNL     1       0.385   3.686  -3.220  0.00  0.00     0.037 A 
HETATM   16  C   UNL     1      -0.893   3.991  -3.697  0.00  0.00     0.030 A 
HETATM   17  C   UNL     1      -1.484   3.230  -4.708  0.00  0.00     0.017 A 
HETATM   18  C   UNL     1      -0.808   2.152  -5.287  0.00  0.00     0.009 A 
HETATM   19  C   UNL     1       0.504   1.897  -4.887  0.00  0.00     0.017 A 
HETATM   20  C   UNL     1       1.104   2.670  -3.868  0.00  0.00     0.030 A 
BRANCH  18  21
HETATM   21  C   UNL     1      -1.561   1.334  -6.295  0.00  0.00     0.155 C 
HETATM   22  O   UNL     1      -2.723   1.649  -6.568  0.00  0.00    -0.293 OA
HETATM   23  C   UNL     1      -0.957   0.121  -6.941  0.00  0.00     0.096 C 
ENDBRANCH  18  21
ENDBRANCH  13  15
ENDBRANCH   8  11
BRANCH   9  24
HETATM   24  O   UNL     1      -1.941   6.549   0.000  0.00  0.00    -0.360 OA
HETATM   25  H   UNL     1      -0.996   6.615   0.262  0.00  0.00     0.217 HD
ENDBRANCH   9  24
BRANCH   1  26
HETATM   26  C   UNL     1      -2.695  -0.094  -0.203  0.00  0.00     0.100 C 
BRANCH  26  27
HETATM   27  C   UNL     1      -2.879  -0.939  -1.445  0.00  0.00    -0.052 A 
HETATM   28  C   UNL     1      -3.574  -0.545  -2.597  0.00  0.00     0.014 A 
HETATM   29  C   UNL     1      -3.848  -1.459  -3.625  0.00  0.00    -0.061 A 
HETATM   30  C   UNL     1      -4.765  -1.075  -4.749  0.00  0.00     0.048 C 
HETATM   31  C   UNL     1      -3.360  -2.767  -3.534  0.00  0.00     0.007 A 
HETATM   32  C   UNL     1      -2.611  -3.159  -2.429  0.00  0.00     0.001 A 
HETATM   33  C   UNL     1      -2.380  -2.255  -1.393  0.00  0.00     0.007 A 
ENDBRANCH  26  27
ENDBRANCH   1  26
TORSDOF 6
