MODEL 1
REMARK VINA RESULT:    -7.059      0.000      0.000
REMARK INTER + INTRA:          -9.350
REMARK INTER:                  -8.248
REMARK INTRA:                  -1.102
REMARK UNBOUND:                -1.053
REMARK  4 active torsions:
REMARK  status: ('A' for Active; 'I' for Inactive)
REMARK    1  A    between atoms: O_1  and  C_2 
REMARK    2  A    between atoms: C_4  and  O_5 
REMARK    3  A    between atoms: C_6  and  C_10 
REMARK    4  A    between atoms: N_16  and  C_17 
ROOT
HETATM    1  C   UNL     1       8.333  13.536  23.649  0.00  0.00     0.172 A 
HETATM    2  N   UNL     1       9.532  13.401  24.155  0.00  0.00    -0.151 NA
HETATM    3  N   UNL     1       9.526  14.138  25.296  0.00  0.00    -0.226 N 
HETATM    4  H   UNL     1      10.262  14.083  25.988  0.00  0.00     0.194 HD
HETATM    5  C   UNL     1       8.281  14.711  25.505  0.00  0.00     0.349 A 
HETATM    6  O   UNL     1       7.953  15.316  26.513  0.00  0.00    -0.245 OA
HETATM    7  N   UNL     1       7.524  14.364  24.397  0.00  0.00    -0.241 N 
ENDROOT
BRANCH   1   8
HETATM    8  C   UNL     1       7.951  12.897  22.355  0.00  0.00     0.047 C 
HETATM    9  C   UNL     1       8.598  13.258  21.157  0.00  0.00     0.082 C 
HETATM   10  C   UNL     1       8.308  12.610  19.953  0.00  0.00     0.075 C 
HETATM   11  C   UNL     1       7.370  11.582  19.932  0.00  0.00     0.085 C 
HETATM   12  C   UNL     1       6.666  11.259  21.093  0.00  0.00     0.040 C 
HETATM   13  C   UNL     1       6.924  11.945  22.288  0.00  0.00     0.039 C 
HETATM   14  I   UNL     1       5.262   9.709  21.133  0.00  0.00    -0.042 I 
BRANCH   9  15
HETATM   15  O   UNL     1       9.558  14.232  21.139  0.00  0.00    -0.360 OA
HETATM   16  H   UNL     1      10.183  14.073  20.414  0.00  0.00     0.217 HD
ENDBRANCH   9  15
BRANCH  11  17
HETATM   17  O   UNL     1       7.151  10.895  18.772  0.00  0.00    -0.359 OA
HETATM   18  H   UNL     1       7.997  10.730  18.325  0.00  0.00     0.217 HD
ENDBRANCH  11  17
ENDBRANCH   1   8
BRANCH   7  19
HETATM   19  C   UNL     1       6.148  14.660  24.352  0.00  0.00     0.084 A 
HETATM   20  C   UNL     1       5.171  13.801  24.862  0.00  0.00     0.143 A 
HETATM   21  F   UNL     1       5.516  12.634  25.427  0.00  0.00    -0.204 F 
HETATM   22  C   UNL     1       3.823  14.159  24.852  0.00  0.00     0.044 A 
HETATM   23  C   UNL     1       3.434  15.388  24.323  0.00  0.00     0.003 A 
HETATM   24  C   UNL     1       4.390  16.258  23.805  0.00  0.00     0.002 A 
HETATM   25  C   UNL     1       5.739  15.899  23.830  0.00  0.00     0.033 A 
ENDBRANCH   7  19
TORSDOF 4
ENDMDL
MODEL 2
REMARK VINA RESULT:    -6.768      1.004      1.431
REMARK INTER + INTRA:          -9.008
REMARK INTER:                  -7.978
REMARK INTRA:                  -1.030
REMARK UNBOUND:                -1.053
REMARK  4 active torsions:
REMARK  status: ('A' for Active; 'I' for Inactive)
REMARK    1  A    between atoms: O_1  and  C_2 
REMARK    2  A    between atoms: C_4  and  O_5 
REMARK    3  A    between atoms: C_6  and  C_10 
REMARK    4  A    between atoms: N_16  and  C_17 
ROOT
HETATM    1  C   UNL     1       8.301  13.476  23.629  0.00  0.00     0.172 A 
HETATM    2  N   UNL     1       9.514  13.361  24.104  0.00  0.00    -0.151 NA
HETATM    3  N   UNL     1       9.522  14.092  25.250  0.00  0.00    -0.226 N 
HETATM    4  H   UNL     1      10.277  14.047  25.923  0.00  0.00     0.194 HD
HETATM    5  C   UNL     1       8.272  14.638  25.493  0.00  0.00     0.349 A 
HETATM    6  O   UNL     1       7.958  15.230  26.513  0.00  0.00    -0.245 OA
HETATM    7  N   UNL     1       7.494  14.283  24.403  0.00  0.00    -0.241 N 
ENDROOT
BRANCH   1   8
HETATM    8  C   UNL     1       7.899  12.836  22.341  0.00  0.00     0.047 C 
HETATM    9  C   UNL     1       8.563  13.160  21.142  0.00  0.00     0.082 C 
HETATM   10  C   UNL     1       8.253  12.510  19.944  0.00  0.00     0.075 C 
HETATM   11  C   UNL     1       7.278  11.518  19.931  0.00  0.00     0.085 C 
HETATM   12  C   UNL     1       6.559  11.233  21.093  0.00  0.00     0.040 C 
HETATM   13  C   UNL     1       6.838  11.922  22.281  0.00  0.00     0.039 C 
HETATM   14  I   UNL     1       5.098   9.736  21.145  0.00  0.00    -0.042 I 
BRANCH   9  15
HETATM   15  O   UNL     1       9.558  14.098  21.115  0.00  0.00    -0.360 OA
HETATM   16  H   UNL     1      10.324  13.789  21.624  0.00  0.00     0.217 HD
ENDBRANCH   9  15
BRANCH  11  17
HETATM   17  O   UNL     1       7.037  10.826  18.778  0.00  0.00    -0.359 OA
HETATM   18  H   UNL     1       6.342  11.273  18.267  0.00  0.00     0.217 HD
ENDBRANCH  11  17
ENDBRANCH   1   8
BRANCH   7  19
HETATM   19  C   UNL     1       6.112  14.552  24.394  0.00  0.00     0.084 A 
HETATM   20  C   UNL     1       5.555  15.629  23.700  0.00  0.00     0.143 A 
HETATM   21  F   UNL     1       6.334  16.469  23.002  0.00  0.00    -0.204 F 
HETATM   22  C   UNL     1       4.174  15.825  23.667  0.00  0.00     0.044 A 
HETATM   23  C   UNL     1       3.330  14.941  24.335  0.00  0.00     0.003 A 
HETATM   24  C   UNL     1       3.864  13.863  25.036  0.00  0.00     0.002 A 
HETATM   25  C   UNL     1       5.246  13.665  25.055  0.00  0.00     0.033 A 
ENDBRANCH   7  19
TORSDOF 4
ENDMDL
MODEL 3
REMARK VINA RESULT:    -6.580      3.746      5.909
REMARK INTER + INTRA:          -8.787
REMARK INTER:                  -7.646
REMARK INTRA:                  -1.141
REMARK UNBOUND:                -1.053
REMARK  4 active torsions:
REMARK  status: ('A' for Active; 'I' for Inactive)
REMARK    1  A    between atoms: O_1  and  C_2 
REMARK    2  A    between atoms: C_4  and  O_5 
REMARK    3  A    between atoms: C_6  and  C_10 
REMARK    4  A    between atoms: N_16  and  C_17 
ROOT
HETATM    1  C   UNL     1       6.498  11.131  20.090  0.00  0.00     0.172 A 
HETATM    2  N   UNL     1       6.315  11.191  18.796  0.00  0.00    -0.151 NA
HETATM    3  N   UNL     1       5.868   9.959  18.439  0.00  0.00    -0.226 N 
HETATM    4  H   UNL     1       5.478   9.760  17.526  0.00  0.00     0.194 HD
HETATM    5  C   UNL     1       5.746   9.139  19.550  0.00  0.00     0.349 A 
HETATM    6  O   UNL     1       5.247   8.025  19.541  0.00  0.00    -0.245 OA
HETATM    7  N   UNL     1       6.214   9.889  20.616  0.00  0.00    -0.241 N 
ENDROOT
BRANCH   1   8
HETATM    8  C   UNL     1       7.027  12.294  20.862  0.00  0.00     0.047 C 
HETATM    9  C   UNL     1       8.371  12.694  20.727  0.00  0.00     0.082 C 
HETATM   10  C   UNL     1       8.859  13.829  21.380  0.00  0.00     0.075 C 
HETATM   11  C   UNL     1       8.004  14.588  22.173  0.00  0.00     0.085 C 
HETATM   12  C   UNL     1       6.688  14.169  22.378  0.00  0.00     0.040 C 
HETATM   13  C   UNL     1       6.217  13.002  21.761  0.00  0.00     0.039 C 
HETATM   14  I   UNL     1       5.347  15.278  23.538  0.00  0.00    -0.042 I 
BRANCH   9  15
HETATM   15  O   UNL     1       9.236  12.003  19.923  0.00  0.00    -0.360 OA
HETATM   16  H   UNL     1       9.603  11.242  20.402  0.00  0.00     0.217 HD
ENDBRANCH   9  15
BRANCH  11  17
HETATM   17  O   UNL     1       8.461  15.743  22.741  0.00  0.00    -0.359 OA
HETATM   18  H   UNL     1       7.814  16.067  23.389  0.00  0.00     0.217 HD
ENDBRANCH  11  17
ENDBRANCH   1   8
BRANCH   7  19
HETATM   19  C   UNL     1       6.094   9.408  21.934  0.00  0.00     0.084 A 
HETATM   20  C   UNL     1       4.962   9.635  22.722  0.00  0.00     0.143 A 
HETATM   21  F   UNL     1       3.924  10.336  22.242  0.00  0.00    -0.204 F 
HETATM   22  C   UNL     1       4.857   9.090  24.002  0.00  0.00     0.044 A 
HETATM   23  C   UNL     1       5.892   8.310  24.513  0.00  0.00     0.003 A 
HETATM   24  C   UNL     1       7.031   8.076  23.748  0.00  0.00     0.002 A 
HETATM   25  C   UNL     1       7.125   8.613  22.462  0.00  0.00     0.033 A 
ENDBRANCH   7  19
TORSDOF 4
ENDMDL
MODEL 4
REMARK VINA RESULT:    -6.472      2.309      3.322
REMARK INTER + INTRA:          -8.660
REMARK INTER:                  -7.899
REMARK INTRA:                  -0.761
REMARK UNBOUND:                -1.053
REMARK  4 active torsions:
REMARK  status: ('A' for Active; 'I' for Inactive)
REMARK    1  A    between atoms: O_1  and  C_2 
REMARK    2  A    between atoms: C_4  and  O_5 
REMARK    3  A    between atoms: C_6  and  C_10 
REMARK    4  A    between atoms: N_16  and  C_17 
ROOT
HETATM    1  C   UNL     1       7.874  12.699  21.055  0.00  0.00     0.172 A 
HETATM    2  N   UNL     1       8.883  12.613  20.226  0.00  0.00    -0.151 NA
HETATM    3  N   UNL     1       9.558  13.784  20.360  0.00  0.00    -0.226 N 
HETATM    4  H   UNL     1      10.481  13.933  19.970  0.00  0.00     0.194 HD
HETATM    5  C   UNL     1       8.962  14.590  21.318  0.00  0.00     0.349 A 
HETATM    6  O   UNL     1       9.428  15.638  21.733  0.00  0.00    -0.245 OA
HETATM    7  N   UNL     1       7.830  13.903  21.726  0.00  0.00    -0.241 N 
ENDROOT
BRANCH   1   8
HETATM    8  C   UNL     1       6.862  11.608  21.175  0.00  0.00     0.047 C 
HETATM    9  C   UNL     1       6.463  10.872  20.042  0.00  0.00     0.082 C 
HETATM   10  C   UNL     1       5.579   9.795  20.152  0.00  0.00     0.075 C 
HETATM   11  C   UNL     1       5.087   9.433  21.403  0.00  0.00     0.085 C 
HETATM   12  C   UNL     1       5.414  10.193  22.527  0.00  0.00     0.040 C 
HETATM   13  C   UNL     1       6.261  11.303  22.404  0.00  0.00     0.039 C 
HETATM   14  I   UNL     1       4.728   9.686  24.436  0.00  0.00    -0.042 I 
BRANCH   9  15
HETATM   15  O   UNL     1       6.954  11.165  18.799  0.00  0.00    -0.360 OA
HETATM   16  H   UNL     1       7.111  12.119  18.717  0.00  0.00     0.217 HD
ENDBRANCH   9  15
BRANCH  11  17
HETATM   17  O   UNL     1       4.292   8.328  21.519  0.00  0.00    -0.359 OA
HETATM   18  H   UNL     1       3.967   8.253  22.431  0.00  0.00     0.217 HD
ENDBRANCH  11  17
ENDBRANCH   1   8
BRANCH   7  19
HETATM   19  C   UNL     1       7.062  14.372  22.808  0.00  0.00     0.084 A 
HETATM   20  C   UNL     1       7.512  14.329  24.130  0.00  0.00     0.143 A 
HETATM   21  F   UNL     1       8.720  13.827  24.425  0.00  0.00    -0.204 F 
HETATM   22  C   UNL     1       6.744  14.860  25.168  0.00  0.00     0.044 A 
HETATM   23  C   UNL     1       5.508  15.439  24.892  0.00  0.00     0.003 A 
HETATM   24  C   UNL     1       5.038  15.488  23.583  0.00  0.00     0.002 A 
HETATM   25  C   UNL     1       5.816  14.967  22.547  0.00  0.00     0.033 A 
ENDBRANCH   7  19
TORSDOF 4
ENDMDL
MODEL 5
REMARK VINA RESULT:    -6.426      3.819      5.783
REMARK INTER + INTRA:          -8.605
REMARK INTER:                  -7.576
REMARK INTRA:                  -1.029
REMARK UNBOUND:                -1.053
REMARK  4 active torsions:
REMARK  status: ('A' for Active; 'I' for Inactive)
REMARK    1  A    between atoms: O_1  and  C_2 
REMARK    2  A    between atoms: C_4  and  O_5 
REMARK    3  A    between atoms: C_6  and  C_10 
REMARK    4  A    between atoms: N_16  and  C_17 
ROOT
HETATM    1  C   UNL     1       6.411  11.173  20.075  0.00  0.00     0.172 A 
HETATM    2  N   UNL     1       6.402  11.174  18.768  0.00  0.00    -0.151 NA
HETATM    3  N   UNL     1       5.867   9.977  18.411  0.00  0.00    -0.226 N 
HETATM    4  H   UNL     1       5.576   9.767  17.464  0.00  0.00     0.194 HD
HETATM    5  C   UNL     1       5.512   9.243  19.532  0.00  0.00     0.349 A 
HETATM    6  O   UNL     1       4.895   8.191  19.509  0.00  0.00    -0.245 OA
HETATM    7  N   UNL     1       5.924  10.002  20.616  0.00  0.00    -0.241 N 
ENDROOT
BRANCH   1   8
HETATM    8  C   UNL     1       6.966  12.318  20.857  0.00  0.00     0.047 C 
HETATM    9  C   UNL     1       8.319  12.686  20.727  0.00  0.00     0.082 C 
HETATM   10  C   UNL     1       8.833  13.804  21.389  0.00  0.00     0.075 C 
HETATM   11  C   UNL     1       7.995  14.578  22.186  0.00  0.00     0.085 C 
HETATM   12  C   UNL     1       6.669  14.190  22.385  0.00  0.00     0.040 C 
HETATM   13  C   UNL     1       6.171  13.039  21.758  0.00  0.00     0.039 C 
HETATM   14  I   UNL     1       5.353  15.323  23.550  0.00  0.00    -0.042 I 
BRANCH   9  15
HETATM   15  O   UNL     1       9.170  11.979  19.921  0.00  0.00    -0.360 OA
HETATM   16  H   UNL     1       9.774  11.443  20.459  0.00  0.00     0.217 HD
ENDBRANCH   9  15
BRANCH  11  17
HETATM   17  O   UNL     1       8.479  15.718  22.763  0.00  0.00    -0.359 OA
HETATM   18  H   UNL     1       8.393  16.461  22.143  0.00  0.00     0.217 HD
ENDBRANCH  11  17
ENDBRANCH   1   8
BRANCH   7  19
HETATM   19  C   UNL     1       5.583   9.618  21.927  0.00  0.00     0.084 A 
HETATM   20  C   UNL     1       6.454   8.909  22.759  0.00  0.00     0.143 A 
HETATM   21  F   UNL     1       7.675   8.560  22.329  0.00  0.00    -0.204 F 
HETATM   22  C   UNL     1       6.101   8.600  24.073  0.00  0.00     0.044 A 
HETATM   23  C   UNL     1       4.861   8.996  24.571  0.00  0.00     0.003 A 
HETATM   24  C   UNL     1       3.976   9.699  23.758  0.00  0.00     0.002 A 
HETATM   25  C   UNL     1       4.341  10.016  22.448  0.00  0.00     0.033 A 
ENDBRANCH   7  19
TORSDOF 4
ENDMDL
MODEL 6
REMARK VINA RESULT:    -6.300      1.337      1.512
REMARK INTER + INTRA:          -8.457
REMARK INTER:                  -7.612
REMARK INTRA:                  -0.845
REMARK UNBOUND:                -1.053
REMARK  4 active torsions:
REMARK  status: ('A' for Active; 'I' for Inactive)
REMARK    1  A    between atoms: O_1  and  C_2 
REMARK    2  A    between atoms: C_4  and  O_5 
REMARK    3  A    between atoms: C_6  and  C_10 
REMARK    4  A    between atoms: N_16  and  C_17 
ROOT
HETATM    1  C   UNL     1       8.012  12.740  24.392  0.00  0.00     0.172 A 
HETATM    2  N   UNL     1       9.166  12.599  24.990  0.00  0.00    -0.151 NA
HETATM    3  N   UNL     1       9.270  13.666  25.825  0.00  0.00    -0.226 N 
HETATM    4  H   UNL     1       9.980  13.733  26.544  0.00  0.00     0.194 HD
HETATM    5  C   UNL     1       8.134  14.457  25.756  0.00  0.00     0.349 A 
HETATM    6  O   UNL     1       7.900  15.405  26.489  0.00  0.00    -0.245 OA
HETATM    7  N   UNL     1       7.341  13.882  24.776  0.00  0.00    -0.241 N 
ENDROOT
BRANCH   1   8
HETATM    8  C   UNL     1       7.542  11.772  23.355  0.00  0.00     0.047 C 
HETATM    9  C   UNL     1       7.506  12.139  21.996  0.00  0.00     0.082 C 
HETATM   10  C   UNL     1       7.148  11.219  21.007  0.00  0.00     0.075 C 
HETATM   11  C   UNL     1       6.828   9.913  21.364  0.00  0.00     0.085 C 
HETATM   12  C   UNL     1       6.788   9.549  22.711  0.00  0.00     0.040 C 
HETATM   13  C   UNL     1       7.100  10.489  23.703  0.00  0.00     0.039 C 
HETATM   14  I   UNL     1       6.339   7.597  23.311  0.00  0.00    -0.042 I 
BRANCH   9  15
HETATM   15  O   UNL     1       7.855  13.399  21.595  0.00  0.00    -0.360 OA
HETATM   16  H   UNL     1       7.523  13.569  20.699  0.00  0.00     0.217 HD
ENDBRANCH   9  15
BRANCH  11  17
HETATM   17  O   UNL     1       6.561   8.994  20.388  0.00  0.00    -0.359 OA
HETATM   18  H   UNL     1       5.668   8.632  20.516  0.00  0.00     0.217 HD
ENDBRANCH  11  17
ENDBRANCH   1   8
BRANCH   7  19
HETATM   19  C   UNL     1       6.034  14.351  24.549  0.00  0.00     0.084 A 
HETATM   20  C   UNL     1       4.897  13.667  24.988  0.00  0.00     0.143 A 
HETATM   21  F   UNL     1       5.012  12.511  25.657  0.00  0.00    -0.204 F 
HETATM   22  C   UNL     1       3.620  14.197  24.795  0.00  0.00     0.044 A 
HETATM   23  C   UNL     1       3.466  15.423  24.152  0.00  0.00     0.003 A 
HETATM   24  C   UNL     1       4.585  16.119  23.702  0.00  0.00     0.002 A 
HETATM   25  C   UNL     1       5.860  15.590  23.910  0.00  0.00     0.033 A 
ENDBRANCH   7  19
TORSDOF 4
ENDMDL
MODEL 7
REMARK VINA RESULT:    -6.178      2.860      4.003
REMARK INTER + INTRA:          -8.314
REMARK INTER:                  -7.223
REMARK INTRA:                  -1.090
REMARK UNBOUND:                -1.053
REMARK  4 active torsions:
REMARK  status: ('A' for Active; 'I' for Inactive)
REMARK    1  A    between atoms: O_1  and  C_2 
REMARK    2  A    between atoms: C_4  and  O_5 
REMARK    3  A    between atoms: C_6  and  C_10 
REMARK    4  A    between atoms: N_16  and  C_17 
ROOT
HETATM    1  C   UNL     1       4.515  13.010  23.692  0.00  0.00     0.172 A 
HETATM    2  N   UNL     1       3.248  13.053  24.012  0.00  0.00    -0.151 NA
HETATM    3  N   UNL     1       3.083  14.235  24.663  0.00  0.00    -0.226 N 
HETATM    4  H   UNL     1       2.172  14.620  24.877  0.00  0.00     0.194 HD
HETATM    5  C   UNL     1       4.275  14.941  24.711  0.00  0.00     0.349 A 
HETATM    6  O   UNL     1       4.391  16.085  25.120  0.00  0.00    -0.245 OA
HETATM    7  N   UNL     1       5.220  14.111  24.128  0.00  0.00    -0.241 N 
ENDROOT
BRANCH   1   8
HETATM    8  C   UNL     1       5.106  11.833  22.986  0.00  0.00     0.047 C 
HETATM    9  C   UNL     1       4.599  11.415  21.741  0.00  0.00     0.082 C 
HETATM   10  C   UNL     1       5.193  10.368  21.031  0.00  0.00     0.075 C 
HETATM   11  C   UNL     1       6.312   9.728  21.556  0.00  0.00     0.085 C 
HETATM   12  C   UNL     1       6.786  10.079  22.821  0.00  0.00     0.040 C 
HETATM   13  C   UNL     1       6.156  11.096  23.551  0.00  0.00     0.039 C 
HETATM   14  I   UNL     1       8.477   9.173  23.653  0.00  0.00    -0.042 I 
BRANCH   9  15
HETATM   15  O   UNL     1       3.527  12.043  21.167  0.00  0.00    -0.360 OA
HETATM   16  H   UNL     1       3.448  11.785  20.235  0.00  0.00     0.217 HD
ENDBRANCH   9  15
BRANCH  11  17
HETATM   17  O   UNL     1       6.941   8.763  20.821  0.00  0.00    -0.359 OA
HETATM   18  H   UNL     1       7.433   8.170  21.413  0.00  0.00     0.217 HD
ENDBRANCH  11  17
ENDBRANCH   1   8
BRANCH   7  19
HETATM   19  C   UNL     1       6.523  14.580  23.877  0.00  0.00     0.084 A 
HETATM   20  C   UNL     1       7.538  14.547  24.837  0.00  0.00     0.143 A 
HETATM   21  F   UNL     1       7.303  14.057  26.063  0.00  0.00    -0.204 F 
HETATM   22  C   UNL     1       8.833  14.965  24.528  0.00  0.00     0.044 A 
HETATM   23  C   UNL     1       9.127  15.429  23.248  0.00  0.00     0.003 A 
HETATM   24  C   UNL     1       8.130  15.475  22.277  0.00  0.00     0.002 A 
HETATM   25  C   UNL     1       6.840  15.043  22.588  0.00  0.00     0.033 A 
ENDBRANCH   7  19
TORSDOF 4
ENDMDL
MODEL 8
REMARK VINA RESULT:    -6.041      2.484      5.273
REMARK INTER + INTRA:          -8.153
REMARK INTER:                  -7.243
REMARK INTRA:                  -0.910
REMARK UNBOUND:                -1.053
REMARK  4 active torsions:
REMARK  status: ('A' for Active; 'I' for Inactive)
REMARK    1  A    between atoms: O_1  and  C_2 
REMARK    2  A    between atoms: C_4  and  O_5 
REMARK    3  A    between atoms: C_6  and  C_10 
REMARK    4  A    between atoms: N_16  and  C_17 
ROOT
HETATM    1  C   UNL     1       7.400  14.124  22.036  0.00  0.00     0.172 A 
HETATM    2  N   UNL     1       8.248  15.103  21.852  0.00  0.00    -0.151 NA
HETATM    3  N   UNL     1       9.216  14.593  21.046  0.00  0.00    -0.226 N 
HETATM    4  H   UNL     1       9.914  15.170  20.595  0.00  0.00     0.194 HD
HETATM    5  C   UNL     1       8.931  13.279  20.706  0.00  0.00     0.349 A 
HETATM    6  O   UNL     1       9.558  12.619  19.894  0.00  0.00    -0.245 OA
HETATM    7  N   UNL     1       7.777  12.959  21.403  0.00  0.00    -0.241 N 
ENDROOT
BRANCH   1   8
HETATM    8  C   UNL     1       6.198  14.281  22.909  0.00  0.00     0.047 C 
HETATM    9  C   UNL     1       6.302  14.907  24.166  0.00  0.00     0.082 C 
HETATM   10  C   UNL     1       5.173  15.134  24.958  0.00  0.00     0.075 C 
HETATM   11  C   UNL     1       3.919  14.745  24.497  0.00  0.00     0.085 C 
HETATM   12  C   UNL     1       3.804  14.059  23.287  0.00  0.00     0.040 C 
HETATM   13  C   UNL     1       4.945  13.789  22.519  0.00  0.00     0.039 C 
HETATM   14  I   UNL     1       1.946  13.469  22.527  0.00  0.00    -0.042 I 
BRANCH   9  15
HETATM   15  O   UNL     1       7.508  15.346  24.641  0.00  0.00    -0.360 OA
HETATM   16  H   UNL     1       7.633  15.055  25.558  0.00  0.00     0.217 HD
ENDBRANCH   9  15
BRANCH  11  17
HETATM   17  O   UNL     1       2.808  15.044  25.234  0.00  0.00    -0.359 OA
HETATM   18  H   UNL     1       3.074  15.373  26.108  0.00  0.00     0.217 HD
ENDBRANCH  11  17
ENDBRANCH   1   8
BRANCH   7  19
HETATM   19  C   UNL     1       7.120  11.735  21.172  0.00  0.00     0.084 A 
HETATM   20  C   UNL     1       7.145  10.679  22.086  0.00  0.00     0.143 A 
HETATM   21  F   UNL     1       7.812  10.793  23.244  0.00  0.00    -0.204 F 
HETATM   22  C   UNL     1       6.430   9.504  21.846  0.00  0.00     0.044 A 
HETATM   23  C   UNL     1       5.682   9.372  20.678  0.00  0.00     0.003 A 
HETATM   24  C   UNL     1       5.646  10.411  19.752  0.00  0.00     0.002 A 
HETATM   25  C   UNL     1       6.353  11.588  20.004  0.00  0.00     0.033 A 
ENDBRANCH   7  19
TORSDOF 4
ENDMDL
MODEL 9
REMARK VINA RESULT:    -5.471      2.349      3.103
REMARK INTER + INTRA:          -7.483
REMARK INTER:                  -6.430
REMARK INTRA:                  -1.053
REMARK UNBOUND:                -1.053
REMARK  4 active torsions:
REMARK  status: ('A' for Active; 'I' for Inactive)
REMARK    1  A    between atoms: O_1  and  C_2 
REMARK    2  A    between atoms: C_4  and  O_5 
REMARK    3  A    between atoms: C_6  and  C_10 
REMARK    4  A    between atoms: N_16  and  C_17 
ROOT
HETATM    1  C   UNL     1       7.839  12.493  21.041  0.00  0.00     0.172 A 
HETATM    2  N   UNL     1       9.037  12.634  20.538  0.00  0.00    -0.151 NA
HETATM    3  N   UNL     1       9.558  13.728  21.153  0.00  0.00    -0.226 N 
HETATM    4  H   UNL     1      10.537  13.977  21.091  0.00  0.00     0.194 HD
HETATM    5  C   UNL     1       8.664  14.245  22.078  0.00  0.00     0.349 A 
HETATM    6  O   UNL     1       8.917  15.144  22.863  0.00  0.00    -0.245 OA
HETATM    7  N   UNL     1       7.520  13.472  21.958  0.00  0.00    -0.241 N 
ENDROOT
BRANCH   1   8
HETATM    8  C   UNL     1       6.920  11.407  20.585  0.00  0.00     0.047 C 
HETATM    9  C   UNL     1       6.923  10.151  21.221  0.00  0.00     0.082 C 
HETATM   10  C   UNL     1       6.013   9.153  20.860  0.00  0.00     0.075 C 
HETATM   11  C   UNL     1       5.078   9.404  19.860  0.00  0.00     0.085 C 
HETATM   12  C   UNL     1       5.105  10.616  19.169  0.00  0.00     0.040 C 
HETATM   13  C   UNL     1       6.052  11.594  19.501  0.00  0.00     0.039 C 
HETATM   14  I   UNL     1       3.712  11.062  17.674  0.00  0.00    -0.042 I 
BRANCH   9  15
HETATM   15  O   UNL     1       7.795   9.876  22.239  0.00  0.00    -0.360 OA
HETATM   16  H   UNL     1       8.699  10.119  21.981  0.00  0.00     0.217 HD
ENDBRANCH   9  15
BRANCH  11  17
HETATM   17  O   UNL     1       4.135   8.458  19.569  0.00  0.00    -0.359 OA
HETATM   18  H   UNL     1       4.433   7.921  18.816  0.00  0.00     0.217 HD
ENDBRANCH  11  17
ENDBRANCH   1   8
BRANCH   7  19
HETATM   19  C   UNL     1       6.454  13.631  22.863  0.00  0.00     0.084 A 
HETATM   20  C   UNL     1       6.338  12.881  24.036  0.00  0.00     0.143 A 
HETATM   21  F   UNL     1       7.260  11.959  24.352  0.00  0.00    -0.204 F 
HETATM   22  C   UNL     1       5.297  13.112  24.937  0.00  0.00     0.044 A 
HETATM   23  C   UNL     1       4.352  14.099  24.668  0.00  0.00     0.003 A 
HETATM   24  C   UNL     1       4.445  14.855  23.503  0.00  0.00     0.002 A 
HETATM   25  C   UNL     1       5.496  14.628  22.612  0.00  0.00     0.033 A 
ENDBRANCH   7  19
TORSDOF 4
ENDMDL
