MODEL 1
REMARK VINA RESULT:    -8.817      0.000      0.000
REMARK INTER + INTRA:         -14.472
REMARK INTER:                 -12.203
REMARK INTRA:                  -2.270
REMARK UNBOUND:                -2.563
REMARK  7 active torsions:
REMARK  status: ('A' for Active; 'I' for Inactive)
REMARK    1  A    between atoms: C_7  and  C_8 
REMARK    2  A    between atoms: C_8  and  N_9 
REMARK       I    between atoms: N_9  and  C_11 
REMARK    3  A    between atoms: C_11  and  C_13 
REMARK    4  A    between atoms: C_15  and  C_16 
REMARK    5  A    between atoms: N_22  and  C_23 
REMARK    6  A    between atoms: C_30  and  O_31 
REMARK    7  A    between atoms: C_33  and  O_34 
ROOT
HETATM    1  C   UNL     1       7.829  10.709  23.962  0.00  0.00     0.066 C 
HETATM    2  C   UNL     1       8.537  11.545  24.856  0.00  0.00     0.038 C 
HETATM    3  C   UNL     1       9.925  11.400  25.030  0.00  0.00     0.046 C 
HETATM    4  C   UNL     1      10.619  10.539  24.168  0.00  0.00     0.082 C 
HETATM    5  C   UNL     1       9.928   9.666  23.343  0.00  0.00     0.075 C 
HETATM    6  C   UNL     1       8.539   9.705  23.279  0.00  0.00     0.084 C 
ENDROOT
BRANCH   3   7
HETATM    7  C   UNL     1      10.725  12.060  26.099  0.00  0.00     0.172 C 
HETATM    8  N   UNL     1      10.961  11.435  27.228  0.00  0.00    -0.151 NA
HETATM    9  N   UNL     1      11.595  12.359  28.001  0.00  0.00    -0.226 N 
HETATM   10  H   UNL     1      11.735  12.236  28.996  0.00  0.00     0.194 HD
HETATM   11  C   UNL     1      11.651  13.591  27.351  0.00  0.00     0.349 C 
HETATM   12  O   UNL     1      11.947  14.641  27.900  0.00  0.00    -0.245 OA
HETATM   13  N   UNL     1      11.192  13.350  26.066  0.00  0.00    -0.244 N 
BRANCH  13  14
HETATM   14  C   UNL     1      10.992  14.375  25.119  0.00  0.00     0.051 A 
HETATM   15  C   UNL     1      11.987  14.638  24.161  0.00  0.00     0.031 A 
HETATM   16  C   UNL     1      11.891  15.731  23.296  0.00  0.00     0.002 A 
HETATM   17  C   UNL     1      10.799  16.583  23.376  0.00  0.00     0.001 A 
HETATM   18  C   UNL     1       9.768  16.294  24.270  0.00  0.00     0.009 A 
HETATM   19  C   UNL     1       9.826  15.173  25.123  0.00  0.00    -0.035 A 
HETATM   20  C   UNL     1       8.642  14.982  26.034  0.00  0.00     0.050 C 
ENDBRANCH  13  14
ENDBRANCH   3   7
BRANCH   4  21
HETATM   21  O   UNL     1      11.983  10.500  24.067  0.00  0.00    -0.360 OA
HETATM   22  H   UNL     1      12.323   9.908  24.777  0.00  0.00     0.217 HD
ENDBRANCH   4  21
BRANCH   1  23
HETATM   23  C   UNL     1       6.442  11.119  23.576  0.00  0.00     0.256 C 
HETATM   24  N   UNL     1       6.143  11.759  22.372  0.00  0.00    -0.348 N 
HETATM   25  C   UNL     1       7.109  11.988  21.310  0.00  0.00     0.153 C 
HETATM   26  O   UNL     1       5.576  10.867  24.415  0.00  0.00    -0.267 OA
BRANCH  24  27
HETATM   27  C   UNL     1       4.896  12.527  22.286  0.00  0.00     0.164 C 
BRANCH  27  28
HETATM   28  C   UNL     1       4.678  13.752  23.171  0.00  0.00    -0.034 A 
HETATM   29  C   UNL     1       5.467  14.920  23.228  0.00  0.00    -0.054 A 
HETATM   30  C   UNL     1       6.760  15.089  22.483  0.00  0.00     0.049 C 
HETATM   31  C   UNL     1       5.030  16.016  24.009  0.00  0.00     0.007 A 
HETATM   32  C   UNL     1       3.844  15.974  24.738  0.00  0.00     0.001 A 
HETATM   33  C   UNL     1       3.065  14.829  24.702  0.00  0.00     0.001 A 
HETATM   34  C   UNL     1       3.474  13.741  23.924  0.00  0.00     0.009 A 
ENDBRANCH  27  28
ENDBRANCH  24  27
ENDBRANCH   1  23
BRANCH   6  35
HETATM   35  O   UNL     1       7.917   8.764  22.511  0.00  0.00    -0.360 OA
HETATM   36  H   UNL     1       7.289   9.233  21.926  0.00  0.00     0.217 HD
ENDBRANCH   6  35
TORSDOF 7
ENDMDL
MODEL 2
REMARK VINA RESULT:    -8.637      2.592      5.222
REMARK INTER + INTRA:         -14.229
REMARK INTER:                 -12.000
REMARK INTRA:                  -2.229
REMARK UNBOUND:                -2.563
REMARK  7 active torsions:
REMARK  status: ('A' for Active; 'I' for Inactive)
REMARK    1  A    between atoms: C_7  and  C_8 
REMARK    2  A    between atoms: C_8  and  N_9 
REMARK       I    between atoms: N_9  and  C_11 
REMARK    3  A    between atoms: C_11  and  C_13 
REMARK    4  A    between atoms: C_15  and  C_16 
REMARK    5  A    between atoms: N_22  and  C_23 
REMARK    6  A    between atoms: C_30  and  O_31 
REMARK    7  A    between atoms: C_33  and  O_34 
ROOT
HETATM    1  C   UNL     1       9.913  13.582  25.736  0.00  0.00     0.066 C 
HETATM    2  C   UNL     1       9.769  13.382  24.343  0.00  0.00     0.038 C 
HETATM    3  C   UNL     1      10.567  12.443  23.665  0.00  0.00     0.046 C 
HETATM    4  C   UNL     1      11.374  11.584  24.423  0.00  0.00     0.082 C 
HETATM    5  C   UNL     1      11.576  11.820  25.773  0.00  0.00     0.075 C 
HETATM    6  C   UNL     1      10.898  12.847  26.419  0.00  0.00     0.084 C 
ENDROOT
BRANCH   3   7
HETATM    7  C   UNL     1      10.661  12.315  22.184  0.00  0.00     0.172 C 
HETATM    8  N   UNL     1      11.760  12.668  21.560  0.00  0.00    -0.151 NA
HETATM    9  N   UNL     1      11.455  12.539  20.239  0.00  0.00    -0.226 N 
HETATM   10  H   UNL     1      12.038  12.919  19.504  0.00  0.00     0.194 HD
HETATM   11  C   UNL     1      10.115  12.195  20.072  0.00  0.00     0.349 C 
HETATM   12  O   UNL     1       9.522  12.248  19.007  0.00  0.00    -0.245 OA
HETATM   13  N   UNL     1       9.641  11.932  21.349  0.00  0.00    -0.244 N 
BRANCH  13  14
HETATM   14  C   UNL     1       8.287  11.652  21.622  0.00  0.00     0.051 A 
HETATM   15  C   UNL     1       7.896  10.333  21.911  0.00  0.00     0.031 A 
HETATM   16  C   UNL     1       6.549   9.990  22.050  0.00  0.00     0.002 A 
HETATM   17  C   UNL     1       5.568  10.958  21.897  0.00  0.00     0.001 A 
HETATM   18  C   UNL     1       5.943  12.285  21.683  0.00  0.00     0.009 A 
HETATM   19  C   UNL     1       7.298  12.660  21.581  0.00  0.00    -0.035 A 
HETATM   20  C   UNL     1       7.555  14.126  21.352  0.00  0.00     0.050 C 
ENDBRANCH  13  14
ENDBRANCH   3   7
BRANCH   4  21
HETATM   21  O   UNL     1      11.996  10.476  23.911  0.00  0.00    -0.360 OA
HETATM   22  H   UNL     1      12.322   9.936  24.667  0.00  0.00     0.217 HD
ENDBRANCH   4  21
BRANCH   1  23
HETATM   23  C   UNL     1       8.832  14.336  26.446  0.00  0.00     0.256 C 
HETATM   24  N   UNL     1       7.545  13.829  26.632  0.00  0.00    -0.348 N 
HETATM   25  C   UNL     1       7.142  12.479  26.275  0.00  0.00     0.153 C 
HETATM   26  O   UNL     1       9.157  15.456  26.842  0.00  0.00    -0.267 OA
BRANCH  24  27
HETATM   27  C   UNL     1       6.458  14.778  26.897  0.00  0.00     0.164 C 
BRANCH  27  28
HETATM   28  C   UNL     1       5.515  15.207  25.775  0.00  0.00    -0.034 A 
HETATM   29  C   UNL     1       4.224  15.760  25.905  0.00  0.00    -0.054 A 
HETATM   30  C   UNL     1       3.507  15.904  27.217  0.00  0.00     0.049 C 
HETATM   31  C   UNL     1       3.551  16.231  24.753  0.00  0.00     0.007 A 
HETATM   32  C   UNL     1       4.121  16.153  23.484  0.00  0.00     0.001 A 
HETATM   33  C   UNL     1       5.383  15.601  23.340  0.00  0.00     0.001 A 
HETATM   34  C   UNL     1       6.069  15.143  24.469  0.00  0.00     0.009 A 
ENDBRANCH  27  28
ENDBRANCH  24  27
ENDBRANCH   1  23
BRANCH   6  35
HETATM   35  O   UNL     1      11.205  13.078  27.728  0.00  0.00    -0.360 OA
HETATM   36  H   UNL     1      11.267  12.209  28.172  0.00  0.00     0.217 HD
ENDBRANCH   6  35
TORSDOF 7
ENDMDL
MODEL 3
REMARK VINA RESULT:    -8.541      3.235      5.099
REMARK INTER + INTRA:         -14.100
REMARK INTER:                 -12.628
REMARK INTRA:                  -1.472
REMARK UNBOUND:                -2.563
REMARK  7 active torsions:
REMARK  status: ('A' for Active; 'I' for Inactive)
REMARK    1  A    between atoms: C_7  and  C_8 
REMARK    2  A    between atoms: C_8  and  N_9 
REMARK       I    between atoms: N_9  and  C_11 
REMARK    3  A    between atoms: C_11  and  C_13 
REMARK    4  A    between atoms: C_15  and  C_16 
REMARK    5  A    between atoms: N_22  and  C_23 
REMARK    6  A    between atoms: C_30  and  O_31 
REMARK    7  A    between atoms: C_33  and  O_34 
ROOT
HETATM    1  C   UNL     1       4.374  10.541  24.489  0.00  0.00     0.066 C 
HETATM    2  C   UNL     1       5.238  11.580  24.909  0.00  0.00     0.038 C 
HETATM    3  C   UNL     1       6.599  11.568  24.557  0.00  0.00     0.046 C 
HETATM    4  C   UNL     1       7.042  10.610  23.635  0.00  0.00     0.082 C 
HETATM    5  C   UNL     1       6.225   9.550  23.278  0.00  0.00     0.075 C 
HETATM    6  C   UNL     1       4.917   9.478  23.745  0.00  0.00     0.084 C 
ENDROOT
BRANCH   3   7
HETATM    7  C   UNL     1       7.635  12.474  25.127  0.00  0.00     0.172 C 
HETATM    8  N   UNL     1       8.736  11.978  25.639  0.00  0.00    -0.151 NA
HETATM    9  N   UNL     1       9.380  13.056  26.167  0.00  0.00    -0.226 N 
HETATM   10  H   UNL     1      10.168  12.968  26.796  0.00  0.00     0.194 HD
HETATM   11  C   UNL     1       8.598  14.204  26.051  0.00  0.00     0.349 C 
HETATM   12  O   UNL     1       8.823  15.247  26.642  0.00  0.00    -0.245 OA
HETATM   13  N   UNL     1       7.519  13.835  25.262  0.00  0.00    -0.244 N 
BRANCH  13  14
HETATM   14  C   UNL     1       6.433  14.695  25.000  0.00  0.00     0.051 A 
HETATM   15  C   UNL     1       5.517  14.987  26.026  0.00  0.00     0.031 A 
HETATM   16  C   UNL     1       4.354  15.720  25.773  0.00  0.00     0.002 A 
HETATM   17  C   UNL     1       4.083  16.168  24.489  0.00  0.00     0.001 A 
HETATM   18  C   UNL     1       5.017  15.948  23.475  0.00  0.00     0.009 A 
HETATM   19  C   UNL     1       6.216  15.248  23.718  0.00  0.00    -0.035 A 
HETATM   20  C   UNL     1       7.132  15.088  22.533  0.00  0.00     0.050 C 
ENDBRANCH  13  14
ENDBRANCH   3   7
BRANCH   4  21
HETATM   21  O   UNL     1       8.267  10.649  23.026  0.00  0.00    -0.360 OA
HETATM   22  H   UNL     1       8.955  10.531  23.721  0.00  0.00     0.217 HD
ENDBRANCH   4  21
BRANCH   1  23
HETATM   23  C   UNL     1       2.899  10.772  24.607  0.00  0.00     0.256 C 
HETATM   24  N   UNL     1       2.262  11.904  24.098  0.00  0.00    -0.348 N 
HETATM   25  C   UNL     1       2.924  12.920  23.296  0.00  0.00     0.153 C 
HETATM   26  O   UNL     1       2.284   9.890  25.209  0.00  0.00    -0.267 OA
BRANCH  24  27
HETATM   27  C   UNL     1       0.954  12.272  24.653  0.00  0.00     0.164 C 
BRANCH  27  28
HETATM   28  C   UNL     1      -0.301  12.208  23.785  0.00  0.00    -0.034 A 
HETATM   29  C   UNL     1      -1.560  11.679  24.136  0.00  0.00    -0.054 A 
HETATM   30  C   UNL     1      -1.832  10.962  25.428  0.00  0.00     0.049 C 
HETATM   31  C   UNL     1      -2.651  11.834  23.249  0.00  0.00     0.007 A 
HETATM   32  C   UNL     1      -2.517  12.486  22.025  0.00  0.00     0.001 A 
HETATM   33  C   UNL     1      -1.283  12.999  21.661  0.00  0.00     0.001 A 
HETATM   34  C   UNL     1      -0.196  12.868  22.532  0.00  0.00     0.009 A 
ENDBRANCH  27  28
ENDBRANCH  24  27
ENDBRANCH   1  23
BRANCH   6  35
HETATM   35  O   UNL     1       4.193   8.367  23.423  0.00  0.00    -0.360 OA
HETATM   36  H   UNL     1       4.139   7.811  24.226  0.00  0.00     0.217 HD
ENDBRANCH   6  35
TORSDOF 7
ENDMDL
MODEL 4
REMARK VINA RESULT:    -8.533      4.114      5.878
REMARK INTER + INTRA:         -14.089
REMARK INTER:                 -12.189
REMARK INTRA:                  -1.900
REMARK UNBOUND:                -2.563
REMARK  7 active torsions:
REMARK  status: ('A' for Active; 'I' for Inactive)
REMARK    1  A    between atoms: C_7  and  C_8 
REMARK    2  A    between atoms: C_8  and  N_9 
REMARK       I    between atoms: N_9  and  C_11 
REMARK    3  A    between atoms: C_11  and  C_13 
REMARK    4  A    between atoms: C_15  and  C_16 
REMARK    5  A    between atoms: N_22  and  C_23 
REMARK    6  A    between atoms: C_30  and  O_31 
REMARK    7  A    between atoms: C_33  and  O_34 
ROOT
HETATM    1  C   UNL     1       3.933  10.369  24.255  0.00  0.00     0.066 C 
HETATM    2  C   UNL     1       4.748  11.332  24.896  0.00  0.00     0.038 C 
HETATM    3  C   UNL     1       6.045  11.603  24.426  0.00  0.00     0.046 C 
HETATM    4  C   UNL     1       6.445  11.037  23.207  0.00  0.00     0.082 C 
HETATM    5  C   UNL     1       5.687  10.040  22.615  0.00  0.00     0.075 C 
HETATM    6  C   UNL     1       4.466   9.662  23.162  0.00  0.00     0.084 C 
ENDROOT
BRANCH   3   7
HETATM    7  C   UNL     1       7.061  12.417  25.149  0.00  0.00     0.172 C 
HETATM    8  N   UNL     1       8.076  11.833  25.741  0.00  0.00    -0.151 NA
HETATM    9  N   UNL     1       8.716  12.843  26.392  0.00  0.00    -0.226 N 
HETATM   10  H   UNL     1       9.427  12.678  27.092  0.00  0.00     0.194 HD
HETATM   11  C   UNL     1       8.012  14.039  26.262  0.00  0.00     0.349 C 
HETATM   12  O   UNL     1       8.227  15.036  26.931  0.00  0.00    -0.245 OA
HETATM   13  N   UNL     1       7.003  13.774  25.348  0.00  0.00    -0.244 N 
BRANCH  13  14
HETATM   14  C   UNL     1       5.997  14.707  25.025  0.00  0.00     0.051 A 
HETATM   15  C   UNL     1       5.048  15.067  25.998  0.00  0.00     0.031 A 
HETATM   16  C   UNL     1       3.956  15.879  25.681  0.00  0.00     0.002 A 
HETATM   17  C   UNL     1       3.790  16.341  24.384  0.00  0.00     0.001 A 
HETATM   18  C   UNL     1       4.762  16.052  23.424  0.00  0.00     0.009 A 
HETATM   19  C   UNL     1       5.893  15.270  23.734  0.00  0.00    -0.035 A 
HETATM   20  C   UNL     1       6.859  15.041  22.602  0.00  0.00     0.050 C 
ENDBRANCH  13  14
ENDBRANCH   3   7
BRANCH   4  21
HETATM   21  O   UNL     1       7.569  11.416  22.524  0.00  0.00    -0.360 OA
HETATM   22  H   UNL     1       8.158  10.630  22.450  0.00  0.00     0.217 HD
ENDBRANCH   4  21
BRANCH   1  23
HETATM   23  C   UNL     1       2.473  10.361  24.586  0.00  0.00     0.256 C 
HETATM   24  N   UNL     1       1.845   9.299  25.237  0.00  0.00    -0.348 N 
HETATM   25  C   UNL     1       2.545   8.145  25.776  0.00  0.00     0.153 C 
HETATM   26  O   UNL     1       1.855  11.362  24.221  0.00  0.00    -0.267 OA
BRANCH  24  27
HETATM   27  C   UNL     1       0.390   9.163  25.098  0.00  0.00     0.164 C 
BRANCH  27  28
HETATM   28  C   UNL     1      -0.543   9.663  26.199  0.00  0.00    -0.034 A 
HETATM   29  C   UNL     1      -1.380  10.797  26.164  0.00  0.00    -0.054 A 
HETATM   30  C   UNL     1      -1.390  11.791  25.037  0.00  0.00     0.049 C 
HETATM   31  C   UNL     1      -2.285  11.026  27.227  0.00  0.00     0.007 A 
HETATM   32  C   UNL     1      -2.366  10.169  28.321  0.00  0.00     0.001 A 
HETATM   33  C   UNL     1      -1.541   9.058  28.376  0.00  0.00     0.001 A 
HETATM   34  C   UNL     1      -0.651   8.807  27.327  0.00  0.00     0.009 A 
ENDBRANCH  27  28
ENDBRANCH  24  27
ENDBRANCH   1  23
BRANCH   6  35
HETATM   35  O   UNL     1       3.809   8.618  22.577  0.00  0.00    -0.360 OA
HETATM   36  H   UNL     1       4.485   7.978  22.278  0.00  0.00     0.217 HD
ENDBRANCH   6  35
TORSDOF 7
ENDMDL
MODEL 5
REMARK VINA RESULT:    -8.417      1.903      2.891
REMARK INTER + INTRA:         -13.932
REMARK INTER:                 -11.514
REMARK INTRA:                  -2.418
REMARK UNBOUND:                -2.563
REMARK  7 active torsions:
REMARK  status: ('A' for Active; 'I' for Inactive)
REMARK    1  A    between atoms: C_7  and  C_8 
REMARK    2  A    between atoms: C_8  and  N_9 
REMARK       I    between atoms: N_9  and  C_11 
REMARK    3  A    between atoms: C_11  and  C_13 
REMARK    4  A    between atoms: C_15  and  C_16 
REMARK    5  A    between atoms: N_22  and  C_23 
REMARK    6  A    between atoms: C_30  and  O_31 
REMARK    7  A    between atoms: C_33  and  O_34 
ROOT
HETATM    1  C   UNL     1       7.163  10.747  24.530  0.00  0.00     0.066 C 
HETATM    2  C   UNL     1       8.069  11.829  24.430  0.00  0.00     0.038 C 
HETATM    3  C   UNL     1       9.455  11.603  24.374  0.00  0.00     0.046 C 
HETATM    4  C   UNL     1       9.911  10.284  24.234  0.00  0.00     0.082 C 
HETATM    5  C   UNL     1       9.041   9.220  24.405  0.00  0.00     0.075 C 
HETATM    6  C   UNL     1       7.684   9.443  24.610  0.00  0.00     0.084 C 
ENDROOT
BRANCH   3   7
HETATM    7  C   UNL     1      10.498  12.659  24.499  0.00  0.00     0.172 C 
HETATM    8  N   UNL     1      11.210  12.758  25.596  0.00  0.00    -0.151 NA
HETATM    9  N   UNL     1      11.957  13.882  25.417  0.00  0.00    -0.226 N 
HETATM   10  H   UNL     1      12.467  14.326  26.170  0.00  0.00     0.194 HD
HETATM   11  C   UNL     1      11.610  14.519  24.226  0.00  0.00     0.349 C 
HETATM   12  O   UNL     1      11.947  15.656  23.936  0.00  0.00    -0.245 OA
HETATM   13  N   UNL     1      10.748  13.648  23.580  0.00  0.00    -0.244 N 
BRANCH  13  14
HETATM   14  C   UNL     1      10.083  13.976  22.381  0.00  0.00     0.051 A 
HETATM   15  C   UNL     1       8.979  14.847  22.417  0.00  0.00     0.031 A 
HETATM   16  C   UNL     1       8.209  15.088  21.276  0.00  0.00     0.002 A 
HETATM   17  C   UNL     1       8.524  14.459  20.082  0.00  0.00     0.001 A 
HETATM   18  C   UNL     1       9.659  13.649  20.012  0.00  0.00     0.009 A 
HETATM   19  C   UNL     1      10.474  13.426  21.140  0.00  0.00    -0.035 A 
HETATM   20  C   UNL     1      11.666  12.533  20.919  0.00  0.00     0.050 C 
ENDBRANCH  13  14
ENDBRANCH   3   7
BRANCH   4  21
HETATM   21  O   UNL     1      11.202   9.955  23.919  0.00  0.00    -0.360 OA
HETATM   22  H   UNL     1      11.215   9.639  22.986  0.00  0.00     0.217 HD
ENDBRANCH   4  21
BRANCH   1  23
HETATM   23  C   UNL     1       5.717  11.022  24.255  0.00  0.00     0.256 C 
HETATM   24  N   UNL     1       5.219  11.275  22.976  0.00  0.00    -0.348 N 
HETATM   25  C   UNL     1       6.011  11.179  21.761  0.00  0.00     0.153 C 
HETATM   26  O   UNL     1       4.993  11.028  25.252  0.00  0.00    -0.267 OA
BRANCH  24  27
HETATM   27  C   UNL     1       3.938  11.980  22.858  0.00  0.00     0.164 C 
BRANCH  27  28
HETATM   28  C   UNL     1       3.834  13.461  23.215  0.00  0.00    -0.034 A 
HETATM   29  C   UNL     1       2.734  14.129  23.790  0.00  0.00    -0.054 A 
HETATM   30  C   UNL     1       1.402  13.480  24.039  0.00  0.00     0.049 C 
HETATM   31  C   UNL     1       2.869  15.481  24.183  0.00  0.00     0.007 A 
HETATM   32  C   UNL     1       4.059  16.183  24.006  0.00  0.00     0.001 A 
HETATM   33  C   UNL     1       5.145  15.544  23.429  0.00  0.00     0.001 A 
HETATM   34  C   UNL     1       5.034  14.203  23.048  0.00  0.00     0.009 A 
ENDBRANCH  27  28
ENDBRANCH  24  27
ENDBRANCH   1  23
BRANCH   6  35
HETATM   35  O   UNL     1       6.897   8.355  24.853  0.00  0.00    -0.360 OA
HETATM   36  H   UNL     1       6.029   8.685  25.161  0.00  0.00     0.217 HD
ENDBRANCH   6  35
TORSDOF 7
ENDMDL
MODEL 6
REMARK VINA RESULT:    -8.332      2.883      4.610
REMARK INTER + INTRA:         -13.818
REMARK INTER:                 -11.954
REMARK INTRA:                  -1.864
REMARK UNBOUND:                -2.563
REMARK  7 active torsions:
REMARK  status: ('A' for Active; 'I' for Inactive)
REMARK    1  A    between atoms: C_7  and  C_8 
REMARK    2  A    between atoms: C_8  and  N_9 
REMARK       I    between atoms: N_9  and  C_11 
REMARK    3  A    between atoms: C_11  and  C_13 
REMARK    4  A    between atoms: C_15  and  C_16 
REMARK    5  A    between atoms: N_22  and  C_23 
REMARK    6  A    between atoms: C_30  and  O_31 
REMARK    7  A    between atoms: C_33  and  O_34 
ROOT
HETATM    1  C   UNL     1       5.265  10.173  24.167  0.00  0.00     0.066 C 
HETATM    2  C   UNL     1       5.917  11.257  24.801  0.00  0.00     0.038 C 
HETATM    3  C   UNL     1       7.130  11.760  24.297  0.00  0.00     0.046 C 
HETATM    4  C   UNL     1       7.582  11.290  23.056  0.00  0.00     0.082 C 
HETATM    5  C   UNL     1       6.994  10.182  22.468  0.00  0.00     0.075 C 
HETATM    6  C   UNL     1       5.878   9.586  23.046  0.00  0.00     0.084 C 
ENDROOT
BRANCH   3   7
HETATM    7  C   UNL     1       8.009  12.733  25.004  0.00  0.00     0.172 C 
HETATM    8  N   UNL     1       9.138  12.333  25.540  0.00  0.00    -0.151 NA
HETATM    9  N   UNL     1       9.609  13.430  26.195  0.00  0.00    -0.226 N 
HETATM   10  H   UNL     1      10.368  13.383  26.863  0.00  0.00     0.194 HD
HETATM   11  C   UNL     1       8.692  14.478  26.126  0.00  0.00     0.349 C 
HETATM   12  O   UNL     1       8.749  15.483  26.816  0.00  0.00    -0.245 OA
HETATM   13  N   UNL     1       7.711  14.051  25.244  0.00  0.00    -0.244 N 
BRANCH  13  14
HETATM   14  C   UNL     1       6.538  14.788  24.987  0.00  0.00     0.051 A 
HETATM   15  C   UNL     1       5.608  14.994  26.022  0.00  0.00     0.031 A 
HETATM   16  C   UNL     1       4.372  15.598  25.776  0.00  0.00     0.002 A 
HETATM   17  C   UNL     1       4.042  16.002  24.491  0.00  0.00     0.001 A 
HETATM   18  C   UNL     1       4.982  15.871  23.468  0.00  0.00     0.009 A 
HETATM   19  C   UNL     1       6.251  15.303  23.703  0.00  0.00    -0.035 A 
HETATM   20  C   UNL     1       7.165  15.227  22.508  0.00  0.00     0.050 C 
ENDBRANCH  13  14
ENDBRANCH   3   7
BRANCH   4  21
HETATM   21  O   UNL     1       8.598  11.872  22.347  0.00  0.00    -0.360 OA
HETATM   22  H   UNL     1       8.343  11.872  21.396  0.00  0.00     0.217 HD
ENDBRANCH   4  21
BRANCH   1  23
HETATM   23  C   UNL     1       3.841   9.902  24.542  0.00  0.00     0.256 C 
HETATM   24  N   UNL     1       2.799  10.788  24.268  0.00  0.00    -0.348 N 
HETATM   25  C   UNL     1       2.949  12.005  23.487  0.00  0.00     0.153 C 
HETATM   26  O   UNL     1       3.656   8.837  25.134  0.00  0.00    -0.267 OA
BRANCH  24  27
HETATM   27  C   UNL     1       1.569  10.678  25.059  0.00  0.00     0.164 C 
BRANCH  27  28
HETATM   28  C   UNL     1       0.317  11.454  24.657  0.00  0.00    -0.034 A 
HETATM   29  C   UNL     1       0.063  12.828  24.845  0.00  0.00    -0.054 A 
HETATM   30  C   UNL     1       0.974  13.747  25.608  0.00  0.00     0.049 C 
HETATM   31  C   UNL     1      -1.099  13.404  24.279  0.00  0.00     0.007 A 
HETATM   32  C   UNL     1      -2.012  12.649  23.547  0.00  0.00     0.001 A 
HETATM   33  C   UNL     1      -1.783  11.295  23.365  0.00  0.00     0.001 A 
HETATM   34  C   UNL     1      -0.633  10.712  23.906  0.00  0.00     0.009 A 
ENDBRANCH  27  28
ENDBRANCH  24  27
ENDBRANCH   1  23
BRANCH   6  35
HETATM   35  O   UNL     1       5.398   8.451  22.461  0.00  0.00    -0.360 OA
HETATM   36  H   UNL     1       4.423   8.474  22.534  0.00  0.00     0.217 HD
ENDBRANCH   6  35
TORSDOF 7
ENDMDL
MODEL 7
REMARK VINA RESULT:    -8.197      3.260      5.958
REMARK INTER + INTRA:         -13.635
REMARK INTER:                 -10.856
REMARK INTRA:                  -2.778
REMARK UNBOUND:                -2.563
REMARK  7 active torsions:
REMARK  status: ('A' for Active; 'I' for Inactive)
REMARK    1  A    between atoms: C_7  and  C_8 
REMARK    2  A    between atoms: C_8  and  N_9 
REMARK       I    between atoms: N_9  and  C_11 
REMARK    3  A    between atoms: C_11  and  C_13 
REMARK    4  A    between atoms: C_15  and  C_16 
REMARK    5  A    between atoms: N_22  and  C_23 
REMARK    6  A    between atoms: C_30  and  O_31 
REMARK    7  A    between atoms: C_33  and  O_34 
ROOT
HETATM    1  C   UNL     1       6.625  11.520  20.803  0.00  0.00     0.066 C 
HETATM    2  C   UNL     1       6.088  12.096  21.978  0.00  0.00     0.038 C 
HETATM    3  C   UNL     1       4.944  11.552  22.587  0.00  0.00     0.046 C 
HETATM    4  C   UNL     1       4.457  10.325  22.115  0.00  0.00     0.082 C 
HETATM    5  C   UNL     1       4.928   9.794  20.925  0.00  0.00     0.075 C 
HETATM    6  C   UNL     1       5.965  10.414  20.238  0.00  0.00     0.084 C 
ENDROOT
BRANCH   3   7
HETATM    7  C   UNL     1       4.168  12.202  23.679  0.00  0.00     0.172 C 
HETATM    8  N   UNL     1       2.857  12.151  23.678  0.00  0.00    -0.151 NA
HETATM    9  N   UNL     1       2.486  12.937  24.726  0.00  0.00    -0.226 N 
HETATM   10  H   UNL     1       1.533  13.248  24.866  0.00  0.00     0.194 HD
HETATM   11  C   UNL     1       3.598  13.546  25.304  0.00  0.00     0.349 C 
HETATM   12  O   UNL     1       3.536  14.473  26.096  0.00  0.00    -0.245 OA
HETATM   13  N   UNL     1       4.697  12.963  24.692  0.00  0.00    -0.244 N 
BRANCH  13  14
HETATM   14  C   UNL     1       6.020  13.388  24.925  0.00  0.00     0.051 A 
HETATM   15  C   UNL     1       6.877  12.591  25.704  0.00  0.00     0.031 A 
HETATM   16  C   UNL     1       8.148  13.040  26.074  0.00  0.00     0.002 A 
HETATM   17  C   UNL     1       8.582  14.295  25.675  0.00  0.00     0.001 A 
HETATM   18  C   UNL     1       7.772  15.068  24.841  0.00  0.00     0.009 A 
HETATM   19  C   UNL     1       6.505  14.616  24.422  0.00  0.00    -0.035 A 
HETATM   20  C   UNL     1       5.742  15.552  23.521  0.00  0.00     0.050 C 
ENDBRANCH  13  14
ENDBRANCH   3   7
BRANCH   4  21
HETATM   21  O   UNL     1       3.519   9.575  22.772  0.00  0.00    -0.360 OA
HETATM   22  H   UNL     1       3.535   9.833  23.722  0.00  0.00     0.217 HD
ENDBRANCH   4  21
BRANCH   1  23
HETATM   23  C   UNL     1       8.006  11.929  20.395  0.00  0.00     0.256 C 
HETATM   24  N   UNL     1       9.092  11.925  21.272  0.00  0.00    -0.348 N 
HETATM   25  C   UNL     1       9.039  11.412  22.631  0.00  0.00     0.153 C 
HETATM   26  O   UNL     1       8.114  12.293  19.223  0.00  0.00    -0.267 OA
BRANCH  24  27
HETATM   27  C   UNL     1      10.252  12.761  20.943  0.00  0.00     0.164 C 
BRANCH  27  28
HETATM   28  C   UNL     1      10.520  14.051  21.713  0.00  0.00    -0.034 A 
HETATM   29  C   UNL     1       9.706  15.201  21.769  0.00  0.00    -0.054 A 
HETATM   30  C   UNL     1       8.460  15.381  20.950  0.00  0.00     0.049 C 
HETATM   31  C   UNL     1      10.049  16.253  22.652  0.00  0.00     0.007 A 
HETATM   32  C   UNL     1      11.179  16.194  23.464  0.00  0.00     0.001 A 
HETATM   33  C   UNL     1      11.996  15.076  23.410  0.00  0.00     0.001 A 
HETATM   34  C   UNL     1      11.665  14.020  22.554  0.00  0.00     0.009 A 
ENDBRANCH  27  28
ENDBRANCH  24  27
ENDBRANCH   1  23
BRANCH   6  35
HETATM   35  O   UNL     1       6.325   9.886  19.032  0.00  0.00    -0.360 OA
HETATM   36  H   UNL     1       7.249  10.157  18.859  0.00  0.00     0.217 HD
ENDBRANCH   6  35
TORSDOF 7
ENDMDL
MODEL 8
REMARK VINA RESULT:    -8.174      2.925      5.482
REMARK INTER + INTRA:         -13.604
REMARK INTER:                 -11.041
REMARK INTRA:                  -2.563
REMARK UNBOUND:                -2.563
REMARK  7 active torsions:
REMARK  status: ('A' for Active; 'I' for Inactive)
REMARK    1  A    between atoms: C_7  and  C_8 
REMARK    2  A    between atoms: C_8  and  N_9 
REMARK       I    between atoms: N_9  and  C_11 
REMARK    3  A    between atoms: C_11  and  C_13 
REMARK    4  A    between atoms: C_15  and  C_16 
REMARK    5  A    between atoms: N_22  and  C_23 
REMARK    6  A    between atoms: C_30  and  O_31 
REMARK    7  A    between atoms: C_33  and  O_34 
ROOT
HETATM    1  C   UNL     1       8.505  14.628  25.812  0.00  0.00     0.066 C 
HETATM    2  C   UNL     1       8.421  14.614  24.400  0.00  0.00     0.038 C 
HETATM    3  C   UNL     1       9.585  14.633  23.611  0.00  0.00     0.046 C 
HETATM    4  C   UNL     1      10.825  14.481  24.248  0.00  0.00     0.082 C 
HETATM    5  C   UNL     1      10.921  14.568  25.627  0.00  0.00     0.075 C 
HETATM    6  C   UNL     1       9.777  14.699  26.407  0.00  0.00     0.084 C 
ENDROOT
BRANCH   3   7
HETATM    7  C   UNL     1       9.613  14.850  22.138  0.00  0.00     0.172 C 
HETATM    8  N   UNL     1      10.416  15.749  21.619  0.00  0.00    -0.151 NA
HETATM    9  N   UNL     1      10.095  15.767  20.296  0.00  0.00    -0.226 N 
HETATM   10  H   UNL     1      10.410  16.494  19.666  0.00  0.00     0.194 HD
HETATM   11  C   UNL     1       9.011  14.928  20.040  0.00  0.00     0.349 C 
HETATM   12  O   UNL     1       8.373  14.934  19.000  0.00  0.00    -0.245 OA
HETATM   13  N   UNL     1       8.787  14.245  21.225  0.00  0.00    -0.244 N 
BRANCH  13  14
HETATM   14  C   UNL     1       7.697  13.371  21.412  0.00  0.00     0.051 A 
HETATM   15  C   UNL     1       6.501  13.864  21.963  0.00  0.00     0.031 A 
HETATM   16  C   UNL     1       5.447  13.008  22.293  0.00  0.00     0.002 A 
HETATM   17  C   UNL     1       5.572  11.643  22.082  0.00  0.00     0.001 A 
HETATM   18  C   UNL     1       6.723  11.147  21.468  0.00  0.00     0.009 A 
HETATM   19  C   UNL     1       7.780  11.998  21.089  0.00  0.00    -0.035 A 
HETATM   20  C   UNL     1       8.959  11.327  20.434  0.00  0.00     0.050 C 
ENDBRANCH  13  14
ENDBRANCH   3   7
BRANCH   4  21
HETATM   21  O   UNL     1      11.996  14.233  23.584  0.00  0.00    -0.360 OA
HETATM   22  H   UNL     1      11.786  13.679  22.797  0.00  0.00     0.217 HD
ENDBRANCH   4  21
BRANCH   1  23
HETATM   23  C   UNL     1       7.272  14.276  26.586  0.00  0.00     0.256 C 
HETATM   24  N   UNL     1       6.541  13.108  26.366  0.00  0.00    -0.348 N 
HETATM   25  C   UNL     1       6.953  12.048  25.460  0.00  0.00     0.153 C 
HETATM   26  O   UNL     1       6.933  15.111  27.426  0.00  0.00    -0.267 OA
BRANCH  24  27
HETATM   27  C   UNL     1       5.143  13.071  26.807  0.00  0.00     0.164 C 
BRANCH  27  28
HETATM   28  C   UNL     1       4.010  13.318  25.813  0.00  0.00    -0.034 A 
HETATM   29  C   UNL     1       3.580  14.556  25.293  0.00  0.00    -0.054 A 
HETATM   30  C   UNL     1       4.115  15.883  25.750  0.00  0.00     0.049 C 
HETATM   31  C   UNL     1       2.603  14.579  24.269  0.00  0.00     0.007 A 
HETATM   32  C   UNL     1       2.040  13.409  23.764  0.00  0.00     0.001 A 
HETATM   33  C   UNL     1       2.443  12.186  24.274  0.00  0.00     0.001 A 
HETATM   34  C   UNL     1       3.418  12.144  25.276  0.00  0.00     0.009 A 
ENDBRANCH  27  28
ENDBRANCH  24  27
ENDBRANCH   1  23
BRANCH   6  35
HETATM   35  O   UNL     1       9.947  14.863  27.751  0.00  0.00    -0.360 OA
HETATM   36  H   UNL     1      10.714  14.318  28.017  0.00  0.00     0.217 HD
ENDBRANCH   6  35
TORSDOF 7
ENDMDL
MODEL 9
REMARK VINA RESULT:    -8.104      2.753      4.360
REMARK INTER + INTRA:         -13.509
REMARK INTER:                 -11.738
REMARK INTRA:                  -1.771
REMARK UNBOUND:                -2.563
REMARK  7 active torsions:
REMARK  status: ('A' for Active; 'I' for Inactive)
REMARK    1  A    between atoms: C_7  and  C_8 
REMARK    2  A    between atoms: C_8  and  N_9 
REMARK       I    between atoms: N_9  and  C_11 
REMARK    3  A    between atoms: C_11  and  C_13 
REMARK    4  A    between atoms: C_15  and  C_16 
REMARK    5  A    between atoms: N_22  and  C_23 
REMARK    6  A    between atoms: C_30  and  O_31 
REMARK    7  A    between atoms: C_33  and  O_34 
ROOT
HETATM    1  C   UNL     1       6.634  12.913  24.818  0.00  0.00     0.066 C 
HETATM    2  C   UNL     1       7.163  12.613  23.541  0.00  0.00     0.038 C 
HETATM    3  C   UNL     1       8.361  11.887  23.412  0.00  0.00     0.046 C 
HETATM    4  C   UNL     1       8.919  11.312  24.561  0.00  0.00     0.082 C 
HETATM    5  C   UNL     1       8.452  11.661  25.818  0.00  0.00     0.075 C 
HETATM    6  C   UNL     1       7.354  12.502  25.954  0.00  0.00     0.084 C 
ENDROOT
BRANCH   3   7
HETATM    7  C   UNL     1       9.120  11.715  22.142  0.00  0.00     0.172 C 
HETATM    8  N   UNL     1       9.163  10.543  21.553  0.00  0.00    -0.151 NA
HETATM    9  N   UNL     1      10.027  10.717  20.515  0.00  0.00    -0.226 N 
HETATM   10  H   UNL     1      10.412   9.943  19.989  0.00  0.00     0.194 HD
HETATM   11  C   UNL     1      10.584  11.994  20.545  0.00  0.00     0.349 C 
HETATM   12  O   UNL     1      11.552  12.334  19.884  0.00  0.00    -0.245 OA
HETATM   13  N   UNL     1       9.892  12.674  21.536  0.00  0.00    -0.244 N 
BRANCH  13  14
HETATM   14  C   UNL     1      10.234  13.976  21.953  0.00  0.00     0.051 A 
HETATM   15  C   UNL     1      11.370  14.170  22.758  0.00  0.00     0.031 A 
HETATM   16  C   UNL     1      11.665  15.422  23.307  0.00  0.00     0.002 A 
HETATM   17  C   UNL     1      10.826  16.499  23.065  0.00  0.00     0.001 A 
HETATM   18  C   UNL     1       9.735  16.340  22.209  0.00  0.00     0.009 A 
HETATM   19  C   UNL     1       9.444  15.097  21.611  0.00  0.00    -0.035 A 
HETATM   20  C   UNL     1       8.238  15.072  20.709  0.00  0.00     0.050 C 
ENDBRANCH  13  14
ENDBRANCH   3   7
BRANCH   4  21
HETATM   21  O   UNL     1       9.927  10.386  24.536  0.00  0.00    -0.360 OA
HETATM   22  H   UNL     1       9.914   9.948  23.654  0.00  0.00     0.217 HD
ENDBRANCH   4  21
BRANCH   1  23
HETATM   23  C   UNL     1       5.216  13.387  24.890  0.00  0.00     0.256 C 
HETATM   24  N   UNL     1       4.784  14.589  24.326  0.00  0.00    -0.348 N 
HETATM   25  C   UNL     1       5.620  15.450  23.506  0.00  0.00     0.153 C 
HETATM   26  O   UNL     1       4.452  12.643  25.507  0.00  0.00    -0.267 OA
BRANCH  24  27
HETATM   27  C   UNL     1       3.545  15.187  24.833  0.00  0.00     0.164 C 
BRANCH  27  28
HETATM   28  C   UNL     1       2.220  14.435  24.724  0.00  0.00    -0.034 A 
HETATM   29  C   UNL     1       1.266  14.226  25.741  0.00  0.00    -0.054 A 
HETATM   30  C   UNL     1       1.474  14.626  27.173  0.00  0.00     0.049 C 
HETATM   31  C   UNL     1       0.027  13.625  25.418  0.00  0.00     0.007 A 
HETATM   32  C   UNL     1      -0.278  13.218  24.121  0.00  0.00     0.001 A 
HETATM   33  C   UNL     1       0.654  13.405  23.114  0.00  0.00     0.001 A 
HETATM   34  C   UNL     1       1.879  14.011  23.412  0.00  0.00     0.009 A 
ENDBRANCH  27  28
ENDBRANCH  24  27
ENDBRANCH   1  23
BRANCH   6  35
HETATM   35  O   UNL     1       6.996  12.872  27.218  0.00  0.00    -0.360 OA
HETATM   36  H   UNL     1       6.143  12.439  27.419  0.00  0.00     0.217 HD
ENDBRANCH   6  35
TORSDOF 7
ENDMDL
