MODEL 1
REMARK VINA RESULT:    -9.109      0.000      0.000
REMARK INTER + INTRA:         -13.892
REMARK INTER:                 -12.907
REMARK INTRA:                  -0.985
REMARK UNBOUND:                -1.322
REMARK  7 active torsions:
REMARK  status: ('A' for Active; 'I' for Inactive)
REMARK    1  A    between atoms: N_6  and  C_8 
REMARK    2  A    between atoms: C_8  and  C_9 
REMARK    3  A    between atoms: C_14  and  N_15 
REMARK       I    between atoms: N_15  and  C_17 
REMARK    4  A    between atoms: C_17  and  C_19 
REMARK    5  A    between atoms: C_20  and  O_22 
REMARK    6  A    between atoms: C_26  and  C_30 
REMARK    7  A    between atoms: C_30  and  C_31 
ROOT
HETATM    1  C   UNL     1      -1.665  10.915  24.875  0.00  0.00     0.066 A 
HETATM    2  C   UNL     1      -2.335  11.375  26.016  0.00  0.00     0.083 A 
HETATM    3  C   UNL     1      -3.363  12.322  25.932  0.00  0.00     0.069 A 
HETATM    4  C   UNL     1      -1.951  11.501  23.619  0.00  0.00     0.035 A 
HETATM    5  C   UNL     1      -2.974  12.468  23.515  0.00  0.00     0.020 A 
HETATM    6  C   UNL     1      -3.651  12.844  24.669  0.00  0.00     0.065 A 
HETATM    7  C   UNL     1      -3.577  13.237  22.473  0.00  0.00     0.071 A 
HETATM    8  N   UNL     1      -4.523  14.059  22.955  0.00  0.00    -0.178 NA
HETATM    9  N   UNL     1      -4.562  13.784  24.267  0.00  0.00    -0.277 N 
HETATM   10  H   UNL     1      -5.230  14.285  24.842  0.00  0.00     0.189 HD
ENDROOT
BRANCH   1  11
HETATM   11  C   UNL     1      -0.589   9.879  24.900  0.00  0.00     0.260 C 
HETATM   12  N   UNL     1       0.752  10.219  24.611  0.00  0.00    -0.318 N 
HETATM   13  C   UNL     1       1.290  11.581  24.528  0.00  0.00     0.159 C 
HETATM   14  O   UNL     1      -0.948   8.723  25.138  0.00  0.00    -0.267 OA
BRANCH  12  15
HETATM   15  C   UNL     1       1.732   9.187  24.637  0.00  0.00     0.037 C 
HETATM   16  C   UNL     1       1.814   8.264  23.594  0.00  0.00     0.030 C 
HETATM   17  C   UNL     1       2.853   7.336  23.549  0.00  0.00     0.011 C 
HETATM   18  C   UNL     1       3.873   7.367  24.512  0.00  0.00    -0.032 C 
HETATM   19  C   UNL     1       3.734   8.224  25.613  0.00  0.00     0.011 C 
HETATM   20  C   UNL     1       2.653   9.113  25.690  0.00  0.00     0.030 C 
BRANCH  18  21
HETATM   21  C   UNL     1       5.150   6.604  24.269  0.00  0.00     0.273 C 
BRANCH  21  22
HETATM   22  N   UNL     1       5.373   6.302  22.792  0.00  0.00    -0.063 N 
HETATM   23  C   UNL     1       6.054   7.466  22.082  0.00  0.00     0.261 C 
HETATM   24  C   UNL     1       6.315   7.117  20.613  0.00  0.00     0.195 C 
HETATM   25  O   UNL     1       7.101   5.928  20.504  0.00  0.00    -0.388 OA
HETATM   26  C   UNL     1       6.415   4.802  21.057  0.00  0.00     0.195 C 
HETATM   27  C   UNL     1       6.149   5.003  22.552  0.00  0.00     0.261 C 
HETATM   28  H   UNL     1       4.443   6.170  22.377  0.00  0.00     0.280 HD
ENDBRANCH  21  22
ENDBRANCH  18  21
ENDBRANCH  12  15
ENDBRANCH   1  11
BRANCH   2  29
HETATM   29  O   UNL     1      -2.024  10.984  27.291  0.00  0.00    -0.360 OA
HETATM   30  H   UNL     1      -2.580  10.224  27.531  0.00  0.00     0.217 HD
ENDBRANCH   2  29
BRANCH   7  31
HETATM   31  C   UNL     1      -3.265  13.249  21.007  0.00  0.00     0.100 C 
BRANCH  31  32
HETATM   32  C   UNL     1      -2.875  14.665  20.631  0.00  0.00    -0.052 A 
HETATM   33  C   UNL     1      -3.708  15.464  19.831  0.00  0.00     0.007 A 
HETATM   34  C   UNL     1      -3.349  16.773  19.508  0.00  0.00     0.001 A 
HETATM   35  C   UNL     1      -2.165  17.313  20.001  0.00  0.00     0.007 A 
HETATM   36  C   UNL     1      -1.332  16.553  20.830  0.00  0.00    -0.061 A 
HETATM   37  C   UNL     1      -1.699  15.236  21.148  0.00  0.00     0.014 A 
HETATM   38  C   UNL     1      -0.108  17.176  21.434  0.00  0.00     0.048 C 
ENDBRANCH  31  32
ENDBRANCH   7  31
TORSDOF 7
ENDMDL
MODEL 2
REMARK VINA RESULT:    -9.075      3.842      5.557
REMARK INTER + INTRA:         -13.845
REMARK INTER:                 -12.573
REMARK INTRA:                  -1.272
REMARK UNBOUND:                -1.322
REMARK  7 active torsions:
REMARK  status: ('A' for Active; 'I' for Inactive)
REMARK    1  A    between atoms: N_6  and  C_8 
REMARK    2  A    between atoms: C_8  and  C_9 
REMARK    3  A    between atoms: C_14  and  N_15 
REMARK       I    between atoms: N_15  and  C_17 
REMARK    4  A    between atoms: C_17  and  C_19 
REMARK    5  A    between atoms: C_20  and  O_22 
REMARK    6  A    between atoms: C_26  and  C_30 
REMARK    7  A    between atoms: C_30  and  C_31 
ROOT
HETATM    1  C   UNL     1      -2.843  13.463  21.643  0.00  0.00     0.066 A 
HETATM    2  C   UNL     1      -4.197  13.814  21.724  0.00  0.00     0.083 A 
HETATM    3  C   UNL     1      -4.676  15.022  21.202  0.00  0.00     0.069 A 
HETATM    4  C   UNL     1      -1.915  14.397  21.126  0.00  0.00     0.035 A 
HETATM    5  C   UNL     1      -2.375  15.628  20.607  0.00  0.00     0.020 A 
HETATM    6  C   UNL     1      -3.737  15.900  20.656  0.00  0.00     0.065 A 
HETATM    7  C   UNL     1      -1.797  16.776  19.984  0.00  0.00     0.071 A 
HETATM    8  N   UNL     1      -2.728  17.706  19.711  0.00  0.00    -0.178 NA
HETATM    9  N   UNL     1      -3.880  17.143  20.100  0.00  0.00    -0.277 N 
HETATM   10  H   UNL     1      -4.737  17.669  19.972  0.00  0.00     0.189 HD
ENDROOT
BRANCH   1  11
HETATM   11  C   UNL     1      -2.283  12.173  22.146  0.00  0.00     0.260 C 
HETATM   12  N   UNL     1      -1.368  12.151  23.222  0.00  0.00    -0.318 N 
HETATM   13  C   UNL     1      -1.073  13.274  24.118  0.00  0.00     0.159 C 
HETATM   14  O   UNL     1      -2.629  11.155  21.542  0.00  0.00    -0.267 OA
BRANCH  12  15
HETATM   15  C   UNL     1      -0.857  10.892  23.650  0.00  0.00     0.037 C 
HETATM   16  C   UNL     1       0.379  10.439  23.189  0.00  0.00     0.030 C 
HETATM   17  C   UNL     1       0.943   9.273  23.705  0.00  0.00     0.011 C 
HETATM   18  C   UNL     1       0.310   8.582  24.749  0.00  0.00    -0.032 C 
HETATM   19  C   UNL     1      -0.977   8.979  25.137  0.00  0.00     0.011 C 
HETATM   20  C   UNL     1      -1.571  10.116  24.571  0.00  0.00     0.030 C 
BRANCH  18  21
HETATM   21  C   UNL     1       1.076   7.540  25.525  0.00  0.00     0.273 C 
BRANCH  21  22
HETATM   22  N   UNL     1       0.700   7.526  27.003  0.00  0.00    -0.063 N 
HETATM   23  C   UNL     1       0.797   6.122  27.588  0.00  0.00     0.261 C 
HETATM   24  C   UNL     1       0.467   6.143  29.084  0.00  0.00     0.195 C 
HETATM   25  O   UNL     1       1.329   7.044  29.783  0.00  0.00    -0.388 OA
HETATM   26  C   UNL     1       1.155   8.387  29.325  0.00  0.00     0.195 C 
HETATM   27  C   UNL     1       1.517   8.512  27.843  0.00  0.00     0.261 C 
HETATM   28  H   UNL     1      -0.278   7.833  27.058  0.00  0.00     0.280 HD
ENDBRANCH  21  22
ENDBRANCH  18  21
ENDBRANCH  12  15
ENDBRANCH   1  11
BRANCH   2  29
HETATM   29  O   UNL     1      -5.146  13.045  22.345  0.00  0.00    -0.360 OA
HETATM   30  H   UNL     1      -6.009  13.484  22.261  0.00  0.00     0.217 HD
ENDBRANCH   2  29
BRANCH   7  31
HETATM   31  C   UNL     1      -0.361  17.050  19.657  0.00  0.00     0.100 C 
BRANCH  31  32
HETATM   32  C   UNL     1       0.473  16.622  20.849  0.00  0.00    -0.052 A 
HETATM   33  C   UNL     1       0.178  17.073  22.146  0.00  0.00     0.007 A 
HETATM   34  C   UNL     1       0.938  16.657  23.238  0.00  0.00     0.001 A 
HETATM   35  C   UNL     1       1.989  15.762  23.057  0.00  0.00     0.007 A 
HETATM   36  C   UNL     1       2.284  15.268  21.782  0.00  0.00    -0.061 A 
HETATM   37  C   UNL     1       1.516  15.694  20.686  0.00  0.00     0.014 A 
HETATM   38  C   UNL     1       3.355  14.231  21.611  0.00  0.00     0.048 C 
ENDBRANCH  31  32
ENDBRANCH   7  31
TORSDOF 7
ENDMDL
MODEL 3
REMARK VINA RESULT:    -8.945      2.880      4.610
REMARK INTER + INTRA:         -13.665
REMARK INTER:                 -12.412
REMARK INTRA:                  -1.254
REMARK UNBOUND:                -1.322
REMARK  7 active torsions:
REMARK  status: ('A' for Active; 'I' for Inactive)
REMARK    1  A    between atoms: N_6  and  C_8 
REMARK    2  A    between atoms: C_8  and  C_9 
REMARK    3  A    between atoms: C_14  and  N_15 
REMARK       I    between atoms: N_15  and  C_17 
REMARK    4  A    between atoms: C_17  and  C_19 
REMARK    5  A    between atoms: C_20  and  O_22 
REMARK    6  A    between atoms: C_26  and  C_30 
REMARK    7  A    between atoms: C_30  and  C_31 
ROOT
HETATM    1  C   UNL     1      -2.820  13.465  21.641  0.00  0.00     0.066 A 
HETATM    2  C   UNL     1      -4.176  13.812  21.703  0.00  0.00     0.083 A 
HETATM    3  C   UNL     1      -4.650  15.019  21.173  0.00  0.00     0.069 A 
HETATM    4  C   UNL     1      -1.887  14.401  21.136  0.00  0.00     0.035 A 
HETATM    5  C   UNL     1      -2.343  15.630  20.609  0.00  0.00     0.020 A 
HETATM    6  C   UNL     1      -3.706  15.898  20.638  0.00  0.00     0.065 A 
HETATM    7  C   UNL     1      -1.759  16.779  19.993  0.00  0.00     0.071 A 
HETATM    8  N   UNL     1      -2.688  17.705  19.705  0.00  0.00    -0.178 NA
HETATM    9  N   UNL     1      -3.845  17.140  20.079  0.00  0.00    -0.277 N 
HETATM   10  H   UNL     1      -4.701  17.663  19.938  0.00  0.00     0.189 HD
ENDROOT
BRANCH   1  11
HETATM   11  C   UNL     1      -2.264  12.177  22.154  0.00  0.00     0.260 C 
HETATM   12  N   UNL     1      -1.336  12.161  23.219  0.00  0.00    -0.318 N 
HETATM   13  C   UNL     1      -1.021  13.294  24.097  0.00  0.00     0.159 C 
HETATM   14  O   UNL     1      -2.624  11.154  21.567  0.00  0.00    -0.267 OA
BRANCH  12  15
HETATM   15  C   UNL     1      -0.830  10.905  23.657  0.00  0.00     0.037 C 
HETATM   16  C   UNL     1       0.329  10.374  23.089  0.00  0.00     0.030 C 
HETATM   17  C   UNL     1       0.902   9.211  23.604  0.00  0.00     0.011 C 
HETATM   18  C   UNL     1       0.363   8.602  24.747  0.00  0.00    -0.032 C 
HETATM   19  C   UNL     1      -0.857   9.076  25.251  0.00  0.00     0.011 C 
HETATM   20  C   UNL     1      -1.466  10.207  24.692  0.00  0.00     0.030 C 
BRANCH  18  21
HETATM   21  C   UNL     1       1.169   7.568  25.491  0.00  0.00     0.273 C 
BRANCH  21  22
HETATM   22  N   UNL     1       1.786   6.532  24.558  0.00  0.00    -0.063 N 
HETATM   23  C   UNL     1       2.946   5.804  25.224  0.00  0.00     0.261 C 
HETATM   24  C   UNL     1       3.514   4.733  24.286  0.00  0.00     0.195 C 
HETATM   25  O   UNL     1       2.496   3.810  23.892  0.00  0.00    -0.388 OA
HETATM   26  C   UNL     1       1.460   4.465  23.156  0.00  0.00     0.195 C 
HETATM   27  C   UNL     1       0.766   5.527  24.014  0.00  0.00     0.261 C 
HETATM   28  H   UNL     1       2.149   7.049  23.748  0.00  0.00     0.280 HD
ENDBRANCH  21  22
ENDBRANCH  18  21
ENDBRANCH  12  15
ENDBRANCH   1  11
BRANCH   2  29
HETATM   29  O   UNL     1      -5.131  13.042  22.311  0.00  0.00    -0.360 OA
HETATM   30  H   UNL     1      -5.863  12.898  21.688  0.00  0.00     0.217 HD
ENDBRANCH   2  29
BRANCH   7  31
HETATM   31  C   UNL     1      -0.319  17.056  19.685  0.00  0.00     0.100 C 
BRANCH  31  32
HETATM   32  C   UNL     1       0.501  16.608  20.879  0.00  0.00    -0.052 A 
HETATM   33  C   UNL     1       0.206  17.057  22.177  0.00  0.00     0.007 A 
HETATM   34  C   UNL     1       0.954  16.623  23.271  0.00  0.00     0.001 A 
HETATM   35  C   UNL     1       1.991  15.712  23.091  0.00  0.00     0.007 A 
HETATM   36  C   UNL     1       2.286  15.220  21.814  0.00  0.00    -0.061 A 
HETATM   37  C   UNL     1       1.530  15.664  20.717  0.00  0.00     0.014 A 
HETATM   38  C   UNL     1       3.340  14.167  21.644  0.00  0.00     0.048 C 
ENDBRANCH  31  32
ENDBRANCH   7  31
TORSDOF 7
ENDMDL
MODEL 4
REMARK VINA RESULT:    -8.769      4.631      6.368
REMARK INTER + INTRA:         -13.423
REMARK INTER:                 -12.116
REMARK INTRA:                  -1.307
REMARK UNBOUND:                -1.322
REMARK  7 active torsions:
REMARK  status: ('A' for Active; 'I' for Inactive)
REMARK    1  A    between atoms: N_6  and  C_8 
REMARK    2  A    between atoms: C_8  and  C_9 
REMARK    3  A    between atoms: C_14  and  N_15 
REMARK       I    between atoms: N_15  and  C_17 
REMARK    4  A    between atoms: C_17  and  C_19 
REMARK    5  A    between atoms: C_20  and  O_22 
REMARK    6  A    between atoms: C_26  and  C_30 
REMARK    7  A    between atoms: C_30  and  C_31 
ROOT
HETATM    1  C   UNL     1      -2.678  14.221  22.817  0.00  0.00     0.066 A 
HETATM    2  C   UNL     1      -3.839  14.183  22.033  0.00  0.00     0.083 A 
HETATM    3  C   UNL     1      -3.984  14.989  20.897  0.00  0.00     0.069 A 
HETATM    4  C   UNL     1      -1.675  15.175  22.527  0.00  0.00     0.035 A 
HETATM    5  C   UNL     1      -1.809  16.007  21.394  0.00  0.00     0.020 A 
HETATM    6  C   UNL     1      -2.952  15.886  20.613  0.00  0.00     0.065 A 
HETATM    7  C   UNL     1      -1.038  17.026  20.754  0.00  0.00     0.071 A 
HETATM    8  N   UNL     1      -1.679  17.526  19.684  0.00  0.00    -0.178 NA
HETATM    9  N   UNL     1      -2.808  16.808  19.611  0.00  0.00    -0.277 N 
HETATM   10  H   UNL     1      -3.453  17.006  18.855  0.00  0.00     0.189 HD
ENDROOT
BRANCH   1  11
HETATM   11  C   UNL     1      -2.452  13.357  24.016  0.00  0.00     0.260 C 
HETATM   12  N   UNL     1      -2.268  11.963  23.879  0.00  0.00    -0.318 N 
HETATM   13  C   UNL     1      -2.008  11.253  22.622  0.00  0.00     0.159 C 
HETATM   14  O   UNL     1      -2.485  13.922  25.111  0.00  0.00    -0.267 OA
BRANCH  12  15
HETATM   15  C   UNL     1      -2.070  11.188  25.057  0.00  0.00     0.037 C 
HETATM   16  C   UNL     1      -0.820  10.637  25.338  0.00  0.00     0.030 C 
HETATM   17  C   UNL     1      -0.586   9.992  26.552  0.00  0.00     0.011 C 
HETATM   18  C   UNL     1      -1.583   9.954  27.538  0.00  0.00    -0.032 C 
HETATM   19  C   UNL     1      -2.867  10.414  27.214  0.00  0.00     0.011 C 
HETATM   20  C   UNL     1      -3.118  11.006  25.969  0.00  0.00     0.030 C 
BRANCH  18  21
HETATM   21  C   UNL     1      -1.221   9.569  28.949  0.00  0.00     0.273 C 
BRANCH  21  22
HETATM   22  N   UNL     1      -0.018   8.635  29.006  0.00  0.00    -0.063 N 
HETATM   23  C   UNL     1       0.858   8.928  30.217  0.00  0.00     0.261 C 
HETATM   24  C   UNL     1       2.030   7.942  30.280  0.00  0.00     0.195 C 
HETATM   25  O   UNL     1       1.559   6.593  30.310  0.00  0.00    -0.388 OA
HETATM   26  C   UNL     1       0.839   6.270  29.118  0.00  0.00     0.195 C 
HETATM   27  C   UNL     1      -0.403   7.152  28.970  0.00  0.00     0.261 C 
HETATM   28  H   UNL     1       0.532   8.815  28.157  0.00  0.00     0.280 HD
ENDBRANCH  21  22
ENDBRANCH  18  21
ENDBRANCH  12  15
ENDBRANCH   1  11
BRANCH   2  29
HETATM   29  O   UNL     1      -4.929  13.405  22.324  0.00  0.00    -0.360 OA
HETATM   30  H   UNL     1      -4.758  12.921  23.149  0.00  0.00     0.217 HD
ENDBRANCH   2  29
BRANCH   7  31
HETATM   31  C   UNL     1       0.300  17.580  21.139  0.00  0.00     0.100 C 
BRANCH  31  32
HETATM   32  C   UNL     1       1.281  16.425  21.184  0.00  0.00    -0.052 A 
HETATM   33  C   UNL     1       1.761  15.828  20.006  0.00  0.00     0.007 A 
HETATM   34  C   UNL     1       2.679  14.780  20.058  0.00  0.00     0.001 A 
HETATM   35  C   UNL     1       3.154  14.328  21.286  0.00  0.00     0.007 A 
HETATM   36  C   UNL     1       2.722  14.927  22.475  0.00  0.00    -0.061 A 
HETATM   37  C   UNL     1       1.795  15.980  22.414  0.00  0.00     0.014 A 
HETATM   38  C   UNL     1       3.313  14.499  23.785  0.00  0.00     0.048 C 
ENDBRANCH  31  32
ENDBRANCH   7  31
TORSDOF 7
ENDMDL
MODEL 5
REMARK VINA RESULT:    -8.762      3.853      5.953
REMARK INTER + INTRA:         -13.414
REMARK INTER:                 -11.973
REMARK INTRA:                  -1.441
REMARK UNBOUND:                -1.322
REMARK  7 active torsions:
REMARK  status: ('A' for Active; 'I' for Inactive)
REMARK    1  A    between atoms: N_6  and  C_8 
REMARK    2  A    between atoms: C_8  and  C_9 
REMARK    3  A    between atoms: C_14  and  N_15 
REMARK       I    between atoms: N_15  and  C_17 
REMARK    4  A    between atoms: C_17  and  C_19 
REMARK    5  A    between atoms: C_20  and  O_22 
REMARK    6  A    between atoms: C_26  and  C_30 
REMARK    7  A    between atoms: C_30  and  C_31 
ROOT
HETATM    1  C   UNL     1      -1.174  12.546  22.057  0.00  0.00     0.066 A 
HETATM    2  C   UNL     1      -2.332  12.362  21.291  0.00  0.00     0.083 A 
HETATM    3  C   UNL     1      -2.919  13.418  20.583  0.00  0.00     0.069 A 
HETATM    4  C   UNL     1      -0.646  13.848  22.216  0.00  0.00     0.035 A 
HETATM    5  C   UNL     1      -1.232  14.930  21.521  0.00  0.00     0.020 A 
HETATM    6  C   UNL     1      -2.343  14.682  20.724  0.00  0.00     0.065 A 
HETATM    7  C   UNL     1      -0.989  16.331  21.381  0.00  0.00     0.071 A 
HETATM    8  N   UNL     1      -1.908  16.911  20.592  0.00  0.00    -0.178 NA
HETATM    9  N   UNL     1      -2.689  15.897  20.195  0.00  0.00    -0.277 N 
HETATM   10  H   UNL     1      -3.458  16.102  19.567  0.00  0.00     0.189 HD
ENDROOT
BRANCH   1  11
HETATM   11  C   UNL     1      -0.483  11.449  22.801  0.00  0.00     0.260 C 
HETATM   12  N   UNL     1      -0.747  11.224  24.170  0.00  0.00    -0.318 N 
HETATM   13  C   UNL     1      -1.859  11.802  24.933  0.00  0.00     0.159 C 
HETATM   14  O   UNL     1       0.351  10.800  22.166  0.00  0.00    -0.267 OA
BRANCH  12  15
HETATM   15  C   UNL     1      -0.049  10.173  24.830  0.00  0.00     0.037 C 
HETATM   16  C   UNL     1       1.246  10.378  25.308  0.00  0.00     0.030 C 
HETATM   17  C   UNL     1       1.883   9.399  26.069  0.00  0.00     0.011 C 
HETATM   18  C   UNL     1       1.202   8.226  26.429  0.00  0.00    -0.032 C 
HETATM   19  C   UNL     1      -0.057   7.978  25.862  0.00  0.00     0.011 C 
HETATM   20  C   UNL     1      -0.670   8.936  25.044  0.00  0.00     0.030 C 
BRANCH  18  21
HETATM   21  C   UNL     1       1.758   7.345  27.518  0.00  0.00     0.273 C 
BRANCH  21  22
HETATM   22  N   UNL     1       1.225   7.719  28.896  0.00  0.00    -0.063 N 
HETATM   23  C   UNL     1       0.357   6.610  29.477  0.00  0.00     0.261 C 
HETATM   24  C   UNL     1      -0.123   6.987  30.883  0.00  0.00     0.195 C 
HETATM   25  O   UNL     1       0.986   7.266  31.741  0.00  0.00    -0.388 OA
HETATM   26  C   UNL     1       1.737   8.387  31.269  0.00  0.00     0.195 C 
HETATM   27  C   UNL     1       2.328   8.108  29.885  0.00  0.00     0.261 C 
HETATM   28  H   UNL     1       0.640   8.553  28.766  0.00  0.00     0.280 HD
ENDBRANCH  21  22
ENDBRANCH  18  21
ENDBRANCH  12  15
ENDBRANCH   1  11
BRANCH   2  29
HETATM   29  O   UNL     1      -3.005  11.172  21.202  0.00  0.00    -0.360 OA
HETATM   30  H   UNL     1      -2.361  10.445  21.223  0.00  0.00     0.217 HD
ENDBRANCH   2  29
BRANCH   7  31
HETATM   31  C   UNL     1       0.087  17.170  22.002  0.00  0.00     0.100 C 
BRANCH  31  32
HETATM   32  C   UNL     1       1.423  16.622  21.538  0.00  0.00    -0.052 A 
HETATM   33  C   UNL     1       1.916  16.893  20.252  0.00  0.00     0.007 A 
HETATM   34  C   UNL     1       3.155  16.402  19.843  0.00  0.00     0.001 A 
HETATM   35  C   UNL     1       3.935  15.655  20.721  0.00  0.00     0.007 A 
HETATM   36  C   UNL     1       3.485  15.398  22.021  0.00  0.00    -0.061 A 
HETATM   37  C   UNL     1       2.235  15.894  22.425  0.00  0.00     0.014 A 
HETATM   38  C   UNL     1       4.374  14.676  22.991  0.00  0.00     0.048 C 
ENDBRANCH  31  32
ENDBRANCH   7  31
TORSDOF 7
ENDMDL
MODEL 6
REMARK VINA RESULT:    -8.679      2.557      4.132
REMARK INTER + INTRA:         -13.298
REMARK INTER:                 -11.781
REMARK INTRA:                  -1.517
REMARK UNBOUND:                -1.322
REMARK  7 active torsions:
REMARK  status: ('A' for Active; 'I' for Inactive)
REMARK    1  A    between atoms: N_6  and  C_8 
REMARK    2  A    between atoms: C_8  and  C_9 
REMARK    3  A    between atoms: C_14  and  N_15 
REMARK       I    between atoms: N_15  and  C_17 
REMARK    4  A    between atoms: C_17  and  C_19 
REMARK    5  A    between atoms: C_20  and  O_22 
REMARK    6  A    between atoms: C_26  and  C_30 
REMARK    7  A    between atoms: C_30  and  C_31 
ROOT
HETATM    1  C   UNL     1      -1.132  12.674  21.951  0.00  0.00     0.066 A 
HETATM    2  C   UNL     1      -2.322  12.518  21.227  0.00  0.00     0.083 A 
HETATM    3  C   UNL     1      -2.925  13.594  20.564  0.00  0.00     0.069 A 
HETATM    4  C   UNL     1      -0.584  13.968  22.113  0.00  0.00     0.035 A 
HETATM    5  C   UNL     1      -1.184  15.069  21.464  0.00  0.00     0.020 A 
HETATM    6  C   UNL     1      -2.329  14.849  20.707  0.00  0.00     0.065 A 
HETATM    7  C   UNL     1      -0.931  16.470  21.341  0.00  0.00     0.071 A 
HETATM    8  N   UNL     1      -1.874  17.075  20.601  0.00  0.00    -0.178 NA
HETATM    9  N   UNL     1      -2.682  16.077  20.215  0.00  0.00    -0.277 N 
HETATM   10  H   UNL     1      -3.472  16.303  19.622  0.00  0.00     0.189 HD
ENDROOT
BRANCH   1  11
HETATM   11  C   UNL     1      -0.425  11.556  22.645  0.00  0.00     0.260 C 
HETATM   12  N   UNL     1      -0.656  11.292  24.014  0.00  0.00    -0.318 N 
HETATM   13  C   UNL     1      -1.746  11.849  24.821  0.00  0.00     0.159 C 
HETATM   14  O   UNL     1       0.391  10.924  21.971  0.00  0.00    -0.267 OA
BRANCH  12  15
HETATM   15  C   UNL     1       0.057  10.222  24.625  0.00  0.00     0.037 C 
HETATM   16  C   UNL     1      -0.460   8.926  24.604  0.00  0.00     0.030 C 
HETATM   17  C   UNL     1       0.292   7.855  25.083  0.00  0.00     0.011 C 
HETATM   18  C   UNL     1       1.610   8.055  25.523  0.00  0.00    -0.032 C 
HETATM   19  C   UNL     1       2.088   9.367  25.641  0.00  0.00     0.011 C 
HETATM   20  C   UNL     1       1.305  10.450  25.219  0.00  0.00     0.030 C 
BRANCH  18  21
HETATM   21  C   UNL     1       2.521   6.869  25.710  0.00  0.00     0.273 C 
BRANCH  21  22
HETATM   22  N   UNL     1       3.509   6.710  24.561  0.00  0.00    -0.063 N 
HETATM   23  C   UNL     1       4.946   6.660  25.065  0.00  0.00     0.261 C 
HETATM   24  C   UNL     1       5.916   6.447  23.897  0.00  0.00     0.195 C 
HETATM   25  O   UNL     1       5.590   5.256  23.177  0.00  0.00    -0.388 OA
HETATM   26  C   UNL     1       4.288   5.344  22.593  0.00  0.00     0.195 C 
HETATM   27  C   UNL     1       3.213   5.498  23.672  0.00  0.00     0.261 C 
HETATM   28  H   UNL     1       3.403   7.542  23.967  0.00  0.00     0.280 HD
ENDBRANCH  21  22
ENDBRANCH  18  21
ENDBRANCH  12  15
ENDBRANCH   1  11
BRANCH   2  29
HETATM   29  O   UNL     1      -3.012  11.337  21.142  0.00  0.00    -0.360 OA
HETATM   30  H   UNL     1      -3.931  11.490  21.418  0.00  0.00     0.217 HD
ENDBRANCH   2  29
BRANCH   7  31
HETATM   31  C   UNL     1       0.178  17.284  21.935  0.00  0.00     0.100 C 
BRANCH  31  32
HETATM   32  C   UNL     1       1.490  16.689  21.465  0.00  0.00    -0.052 A 
HETATM   33  C   UNL     1       1.940  16.864  20.146  0.00  0.00     0.007 A 
HETATM   34  C   UNL     1       3.159  16.329  19.729  0.00  0.00     0.001 A 
HETATM   35  C   UNL     1       3.960  15.633  20.629  0.00  0.00     0.007 A 
HETATM   36  C   UNL     1       3.555  15.473  21.959  0.00  0.00    -0.061 A 
HETATM   37  C   UNL     1       2.325  16.012  22.371  0.00  0.00     0.014 A 
HETATM   38  C   UNL     1       4.469  14.807  22.945  0.00  0.00     0.048 C 
ENDBRANCH  31  32
ENDBRANCH   7  31
TORSDOF 7
ENDMDL
MODEL 7
REMARK VINA RESULT:    -8.665      3.855      5.658
REMARK INTER + INTRA:         -13.279
REMARK INTER:                 -11.948
REMARK INTRA:                  -1.330
REMARK UNBOUND:                -1.322
REMARK  7 active torsions:
REMARK  status: ('A' for Active; 'I' for Inactive)
REMARK    1  A    between atoms: N_6  and  C_8 
REMARK    2  A    between atoms: C_8  and  C_9 
REMARK    3  A    between atoms: C_14  and  N_15 
REMARK       I    between atoms: N_15  and  C_17 
REMARK    4  A    between atoms: C_17  and  C_19 
REMARK    5  A    between atoms: C_20  and  O_22 
REMARK    6  A    between atoms: C_26  and  C_30 
REMARK    7  A    between atoms: C_30  and  C_31 
ROOT
HETATM    1  C   UNL     1      -2.355  14.307  22.897  0.00  0.00     0.066 A 
HETATM    2  C   UNL     1      -3.601  14.309  22.256  0.00  0.00     0.083 A 
HETATM    3  C   UNL     1      -3.861  15.140  21.159  0.00  0.00     0.069 A 
HETATM    4  C   UNL     1      -1.372  15.245  22.504  0.00  0.00     0.035 A 
HETATM    5  C   UNL     1      -1.619  16.102  21.409  0.00  0.00     0.020 A 
HETATM    6  C   UNL     1      -2.850  16.020  20.768  0.00  0.00     0.065 A 
HETATM    7  C   UNL     1      -0.906  17.115  20.698  0.00  0.00     0.071 A 
HETATM    8  N   UNL     1      -1.658  17.650  19.722  0.00  0.00    -0.178 NA
HETATM    9  N   UNL     1      -2.804  16.957  19.772  0.00  0.00    -0.277 N 
HETATM   10  H   UNL     1      -3.530  17.184  19.101  0.00  0.00     0.189 HD
ENDROOT
BRANCH   1  11
HETATM   11  C   UNL     1      -2.008  13.416  24.045  0.00  0.00     0.260 C 
HETATM   12  N   UNL     1      -1.763  12.039  23.845  0.00  0.00    -0.318 N 
HETATM   13  C   UNL     1      -1.549  11.387  22.548  0.00  0.00     0.159 C 
HETATM   14  O   UNL     1      -1.999  13.941  25.161  0.00  0.00    -0.267 OA
BRANCH  12  15
HETATM   15  C   UNL     1      -1.450  11.236  24.978  0.00  0.00     0.037 C 
HETATM   16  C   UNL     1      -2.464  10.780  25.822  0.00  0.00     0.030 C 
HETATM   17  C   UNL     1      -2.179   9.887  26.854  0.00  0.00     0.011 C 
HETATM   18  C   UNL     1      -0.882   9.375  27.010  0.00  0.00    -0.032 C 
HETATM   19  C   UNL     1       0.152   9.912  26.230  0.00  0.00     0.011 C 
HETATM   20  C   UNL     1      -0.126  10.859  25.235  0.00  0.00     0.030 C 
BRANCH  18  21
HETATM   21  C   UNL     1      -0.656   8.171  27.889  0.00  0.00     0.273 C 
BRANCH  21  22
HETATM   22  N   UNL     1       0.299   7.165  27.259  0.00  0.00    -0.063 N 
HETATM   23  C   UNL     1       0.925   6.258  28.311  0.00  0.00     0.261 C 
HETATM   24  C   UNL     1       1.840   5.222  27.648  0.00  0.00     0.195 C 
HETATM   25  O   UNL     1       1.120   4.453  26.681  0.00  0.00    -0.388 OA
HETATM   26  C   UNL     1       0.634   5.281  25.622  0.00  0.00     0.195 C 
HETATM   27  C   UNL     1      -0.349   6.328  26.151  0.00  0.00     0.261 C 
HETATM   28  H   UNL     1       1.047   7.711  26.815  0.00  0.00     0.280 HD
ENDBRANCH  21  22
ENDBRANCH  18  21
ENDBRANCH  12  15
ENDBRANCH   1  11
BRANCH   2  29
HETATM   29  O   UNL     1      -4.666  13.549  22.662  0.00  0.00    -0.360 OA
HETATM   30  H   UNL     1      -5.489  14.009  22.423  0.00  0.00     0.217 HD
ENDBRANCH   2  29
BRANCH   7  31
HETATM   31  C   UNL     1       0.481  17.633  20.931  0.00  0.00     0.100 C 
BRANCH  31  32
HETATM   32  C   UNL     1       1.411  16.439  21.008  0.00  0.00    -0.052 A 
HETATM   33  C   UNL     1       1.831  15.765  19.850  0.00  0.00     0.007 A 
HETATM   34  C   UNL     1       2.704  14.680  19.931  0.00  0.00     0.001 A 
HETATM   35  C   UNL     1       3.193  14.268  21.167  0.00  0.00     0.007 A 
HETATM   36  C   UNL     1       2.820  14.942  22.335  0.00  0.00    -0.061 A 
HETATM   37  C   UNL     1       1.939  16.032  22.246  0.00  0.00     0.014 A 
HETATM   38  C   UNL     1       3.427  14.553  23.651  0.00  0.00     0.048 C 
ENDBRANCH  31  32
ENDBRANCH   7  31
TORSDOF 7
ENDMDL
MODEL 8
REMARK VINA RESULT:    -8.651      0.931      1.316
REMARK INTER + INTRA:         -13.260
REMARK INTER:                 -12.241
REMARK INTRA:                  -1.018
REMARK UNBOUND:                -1.322
REMARK  7 active torsions:
REMARK  status: ('A' for Active; 'I' for Inactive)
REMARK    1  A    between atoms: N_6  and  C_8 
REMARK    2  A    between atoms: C_8  and  C_9 
REMARK    3  A    between atoms: C_14  and  N_15 
REMARK       I    between atoms: N_15  and  C_17 
REMARK    4  A    between atoms: C_17  and  C_19 
REMARK    5  A    between atoms: C_20  and  O_22 
REMARK    6  A    between atoms: C_26  and  C_30 
REMARK    7  A    between atoms: C_30  and  C_31 
ROOT
HETATM    1  C   UNL     1      -1.666  11.021  24.905  0.00  0.00     0.066 A 
HETATM    2  C   UNL     1      -2.355  11.487  26.032  0.00  0.00     0.083 A 
HETATM    3  C   UNL     1      -3.402  12.411  25.923  0.00  0.00     0.069 A 
HETATM    4  C   UNL     1      -1.952  11.578  23.637  0.00  0.00     0.035 A 
HETATM    5  C   UNL     1      -2.995  12.523  23.507  0.00  0.00     0.020 A 
HETATM    6  C   UNL     1      -3.689  12.905  24.649  0.00  0.00     0.065 A 
HETATM    7  C   UNL     1      -3.604  13.261  22.447  0.00  0.00     0.071 A 
HETATM    8  N   UNL     1      -4.571  14.072  22.907  0.00  0.00    -0.178 NA
HETATM    9  N   UNL     1      -4.616  13.818  24.222  0.00  0.00    -0.277 N 
HETATM   10  H   UNL     1      -5.298  14.315  24.783  0.00  0.00     0.189 HD
ENDROOT
BRANCH   1  11
HETATM   11  C   UNL     1      -0.569  10.007  24.958  0.00  0.00     0.260 C 
HETATM   12  N   UNL     1       0.757  10.356  24.615  0.00  0.00    -0.318 N 
HETATM   13  C   UNL     1       1.265  11.721  24.444  0.00  0.00     0.159 C 
HETATM   14  O   UNL     1      -0.899   8.860  25.267  0.00  0.00    -0.267 OA
BRANCH  12  15
HETATM   15  C   UNL     1       1.758   9.346  24.671  0.00  0.00     0.037 C 
HETATM   16  C   UNL     1       2.676   9.319  25.721  0.00  0.00     0.030 C 
HETATM   17  C   UNL     1       3.572   8.259  25.853  0.00  0.00     0.011 C 
HETATM   18  C   UNL     1       3.511   7.167  24.973  0.00  0.00    -0.032 C 
HETATM   19  C   UNL     1       2.662   7.245  23.861  0.00  0.00     0.011 C 
HETATM   20  C   UNL     1       1.806   8.342  23.695  0.00  0.00     0.030 C 
BRANCH  18  21
HETATM   21  C   UNL     1       4.234   5.890  25.320  0.00  0.00     0.273 C 
BRANCH  21  22
HETATM   22  N   UNL     1       5.059   5.357  24.155  0.00  0.00    -0.063 N 
HETATM   23  C   UNL     1       6.208   6.296  23.811  0.00  0.00     0.261 C 
HETATM   24  C   UNL     1       7.054   5.713  22.673  0.00  0.00     0.195 C 
HETATM   25  O   UNL     1       7.546   4.416  23.019  0.00  0.00    -0.388 OA
HETATM   26  C   UNL     1       6.474   3.493  23.223  0.00  0.00     0.195 C 
HETATM   27  C   UNL     1       5.583   3.935  24.387  0.00  0.00     0.261 C 
HETATM   28  H   UNL     1       4.427   5.308  23.347  0.00  0.00     0.280 HD
ENDBRANCH  21  22
ENDBRANCH  18  21
ENDBRANCH  12  15
ENDBRANCH   1  11
BRANCH   2  29
HETATM   29  O   UNL     1      -2.047  11.124  27.317  0.00  0.00    -0.360 OA
HETATM   30  H   UNL     1      -1.898  11.927  27.843  0.00  0.00     0.217 HD
ENDBRANCH   2  29
BRANCH   7  31
HETATM   31  C   UNL     1      -3.279  13.254  20.983  0.00  0.00     0.100 C 
BRANCH  31  32
HETATM   32  C   UNL     1      -2.868  14.661  20.597  0.00  0.00    -0.052 A 
HETATM   33  C   UNL     1      -3.676  15.457  19.769  0.00  0.00     0.007 A 
HETATM   34  C   UNL     1      -3.298  16.757  19.436  0.00  0.00     0.001 A 
HETATM   35  C   UNL     1      -2.120  17.294  19.946  0.00  0.00     0.007 A 
HETATM   36  C   UNL     1      -1.311  16.537  20.802  0.00  0.00    -0.061 A 
HETATM   37  C   UNL     1      -1.697  15.228  21.131  0.00  0.00     0.014 A 
HETATM   38  C   UNL     1      -0.094  17.157  21.423  0.00  0.00     0.048 C 
ENDBRANCH  31  32
ENDBRANCH   7  31
TORSDOF 7
ENDMDL
MODEL 9
REMARK VINA RESULT:    -8.218      3.511      4.890
REMARK INTER + INTRA:         -12.662
REMARK INTER:                 -11.340
REMARK INTRA:                  -1.322
REMARK UNBOUND:                -1.322
REMARK  7 active torsions:
REMARK  status: ('A' for Active; 'I' for Inactive)
REMARK    1  A    between atoms: N_6  and  C_8 
REMARK    2  A    between atoms: C_8  and  C_9 
REMARK    3  A    between atoms: C_14  and  N_15 
REMARK       I    between atoms: N_15  and  C_17 
REMARK    4  A    between atoms: C_17  and  C_19 
REMARK    5  A    between atoms: C_20  and  O_22 
REMARK    6  A    between atoms: C_26  and  C_30 
REMARK    7  A    between atoms: C_30  and  C_31 
ROOT
HETATM    1  C   UNL     1      -1.855  13.041  23.557  0.00  0.00     0.066 A 
HETATM    2  C   UNL     1      -2.980  12.746  22.776  0.00  0.00     0.083 A 
HETATM    3  C   UNL     1      -3.383  13.578  21.724  0.00  0.00     0.069 A 
HETATM    4  C   UNL     1      -1.172  14.264  23.356  0.00  0.00     0.035 A 
HETATM    5  C   UNL     1      -1.571  15.124  22.309  0.00  0.00     0.020 A 
HETATM    6  C   UNL     1      -2.657  14.754  21.524  0.00  0.00     0.065 A 
HETATM    7  C   UNL     1      -1.140  16.374  21.768  0.00  0.00     0.071 A 
HETATM    8  N   UNL     1      -1.929  16.767  20.754  0.00  0.00    -0.178 NA
HETATM    9  N   UNL     1      -2.811  15.767  20.616  0.00  0.00    -0.277 N 
HETATM   10  H   UNL     1      -3.508  15.841  19.884  0.00  0.00     0.189 HD
ENDROOT
BRANCH   1  11
HETATM   11  C   UNL     1      -1.357  12.171  24.665  0.00  0.00     0.260 C 
HETATM   12  N   UNL     1      -0.726  10.937  24.390  0.00  0.00    -0.318 N 
HETATM   13  C   UNL     1      -0.251  10.493  23.075  0.00  0.00     0.159 C 
HETATM   14  O   UNL     1      -1.571  12.571  25.811  0.00  0.00    -0.267 OA
BRANCH  12  15
HETATM   15  C   UNL     1      -0.284  10.144  25.486  0.00  0.00     0.037 C 
HETATM   16  C   UNL     1      -1.208   9.501  26.310  0.00  0.00     0.030 C 
HETATM   17  C   UNL     1      -0.780   8.619  27.302  0.00  0.00     0.011 C 
HETATM   18  C   UNL     1       0.582   8.309  27.434  0.00  0.00    -0.032 C 
HETATM   19  C   UNL     1       1.514   9.033  26.678  0.00  0.00     0.011 C 
HETATM   20  C   UNL     1       1.085   9.967  25.725  0.00  0.00     0.030 C 
BRANCH  18  21
HETATM   21  C   UNL     1       0.998   7.117  28.259  0.00  0.00     0.273 C 
BRANCH  21  22
HETATM   22  N   UNL     1       1.769   6.087  27.442  0.00  0.00    -0.063 N 
HETATM   23  C   UNL     1       2.357   4.999  28.331  0.00  0.00     0.261 C 
HETATM   24  C   UNL     1       3.081   3.948  27.482  0.00  0.00     0.195 C 
HETATM   25  O   UNL     1       2.199   3.385  26.508  0.00  0.00    -0.388 OA
HETATM   26  C   UNL     1       1.738   4.380  25.591  0.00  0.00     0.195 C 
HETATM   27  C   UNL     1       0.937   5.465  26.315  0.00  0.00     0.261 C 
HETATM   28  H   UNL     1       2.542   6.591  26.992  0.00  0.00     0.280 HD
ENDBRANCH  21  22
ENDBRANCH  18  21
ENDBRANCH  12  15
ENDBRANCH   1  11
BRANCH   2  29
HETATM   29  O   UNL     1      -3.796  11.667  22.994  0.00  0.00    -0.360 OA
HETATM   30  H   UNL     1      -4.295  11.812  23.815  0.00  0.00     0.217 HD
ENDBRANCH   2  29
BRANCH   7  31
HETATM   31  C   UNL     1      -0.003  17.249  22.201  0.00  0.00     0.100 C 
BRANCH  31  32
HETATM   32  C   UNL     1       1.280  16.619  21.696  0.00  0.00    -0.052 A 
HETATM   33  C   UNL     1       1.741  16.847  20.390  0.00  0.00     0.007 A 
HETATM   34  C   UNL     1       2.934  16.279  19.942  0.00  0.00     0.001 A 
HETATM   35  C   UNL     1       3.699  15.496  20.800  0.00  0.00     0.007 A 
HETATM   36  C   UNL     1       3.284  15.279  22.119  0.00  0.00    -0.061 A 
HETATM   37  C   UNL     1       2.081  15.852  22.562  0.00  0.00     0.014 A 
HETATM   38  C   UNL     1       4.163  14.515  23.064  0.00  0.00     0.048 C 
ENDBRANCH  31  32
ENDBRANCH   7  31
TORSDOF 7
ENDMDL
