MODEL 1
REMARK VINA RESULT:    -5.983      0.000      0.000
REMARK INTER + INTRA:          -8.705
REMARK INTER:                  -7.694
REMARK INTRA:                  -1.011
REMARK UNBOUND:                -0.973
REMARK  5 active torsions:
REMARK  status: ('A' for Active; 'I' for Inactive)
REMARK    1  A    between atoms: N8_1  and  C24_2 
REMARK    2  A    between atoms: N8_1  and  C7_8 
REMARK    3  A    between atoms: C2_13  and  N1_14 
REMARK    4  A    between atoms: N1_14  and  C17_15 
REMARK    5  A    between atoms: C14_16  and  C13_19 
ROOT
ATOM      1  C17 FTA A   1       2.626  14.221  11.262  1.00  0.00     0.142 C 
ATOM      2  C14 FTA A   1       3.627  13.320  11.215  1.00  0.00     0.158 C 
ATOM      3  C18 FTA A   1       3.506  12.139  10.388  1.00  0.00     0.069 C 
ATOM      4  N21 FTA A   1       3.246  11.208   9.724  1.00  0.00    -0.197 NA
ENDROOT
BRANCH   2   5
ATOM      5  C13 FTA A   1       4.857  13.558  12.005  1.00  0.00     0.197 A 
ATOM      6  N15 FTA A   1       5.774  12.590  12.410  1.00  0.00    -0.093 NA
ATOM      7  N19 FTA A   1       6.750  13.229  13.164  1.00  0.00    -0.231 N 
ATOM      8  N20 FTA A   1       6.454  14.582  13.239  1.00  0.00    -0.017 NA
ATOM      9  H15 FTA A   1       7.564  12.770  13.599  1.00  0.00     0.200 HD
ATOM     10  N16 FTA A   1       5.287  14.790  12.512  1.00  0.00    -0.090 NA
ENDBRANCH   2   5
BRANCH   1  11
ATOM     11  N1  FTA A   1       2.134  14.587  12.461  1.00  0.00    -0.389 N 
ATOM     12  H11 FTA A   1       2.805  14.714  13.232  1.00  0.00     0.159 HD
BRANCH  11  13
ATOM     13  C2  FTA A   1       0.759  14.812  12.743  1.00  0.00     0.028 A 
ATOM     14  C4  FTA A   1       0.095  14.148  13.772  1.00  0.00     0.031 A 
ATOM     15  C6  FTA A   1      -1.301  14.239  13.851  1.00  0.00     0.031 A 
ATOM     16  C7  FTA A   1      -2.048  14.971  12.931  1.00  0.00     0.032 A 
ATOM     17  C5  FTA A   1      -1.372  15.645  11.930  1.00  0.00     0.031 A 
ATOM     18  C3  FTA A   1       0.011  15.557  11.827  1.00  0.00     0.031 A 
BRANCH  16  19
ATOM     19  N8  FTA A   1      -3.463  14.908  12.866  1.00  0.00    -0.356 N 
ATOM     20  H1  FTA A   1      -3.976  15.802  12.846  1.00  0.00     0.166 HD
BRANCH  19  21
ATOM     21  C24 FTA A   1      -4.236  13.708  12.824  1.00  0.00     0.032 A 
ATOM     22  C26 FTA A   1      -4.310  12.937  11.688  1.00  0.00     0.029 A 
ATOM     23  C28 FTA A   1      -5.208  11.887  11.657  1.00  0.00     0.002 A 
ATOM     24  C30 FTA A   1      -6.011  11.565  12.738  1.00  0.00     0.000 A 
ATOM     25  C29 FTA A   1      -5.920  12.302  13.889  1.00  0.00     0.002 A 
ATOM     26  C27 FTA A   1      -5.014  13.368  13.921  1.00  0.00     0.029 A 
ENDBRANCH  19  21
ENDBRANCH  16  19
ENDBRANCH  11  13
ENDBRANCH   1  11
TORSDOF 5
ENDMDL
MODEL 2
REMARK VINA RESULT:    -5.853      4.028      9.803
REMARK INTER + INTRA:          -8.537
REMARK INTER:                  -7.569
REMARK INTRA:                  -0.968
REMARK UNBOUND:                -0.973
REMARK  5 active torsions:
REMARK  status: ('A' for Active; 'I' for Inactive)
REMARK    1  A    between atoms: N8_1  and  C24_2 
REMARK    2  A    between atoms: N8_1  and  C7_8 
REMARK    3  A    between atoms: C2_13  and  N1_14 
REMARK    4  A    between atoms: N1_14  and  C17_15 
REMARK    5  A    between atoms: C14_16  and  C13_19 
ROOT
ATOM      1  C17 FTA A   1       2.565  15.398  12.010  1.00  0.00     0.142 C 
ATOM      2  C14 FTA A   1       2.179  15.717  13.261  1.00  0.00     0.158 C 
ATOM      3  C18 FTA A   1       2.883  16.743  14.001  1.00  0.00     0.069 C 
ATOM      4  N21 FTA A   1       3.577  17.546  14.497  1.00  0.00    -0.197 NA
ENDROOT
BRANCH   2   5
ATOM      5  C13 FTA A   1       1.020  15.021  13.865  1.00  0.00     0.197 A 
ATOM      6  N15 FTA A   1       0.794  14.828  15.226  1.00  0.00    -0.093 NA
ATOM      7  N19 FTA A   1      -0.376  14.092  15.356  1.00  0.00    -0.231 N 
ATOM      8  N20 FTA A   1      -0.885  13.821  14.094  1.00  0.00    -0.017 NA
ATOM      9  H15 FTA A   1      -0.800  13.795  16.247  1.00  0.00     0.200 HD
ATOM     10  N16 FTA A   1      -0.027  14.405  13.169  1.00  0.00    -0.090 NA
ENDBRANCH   2   5
BRANCH   1  11
ATOM     11  N1  FTA A   1       2.817  14.108  11.715  1.00  0.00    -0.389 N 
ATOM     12  H11 FTA A   1       2.008  13.483  11.585  1.00  0.00     0.159 HD
BRANCH  11  13
ATOM     13  C2  FTA A   1       4.113  13.543  11.569  1.00  0.00     0.028 A 
ATOM     14  C4  FTA A   1       4.393  12.569  10.614  1.00  0.00     0.031 A 
ATOM     15  C6  FTA A   1       5.619  11.891  10.674  1.00  0.00     0.031 A 
ATOM     16  C7  FTA A   1       6.565  12.159  11.659  1.00  0.00     0.032 A 
ATOM     17  C5  FTA A   1       6.282  13.148  12.585  1.00  0.00     0.031 A 
ATOM     18  C3  FTA A   1       5.068  13.821  12.551  1.00  0.00     0.031 A 
BRANCH  16  19
ATOM     19  N8  FTA A   1       7.712  11.350  11.866  1.00  0.00    -0.356 N 
ATOM     20  H1  FTA A   1       7.635  10.589  12.556  1.00  0.00     0.166 HD
BRANCH  19  21
ATOM     21  C24 FTA A   1       8.964  11.504  11.196  1.00  0.00     0.032 A 
ATOM     22  C26 FTA A   1       9.407  10.582  10.277  1.00  0.00     0.029 A 
ATOM     23  C28 FTA A   1      10.697  10.696   9.795  1.00  0.00     0.002 A 
ATOM     24  C30 FTA A   1      11.546  11.720  10.179  1.00  0.00     0.000 A 
ATOM     25  C29 FTA A   1      11.103  12.665  11.065  1.00  0.00     0.002 A 
ATOM     26  C27 FTA A   1       9.799  12.551  11.558  1.00  0.00     0.029 A 
ENDBRANCH  19  21
ENDBRANCH  16  19
ENDBRANCH  11  13
ENDBRANCH   1  11
TORSDOF 5
ENDMDL
MODEL 3
REMARK VINA RESULT:    -5.816      2.933      5.518
REMARK INTER + INTRA:          -8.490
REMARK INTER:                  -7.531
REMARK INTRA:                  -0.959
REMARK UNBOUND:                -0.973
REMARK  5 active torsions:
REMARK  status: ('A' for Active; 'I' for Inactive)
REMARK    1  A    between atoms: N8_1  and  C24_2 
REMARK    2  A    between atoms: N8_1  and  C7_8 
REMARK    3  A    between atoms: C2_13  and  N1_14 
REMARK    4  A    between atoms: N1_14  and  C17_15 
REMARK    5  A    between atoms: C14_16  and  C13_19 
ROOT
ATOM      1  C17 FTA A   1       7.809  13.472  11.910  1.00  0.00     0.142 C 
ATOM      2  C14 FTA A   1       8.625  12.560  11.346  1.00  0.00     0.158 C 
ATOM      3  C18 FTA A   1      10.059  12.755  11.366  1.00  0.00     0.069 C 
ATOM      4  N21 FTA A   1      11.187  13.071  11.406  1.00  0.00    -0.197 NA
ENDROOT
BRANCH   2   5
ATOM      5  C13 FTA A   1       8.043  11.351  10.719  1.00  0.00     0.197 A 
ATOM      6  N15 FTA A   1       8.384  10.031  11.007  1.00  0.00    -0.093 NA
ATOM      7  N19 FTA A   1       7.638   9.214  10.167  1.00  0.00    -0.231 N 
ATOM      8  N20 FTA A   1       6.838  10.005   9.356  1.00  0.00    -0.017 NA
ATOM      9  H15 FTA A   1       7.674   8.185  10.148  1.00  0.00     0.200 HD
ATOM     10  N16 FTA A   1       7.079  11.330   9.705  1.00  0.00    -0.090 NA
ENDBRANCH   2   5
BRANCH   1  11
ATOM     11  N1  FTA A   1       6.799  13.982  11.181  1.00  0.00    -0.389 N 
ATOM     12  H11 FTA A   1       7.007  14.265  10.212  1.00  0.00     0.159 HD
BRANCH  11  13
ATOM     13  C2  FTA A   1       5.467  14.160  11.645  1.00  0.00     0.028 A 
ATOM     14  C4  FTA A   1       4.426  13.324  11.248  1.00  0.00     0.031 A 
ATOM     15  C6  FTA A   1       3.108  13.688  11.554  1.00  0.00     0.031 A 
ATOM     16  C7  FTA A   1       2.804  14.861  12.241  1.00  0.00     0.032 A 
ATOM     17  C5  FTA A   1       3.851  15.667  12.650  1.00  0.00     0.031 A 
ATOM     18  C3  FTA A   1       5.164  15.331  12.345  1.00  0.00     0.031 A 
BRANCH  16  19
ATOM     19  N8  FTA A   1       1.480  15.352  12.377  1.00  0.00    -0.356 N 
ATOM     20  H1  FTA A   1       1.096  15.897  11.592  1.00  0.00     0.166 HD
BRANCH  19  21
ATOM     21  C24 FTA A   1       0.637  15.153  13.512  1.00  0.00     0.032 A 
ATOM     22  C26 FTA A   1       1.131  15.203  14.794  1.00  0.00     0.029 A 
ATOM     23  C28 FTA A   1       0.304  14.833  15.837  1.00  0.00     0.002 A 
ATOM     24  C30 FTA A   1      -1.010  14.444  15.641  1.00  0.00     0.000 A 
ATOM     25  C29 FTA A   1      -1.525  14.426  14.373  1.00  0.00     0.002 A 
ATOM     26  C27 FTA A   1      -0.689  14.797  13.314  1.00  0.00     0.029 A 
ENDBRANCH  19  21
ENDBRANCH  16  19
ENDBRANCH  11  13
ENDBRANCH   1  11
TORSDOF 5
ENDMDL
MODEL 4
REMARK VINA RESULT:    -5.707      4.836      5.986
REMARK INTER + INTRA:          -8.349
REMARK INTER:                  -7.385
REMARK INTRA:                  -0.964
REMARK UNBOUND:                -0.973
REMARK  5 active torsions:
REMARK  status: ('A' for Active; 'I' for Inactive)
REMARK    1  A    between atoms: N8_1  and  C24_2 
REMARK    2  A    between atoms: N8_1  and  C7_8 
REMARK    3  A    between atoms: C2_13  and  N1_14 
REMARK    4  A    between atoms: N1_14  and  C17_15 
REMARK    5  A    between atoms: C14_16  and  C13_19 
ROOT
ATOM      1  C17 FTA A   1       4.006  18.110  16.600  1.00  0.00     0.142 C 
ATOM      2  C14 FTA A   1       4.931  17.917  17.561  1.00  0.00     0.158 C 
ATOM      3  C18 FTA A   1       6.170  18.665  17.539  1.00  0.00     0.069 C 
ATOM      4  N21 FTA A   1       7.143  19.295  17.362  1.00  0.00    -0.197 NA
ENDROOT
BRANCH   2   5
ATOM      5  C13 FTA A   1       4.662  16.947  18.646  1.00  0.00     0.197 A 
ATOM      6  N15 FTA A   1       4.779  17.188  20.013  1.00  0.00    -0.093 NA
ATOM      7  N19 FTA A   1       4.480  16.004  20.674  1.00  0.00    -0.231 N 
ATOM      8  N20 FTA A   1       4.180  15.024  19.739  1.00  0.00    -0.017 NA
ATOM      9  H15 FTA A   1       4.481  15.873  21.696  1.00  0.00     0.200 HD
ATOM     10  N16 FTA A   1       4.281  15.610  18.481  1.00  0.00    -0.090 NA
ENDBRANCH   2   5
BRANCH   1  11
ATOM     11  N1  FTA A   1       3.537  17.044  15.924  1.00  0.00    -0.389 N 
ATOM     12  H11 FTA A   1       4.211  16.308  15.669  1.00  0.00     0.159 HD
BRANCH  11  13
ATOM     13  C2  FTA A   1       2.182  16.856  15.536  1.00  0.00     0.028 A 
ATOM     14  C4  FTA A   1       1.366  17.919  15.157  1.00  0.00     0.031 A 
ATOM     15  C6  FTA A   1      -0.011  17.701  15.011  1.00  0.00     0.031 A 
ATOM     16  C7  FTA A   1      -0.590  16.454  15.235  1.00  0.00     0.032 A 
ATOM     17  C5  FTA A   1       0.238  15.403  15.586  1.00  0.00     0.031 A 
ATOM     18  C3  FTA A   1       1.603  15.602  15.749  1.00  0.00     0.031 A 
BRANCH  16  19
ATOM     19  N8  FTA A   1      -1.994  16.258  15.299  1.00  0.00    -0.356 N 
ATOM     20  H1  FTA A   1      -2.509  16.765  16.033  1.00  0.00     0.166 HD
BRANCH  19  21
ATOM     21  C24 FTA A   1      -2.751  15.416  14.429  1.00  0.00     0.032 A 
ATOM     22  C26 FTA A   1      -3.939  14.851  14.828  1.00  0.00     0.029 A 
ATOM     23  C28 FTA A   1      -4.534  13.911  14.007  1.00  0.00     0.002 A 
ATOM     24  C30 FTA A   1      -3.994  13.543  12.786  1.00  0.00     0.000 A 
ATOM     25  C29 FTA A   1      -2.831  14.128  12.360  1.00  0.00     0.002 A 
ATOM     26  C27 FTA A   1      -2.225  15.076  13.191  1.00  0.00     0.029 A 
ENDBRANCH  19  21
ENDBRANCH  16  19
ENDBRANCH  11  13
ENDBRANCH   1  11
TORSDOF 5
ENDMDL
MODEL 5
REMARK VINA RESULT:    -5.672      5.050      6.736
REMARK INTER + INTRA:          -8.303
REMARK INTER:                  -7.259
REMARK INTRA:                  -1.044
REMARK UNBOUND:                -0.973
REMARK  5 active torsions:
REMARK  status: ('A' for Active; 'I' for Inactive)
REMARK    1  A    between atoms: N8_1  and  C24_2 
REMARK    2  A    between atoms: N8_1  and  C7_8 
REMARK    3  A    between atoms: C2_13  and  N1_14 
REMARK    4  A    between atoms: N1_14  and  C17_15 
REMARK    5  A    between atoms: C14_16  and  C13_19 
ROOT
ATOM      1  C17 FTA A   1       5.148  18.749  16.707  1.00  0.00     0.142 C 
ATOM      2  C14 FTA A   1       5.584  18.520  17.961  1.00  0.00     0.158 C 
ATOM      3  C18 FTA A   1       6.462  19.468  18.612  1.00  0.00     0.069 C 
ATOM      4  N21 FTA A   1       7.210  20.289  18.988  1.00  0.00    -0.197 NA
ENDROOT
BRANCH   2   5
ATOM      5  C13 FTA A   1       5.142  17.298  18.673  1.00  0.00     0.197 A 
ATOM      6  N15 FTA A   1       5.184  15.997  18.176  1.00  0.00    -0.093 NA
ATOM      7  N19 FTA A   1       4.636  15.164  19.142  1.00  0.00    -0.231 N 
ATOM      8  N20 FTA A   1       4.249  15.926  20.235  1.00  0.00    -0.017 NA
ATOM      9  H15 FTA A   1       4.533  14.142  19.061  1.00  0.00     0.200 HD
ATOM     10  N16 FTA A   1       4.572  17.249  19.950  1.00  0.00    -0.090 NA
ENDBRANCH   2   5
BRANCH   1  11
ATOM     11  N1  FTA A   1       5.318  17.794  15.773  1.00  0.00    -0.389 N 
ATOM     12  H11 FTA A   1       6.273  17.432  15.630  1.00  0.00     0.159 HD
BRANCH  11  13
ATOM     13  C2  FTA A   1       4.282  17.245  14.970  1.00  0.00     0.028 A 
ATOM     14  C4  FTA A   1       2.986  17.071  15.450  1.00  0.00     0.031 A 
ATOM     15  C6  FTA A   1       2.076  16.318  14.695  1.00  0.00     0.031 A 
ATOM     16  C7  FTA A   1       2.427  15.736  13.480  1.00  0.00     0.032 A 
ATOM     17  C5  FTA A   1       3.711  15.938  13.005  1.00  0.00     0.031 A 
ATOM     18  C3  FTA A   1       4.631  16.670  13.745  1.00  0.00     0.031 A 
BRANCH  16  19
ATOM     19  N8  FTA A   1       1.597  14.804  12.805  1.00  0.00    -0.356 N 
ATOM     20  H1  FTA A   1       2.064  14.053  12.275  1.00  0.00     0.166 HD
BRANCH  19  21
ATOM     21  C24 FTA A   1       0.170  14.820  12.800  1.00  0.00     0.032 A 
ATOM     22  C26 FTA A   1      -0.563  14.047  13.670  1.00  0.00     0.029 A 
ATOM     23  C28 FTA A   1      -1.932  13.976  13.500  1.00  0.00     0.002 A 
ATOM     24  C30 FTA A   1      -2.595  14.678  12.508  1.00  0.00     0.000 A 
ATOM     25  C29 FTA A   1      -1.881  15.482  11.660  1.00  0.00     0.002 A 
ATOM     26  C27 FTA A   1      -0.494  15.553  11.827  1.00  0.00     0.029 A 
ENDBRANCH  19  21
ENDBRANCH  16  19
ENDBRANCH  11  13
ENDBRANCH   1  11
TORSDOF 5
ENDMDL
MODEL 6
REMARK VINA RESULT:    -5.650      4.296      9.131
REMARK INTER + INTRA:          -8.274
REMARK INTER:                  -7.197
REMARK INTRA:                  -1.077
REMARK UNBOUND:                -0.973
REMARK  5 active torsions:
REMARK  status: ('A' for Active; 'I' for Inactive)
REMARK    1  A    between atoms: N8_1  and  C24_2 
REMARK    2  A    between atoms: N8_1  and  C7_8 
REMARK    3  A    between atoms: C2_13  and  N1_14 
REMARK    4  A    between atoms: N1_14  and  C17_15 
REMARK    5  A    between atoms: C14_16  and  C13_19 
ROOT
ATOM      1  C17 FTA A   1       2.362  17.239  13.305  1.00  0.00     0.142 C 
ATOM      2  C14 FTA A   1       2.136  16.618  14.480  1.00  0.00     0.158 C 
ATOM      3  C18 FTA A   1       2.862  17.019  15.666  1.00  0.00     0.069 C 
ATOM      4  N21 FTA A   1       3.561  17.407  16.524  1.00  0.00    -0.197 NA
ENDROOT
BRANCH   2   5
ATOM      5  C13 FTA A   1       1.128  15.536  14.550  1.00  0.00     0.197 A 
ATOM      6  N15 FTA A   1       0.836  14.755  15.666  1.00  0.00    -0.093 NA
ATOM      7  N19 FTA A   1      -0.132  13.833  15.289  1.00  0.00    -0.231 N 
ATOM      8  N20 FTA A   1      -0.448  14.025  13.952  1.00  0.00    -0.017 NA
ATOM      9  H15 FTA A   1      -0.550  13.120  15.904  1.00  0.00     0.200 HD
ATOM     10  N16 FTA A   1       0.325  15.088  13.495  1.00  0.00    -0.090 NA
ENDBRANCH   2   5
BRANCH   1  11
ATOM     11  N1  FTA A   1       2.661  16.495  12.223  1.00  0.00    -0.389 N 
ATOM     12  H11 FTA A   1       2.060  16.599  11.393  1.00  0.00     0.159 HD
BRANCH  11  13
ATOM     13  C2  FTA A   1       3.744  15.578  12.138  1.00  0.00     0.028 A 
ATOM     14  C4  FTA A   1       3.565  14.254  11.747  1.00  0.00     0.031 A 
ATOM     15  C6  FTA A   1       4.623  13.348  11.905  1.00  0.00     0.031 A 
ATOM     16  C7  FTA A   1       5.849  13.730  12.444  1.00  0.00     0.032 A 
ATOM     17  C5  FTA A   1       6.019  15.055  12.805  1.00  0.00     0.031 A 
ATOM     18  C3  FTA A   1       4.978  15.964  12.668  1.00  0.00     0.031 A 
BRANCH  16  19
ATOM     19  N8  FTA A   1       6.854  12.797  12.807  1.00  0.00    -0.356 N 
ATOM     20  H1  FTA A   1       6.848  12.449  13.776  1.00  0.00     0.166 HD
BRANCH  19  21
ATOM     21  C24 FTA A   1       7.873  12.301  11.938  1.00  0.00     0.032 A 
ATOM     22  C26 FTA A   1       7.671  11.194  11.149  1.00  0.00     0.029 A 
ATOM     23  C28 FTA A   1       8.748  10.663  10.464  1.00  0.00     0.002 A 
ATOM     24  C30 FTA A   1      10.012  11.224  10.519  1.00  0.00     0.000 A 
ATOM     25  C29 FTA A   1      10.218  12.350  11.271  1.00  0.00     0.002 A 
ATOM     26  C27 FTA A   1       9.130  12.887  11.969  1.00  0.00     0.029 A 
ENDBRANCH  19  21
ENDBRANCH  16  19
ENDBRANCH  11  13
ENDBRANCH   1  11
TORSDOF 5
ENDMDL
MODEL 7
REMARK VINA RESULT:    -5.627      3.436      9.714
REMARK INTER + INTRA:          -8.246
REMARK INTER:                  -7.316
REMARK INTRA:                  -0.929
REMARK UNBOUND:                -0.973
REMARK  5 active torsions:
REMARK  status: ('A' for Active; 'I' for Inactive)
REMARK    1  A    between atoms: N8_1  and  C24_2 
REMARK    2  A    between atoms: N8_1  and  C7_8 
REMARK    3  A    between atoms: C2_13  and  N1_14 
REMARK    4  A    between atoms: N1_14  and  C17_15 
REMARK    5  A    between atoms: C14_16  and  C13_19 
ROOT
ATOM      1  C17 FTA A   1       2.239  15.318  12.841  1.00  0.00     0.142 C 
ATOM      2  C14 FTA A   1       0.969  15.191  13.273  1.00  0.00     0.158 C 
ATOM      3  C18 FTA A   1       0.701  14.883  14.661  1.00  0.00     0.069 C 
ATOM      4  N21 FTA A   1       0.637  14.576  15.791  1.00  0.00    -0.197 NA
ENDROOT
BRANCH   2   5
ATOM      5  C13 FTA A   1      -0.147  15.385  12.320  1.00  0.00     0.197 A 
ATOM      6  N15 FTA A   1      -0.155  16.249  11.227  1.00  0.00    -0.093 NA
ATOM      7  N19 FTA A   1      -1.406  16.157  10.630  1.00  0.00    -0.231 N 
ATOM      8  N20 FTA A   1      -2.181  15.249  11.337  1.00  0.00    -0.017 NA
ATOM      9  H15 FTA A   1      -1.710  16.679   9.796  1.00  0.00     0.200 HD
ATOM     10  N16 FTA A   1      -1.399  14.761  12.378  1.00  0.00    -0.090 NA
ENDBRANCH   2   5
BRANCH   1  11
ATOM     11  N1  FTA A   1       2.640  14.598  11.775  1.00  0.00    -0.389 N 
ATOM     12  H11 FTA A   1       1.985  14.514  10.984  1.00  0.00     0.159 HD
BRANCH  11  13
ATOM     13  C2  FTA A   1       3.898  13.945  11.659  1.00  0.00     0.028 A 
ATOM     14  C4  FTA A   1       4.091  12.853  10.816  1.00  0.00     0.031 A 
ATOM     15  C6  FTA A   1       5.278  12.116  10.920  1.00  0.00     0.031 A 
ATOM     16  C7  FTA A   1       6.272  12.439  11.840  1.00  0.00     0.032 A 
ATOM     17  C5  FTA A   1       6.076  13.542  12.653  1.00  0.00     0.031 A 
ATOM     18  C3  FTA A   1       4.900  14.277  12.575  1.00  0.00     0.031 A 
BRANCH  16  19
ATOM     19  N8  FTA A   1       7.379  11.593  12.106  1.00  0.00    -0.356 N 
ATOM     20  H1  FTA A   1       7.328  11.000  12.947  1.00  0.00     0.166 HD
BRANCH  19  21
ATOM     21  C24 FTA A   1       8.556  11.496  11.305  1.00  0.00     0.032 A 
ATOM     22  C26 FTA A   1       8.750  10.451  10.432  1.00  0.00     0.029 A 
ATOM     23  C28 FTA A   1       9.980  10.322   9.816  1.00  0.00     0.002 A 
ATOM     24  C30 FTA A   1      11.012  11.222  10.022  1.00  0.00     0.000 A 
ATOM     25  C29 FTA A   1      10.819  12.288  10.859  1.00  0.00     0.002 A 
ATOM     26  C27 FTA A   1       9.575  12.420  11.487  1.00  0.00     0.029 A 
ENDBRANCH  19  21
ENDBRANCH  16  19
ENDBRANCH  11  13
ENDBRANCH   1  11
TORSDOF 5
ENDMDL
MODEL 8
REMARK VINA RESULT:    -5.624      6.323      8.185
REMARK INTER + INTRA:          -8.241
REMARK INTER:                  -7.268
REMARK INTRA:                  -0.973
REMARK UNBOUND:                -0.973
REMARK  5 active torsions:
REMARK  status: ('A' for Active; 'I' for Inactive)
REMARK    1  A    between atoms: N8_1  and  C24_2 
REMARK    2  A    between atoms: N8_1  and  C7_8 
REMARK    3  A    between atoms: C2_13  and  N1_14 
REMARK    4  A    between atoms: N1_14  and  C17_15 
REMARK    5  A    between atoms: C14_16  and  C13_19 
ROOT
ATOM      1  C17 FTA A   1       5.665  13.274  10.728  1.00  0.00     0.142 C 
ATOM      2  C14 FTA A   1       5.645  12.029  10.211  1.00  0.00     0.158 C 
ATOM      3  C18 FTA A   1       4.408  11.470   9.710  1.00  0.00     0.069 C 
ATOM      4  N21 FTA A   1       3.331  11.128   9.397  1.00  0.00    -0.197 NA
ENDROOT
BRANCH   2   5
ATOM      5  C13 FTA A   1       6.901  11.247  10.146  1.00  0.00     0.197 A 
ATOM      6  N15 FTA A   1       7.026   9.927   9.720  1.00  0.00    -0.093 NA
ATOM      7  N19 FTA A   1       8.360   9.567   9.860  1.00  0.00    -0.231 N 
ATOM      8  N20 FTA A   1       9.070  10.644  10.371  1.00  0.00    -0.017 NA
ATOM      9  H15 FTA A   1       8.759   8.647   9.623  1.00  0.00     0.200 HD
ATOM     10  N16 FTA A   1       8.169  11.690  10.539  1.00  0.00    -0.090 NA
ENDBRANCH   2   5
BRANCH   1  11
ATOM     11  N1  FTA A   1       6.186  13.460  11.956  1.00  0.00    -0.389 N 
ATOM     12  H11 FTA A   1       6.703  12.675  12.379  1.00  0.00     0.159 HD
BRANCH  11  13
ATOM     13  C2  FTA A   1       6.077  14.658  12.715  1.00  0.00     0.028 A 
ATOM     14  C4  FTA A   1       7.018  15.013  13.678  1.00  0.00     0.031 A 
ATOM     15  C6  FTA A   1       6.736  16.077  14.544  1.00  0.00     0.031 A 
ATOM     16  C7  FTA A   1       5.542  16.791  14.476  1.00  0.00     0.032 A 
ATOM     17  C5  FTA A   1       4.628  16.442  13.497  1.00  0.00     0.031 A 
ATOM     18  C3  FTA A   1       4.884  15.381  12.637  1.00  0.00     0.031 A 
BRANCH  16  19
ATOM     19  N8  FTA A   1       5.145  17.725  15.466  1.00  0.00    -0.356 N 
ATOM     20  H1  FTA A   1       4.653  18.572  15.147  1.00  0.00     0.166 HD
BRANCH  19  21
ATOM     21  C24 FTA A   1       5.373  17.589  16.869  1.00  0.00     0.032 A 
ATOM     22  C26 FTA A   1       4.598  16.762  17.648  1.00  0.00     0.029 A 
ATOM     23  C28 FTA A   1       4.755  16.806  19.020  1.00  0.00     0.002 A 
ATOM     24  C30 FTA A   1       5.685  17.627  19.635  1.00  0.00     0.000 A 
ATOM     25  C29 FTA A   1       6.489  18.428  18.868  1.00  0.00     0.002 A 
ATOM     26  C27 FTA A   1       6.329  18.388  17.479  1.00  0.00     0.029 A 
ENDBRANCH  19  21
ENDBRANCH  16  19
ENDBRANCH  11  13
ENDBRANCH   1  11
TORSDOF 5
ENDMDL
MODEL 9
REMARK VINA RESULT:    -5.557      6.837      9.715
REMARK INTER + INTRA:          -8.154
REMARK INTER:                  -7.146
REMARK INTRA:                  -1.009
REMARK UNBOUND:                -0.973
REMARK  5 active torsions:
REMARK  status: ('A' for Active; 'I' for Inactive)
REMARK    1  A    between atoms: N8_1  and  C24_2 
REMARK    2  A    between atoms: N8_1  and  C7_8 
REMARK    3  A    between atoms: C2_13  and  N1_14 
REMARK    4  A    between atoms: N1_14  and  C17_15 
REMARK    5  A    between atoms: C14_16  and  C13_19 
ROOT
ATOM      1  C17 FTA A   1       5.214  18.161  17.086  1.00  0.00     0.142 C 
ATOM      2  C14 FTA A   1       5.812  17.564  18.136  1.00  0.00     0.158 C 
ATOM      3  C18 FTA A   1       7.174  17.903  18.487  1.00  0.00     0.069 C 
ATOM      4  N21 FTA A   1       8.291  18.232  18.618  1.00  0.00    -0.197 NA
ENDROOT
BRANCH   2   5
ATOM      5  C13 FTA A   1       5.058  16.571  18.935  1.00  0.00     0.197 A 
ATOM      6  N15 FTA A   1       4.611  15.327  18.492  1.00  0.00    -0.093 NA
ATOM      7  N19 FTA A   1       3.912  14.738  19.537  1.00  0.00    -0.231 N 
ATOM      8  N20 FTA A   1       3.912  15.597  20.627  1.00  0.00    -0.017 NA
ATOM      9  H15 FTA A   1       3.464  13.811  19.508  1.00  0.00     0.200 HD
ATOM     10  N16 FTA A   1       4.632  16.730  20.259  1.00  0.00    -0.090 NA
ENDBRANCH   2   5
BRANCH   1  11
ATOM     11  N1  FTA A   1       4.649  17.393  16.134  1.00  0.00    -0.389 N 
ATOM     12  H11 FTA A   1       3.695  17.045  16.308  1.00  0.00     0.159 HD
BRANCH  11  13
ATOM     13  C2  FTA A   1       5.269  17.026  14.908  1.00  0.00     0.028 A 
ATOM     14  C4  FTA A   1       4.531  16.681  13.779  1.00  0.00     0.031 A 
ATOM     15  C6  FTA A   1       5.193  16.111  12.683  1.00  0.00     0.031 A 
ATOM     16  C7  FTA A   1       6.565  15.876  12.687  1.00  0.00     0.032 A 
ATOM     17  C5  FTA A   1       7.288  16.247  13.807  1.00  0.00     0.031 A 
ATOM     18  C3  FTA A   1       6.649  16.801  14.909  1.00  0.00     0.031 A 
BRANCH  16  19
ATOM     19  N8  FTA A   1       7.219  15.115  11.684  1.00  0.00    -0.356 N 
ATOM     20  H1  FTA A   1       7.449  15.595  10.802  1.00  0.00     0.166 HD
BRANCH  19  21
ATOM     21  C24 FTA A   1       7.583  13.739  11.796  1.00  0.00     0.032 A 
ATOM     22  C26 FTA A   1       8.876  13.356  12.065  1.00  0.00     0.029 A 
ATOM     23  C28 FTA A   1       9.198  12.014  11.989  1.00  0.00     0.002 A 
ATOM     24  C30 FTA A   1       8.261  11.041  11.684  1.00  0.00     0.000 A 
ATOM     25  C29 FTA A   1       6.962  11.406  11.452  1.00  0.00     0.002 A 
ATOM     26  C27 FTA A   1       6.633  12.765  11.524  1.00  0.00     0.029 A 
ENDBRANCH  19  21
ENDBRANCH  16  19
ENDBRANCH  11  13
ENDBRANCH   1  11
TORSDOF 5
ENDMDL
