MODEL 1
REMARK VINA RESULT:    -9.993      0.000      0.000
REMARK INTER + INTRA:         -10.854
REMARK INTER:                 -11.410
REMARK INTRA:                   0.556
REMARK UNBOUND:                 1.476
REMARK  9 active torsions:
REMARK  status: ('A' for Active; 'I' for Inactive)
REMARK    1  A    between atoms: N_2  and  C_4 
REMARK    2  A    between atoms: C_4  and  C_5 
REMARK    3  A    between atoms: C_5  and  N_6 
REMARK    4  A    between atoms: N_6  and  C_7 
REMARK    5  A    between atoms: C_20  and  O_21 
REMARK    6  A    between atoms: C_23  and  O_24 
REMARK    7  A    between atoms: O_24  and  C_25 
REMARK       I    between atoms: C_25  and  N_26 
REMARK    8  A    between atoms: C_33  and  O_34 
REMARK    9  A    between atoms: C_35  and  O_36 
ROOT
HETATM    1  C   UNL     1      10.555  12.704  26.137  0.00  0.00     0.066 C 
HETATM    2  C   UNL     1      10.322  14.573  26.044  0.00  0.00     0.182 C 
HETATM    3  O   UNL     1      10.225  15.327  27.024  0.00  0.00    -0.290 OA
HETATM    4  C   UNL     1      10.518  15.470  24.928  0.00  0.00     0.133 C 
HETATM    5  C   UNL     1      10.029  14.515  24.187  0.00  0.00     0.076 C 
HETATM    6  N   UNL     1       9.016  15.028  23.491  0.00  0.00    -0.326 N 
HETATM    7  C   UNL     1       8.781  14.240  22.479  0.00  0.00     0.232 C 
HETATM    8  O   UNL     1       9.619  13.817  21.708  0.00  0.00    -0.272 OA
HETATM    9  C   UNL     1       7.523  13.648  22.870  0.00  0.00     0.062 C 
HETATM   10  C   UNL     1       6.574  14.525  22.184  0.00  0.00     0.027 C 
HETATM   11  C   UNL     1       7.824  12.358  22.951  0.00  0.00     0.035 C 
HETATM   12  C   UNL     1       7.604  11.594  21.797  0.00  0.00    -0.021 C 
HETATM   13  C   UNL     1       7.214  10.373  22.081  0.00  0.00     0.004 C 
HETATM   14  C   UNL     1       6.179   9.774  21.238  0.00  0.00     0.177 C 
HETATM   15  C   UNL     1       6.009   8.394  21.692  0.00  0.00     0.194 C 
HETATM   16  C   UNL     1       5.065   7.556  20.909  0.00  0.00    -0.055 C 
HETATM   17  C   UNL     1       4.591   8.079  19.592  0.00  0.00     0.046 C 
HETATM   18  C   UNL     1       4.632   6.391  21.421  0.00  0.00    -0.015 C 
HETATM   19  C   UNL     1       4.169   5.332  20.509  0.00  0.00     0.035 C 
HETATM   20  C   UNL     1       2.685   5.280  20.438  0.00  0.00     0.017 C 
HETATM   21  C   UNL     1       5.169   4.222  20.841  0.00  0.00     0.154 C 
HETATM   22  C   UNL     1       6.747   5.120  20.453  0.00  0.00     0.150 C 
HETATM   23  C   UNL     1       7.796   6.651  21.314  0.00  0.00     0.039 C 
HETATM   24  C   UNL     1       8.750   7.834  22.791  0.00  0.00    -0.012 C 
HETATM   25  C   UNL     1       8.712   6.034  23.413  0.00  0.00     0.010 C 
HETATM   26  C   UNL     1       9.410   9.504  24.062  0.00  0.00     0.049 C 
HETATM   27  C   UNL     1      10.131  11.445  24.823  0.00  0.00     0.019 C 
HETATM   28  C   UNL     1      10.644  12.882  24.088  0.00  0.00     0.203 C 
HETATM   29  O   UNL     1      11.873  12.923  23.894  0.00  0.00    -0.286 OA
HETATM   30  H   UNL     1       8.643  15.981  23.521  0.00  0.00     0.168 HD
ENDROOT
BRANCH   1  31
HETATM   31  N   UNL     1      11.830  13.417  27.400  0.00  0.00    -0.288 NA
HETATM   32  H   UNL     1      12.264  12.481  27.437  0.00  0.00     0.127 HD
BRANCH  31  33
HETATM   33  C   UNL     1      13.723  13.788  27.630  0.00  0.00     0.112 C 
BRANCH  33  34
HETATM   34  C   UNL     1      15.143  14.863  28.455  0.00  0.00     0.130 C 
BRANCH  34  35
HETATM   35  N   UNL     1      15.553  15.545  29.844  0.00  0.00    -0.420 N 
HETATM   36  C   UNL     1      15.062  16.888  30.139  0.00  0.00     0.142 C 
HETATM   37  C   UNL     1      15.558  14.753  31.083  0.00  0.00     0.142 C 
ENDBRANCH  34  35
ENDBRANCH  33  34
ENDBRANCH  31  33
ENDBRANCH   1  31
BRANCH  22  38
HETATM   38  O   UNL     1       7.004   4.227  19.000  0.00  0.00    -0.388 OA
HETATM   39  C   UNL     1       8.224   3.319  18.620  0.00  0.00     0.202 C 
ENDBRANCH  22  38
BRANCH  21  40
HETATM   40  O   UNL     1       4.797   3.453  21.997  0.00  0.00    -0.392 OA
HETATM   41  H   UNL     1       5.284   2.633  22.133  0.00  0.00     0.210 HD
ENDBRANCH  21  40
BRANCH  14  42
HETATM   42  O   UNL     1       4.899  10.265  21.493  0.00  0.00    -0.384 OA
HETATM   43  C   UNL     1       4.682  11.441  20.807  0.00  0.00     0.202 C 
ENDBRANCH  14  42
BRANCH  15  44
HETATM   44  O   UNL     1       5.937   8.168  23.125  0.00  0.00    -0.291 OA
BRANCH  44  45
HETATM   45  C   UNL     1       4.832   8.648  23.741  0.00  0.00     0.359 C 
HETATM   46  N   UNL     1       5.092   9.775  24.437  0.00  0.00    -0.346 N 
HETATM   47  H   UNL     1       5.934  10.319  24.350  0.00  0.00     0.161 HD
HETATM   48  H   UNL     1       4.380  10.008  25.113  0.00  0.00     0.161 HD
HETATM   49  O   UNL     1       3.741   8.111  23.857  0.00  0.00    -0.239 OA
ENDBRANCH  44  45
ENDBRANCH  15  44
TORSDOF 9
ENDMDL
MODEL 2
REMARK VINA RESULT:    -9.753      3.771     10.619
REMARK INTER + INTRA:         -10.557
REMARK INTER:                 -11.254
REMARK INTRA:                   0.696
REMARK UNBOUND:                 1.476
REMARK  9 active torsions:
REMARK  status: ('A' for Active; 'I' for Inactive)
REMARK    1  A    between atoms: N_2  and  C_4 
REMARK    2  A    between atoms: C_4  and  C_5 
REMARK    3  A    between atoms: C_5  and  N_6 
REMARK    4  A    between atoms: N_6  and  C_7 
REMARK    5  A    between atoms: C_20  and  O_21 
REMARK    6  A    between atoms: C_23  and  O_24 
REMARK    7  A    between atoms: O_24  and  C_25 
REMARK       I    between atoms: C_25  and  N_26 
REMARK    8  A    between atoms: C_33  and  O_34 
REMARK    9  A    between atoms: C_35  and  O_36 
ROOT
HETATM    1  C   UNL     1       4.616   5.632  23.026  0.00  0.00     0.066 C 
HETATM    2  C   UNL     1       2.735   5.589  23.150  0.00  0.00     0.182 C 
HETATM    3  O   UNL     1       1.986   4.963  22.385  0.00  0.00    -0.290 OA
HETATM    4  C   UNL     1       1.876   5.970  24.248  0.00  0.00     0.133 C 
HETATM    5  C   UNL     1       2.719   6.942  24.456  0.00  0.00     0.076 C 
HETATM    6  N   UNL     1       2.025   8.079  24.465  0.00  0.00    -0.326 N 
HETATM    7  C   UNL     1       2.746   8.990  25.056  0.00  0.00     0.232 C 
HETATM    8  O   UNL     1       3.306   8.857  26.126  0.00  0.00    -0.272 OA
HETATM    9  C   UNL     1       3.106   9.832  23.940  0.00  0.00     0.062 C 
HETATM   10  C   UNL     1       2.064  10.857  24.014  0.00  0.00     0.027 C 
HETATM   11  C   UNL     1       4.430   9.741  23.923  0.00  0.00     0.035 C 
HETATM   12  C   UNL     1       5.128  10.722  24.640  0.00  0.00    -0.021 C 
HETATM   13  C   UNL     1       6.262  11.042  24.059  0.00  0.00     0.004 C 
HETATM   14  C   UNL     1       6.655  12.451  24.061  0.00  0.00     0.177 C 
HETATM   15  C   UNL     1       7.986  12.520  23.458  0.00  0.00     0.194 C 
HETATM   16  C   UNL     1       8.632  13.857  23.442  0.00  0.00    -0.055 C 
HETATM   17  C   UNL     1       8.018  14.942  24.267  0.00  0.00     0.046 C 
HETATM   18  C   UNL     1       9.705  14.066  22.659  0.00  0.00    -0.015 C 
HETATM   19  C   UNL     1      10.653  15.137  23.008  0.00  0.00     0.035 C 
HETATM   20  C   UNL     1      10.435  16.353  22.182  0.00  0.00     0.017 C 
HETATM   21  C   UNL     1      11.929  14.319  23.224  0.00  0.00     0.154 C 
HETATM   22  C   UNL     1      11.327  13.177  24.558  0.00  0.00     0.150 C 
HETATM   23  C   UNL     1      10.020  11.606  24.643  0.00  0.00     0.039 C 
HETATM   24  C   UNL     1       9.044   9.792  24.146  0.00  0.00    -0.012 C 
HETATM   25  C   UNL     1      10.814   9.720  23.445  0.00  0.00     0.010 C 
HETATM   26  C   UNL     1       7.534   8.258  23.687  0.00  0.00     0.049 C 
HETATM   27  C   UNL     1       5.764   6.943  23.700  0.00  0.00     0.019 C 
HETATM   28  C   UNL     1       4.436   6.765  24.735  0.00  0.00     0.203 C 
HETATM   29  O   UNL     1       4.615   5.910  25.623  0.00  0.00    -0.286 OA
HETATM   30  H   UNL     1       1.020   8.210  24.315  0.00  0.00     0.168 HD
ENDROOT
BRANCH   1  31
HETATM   31  N   UNL     1       4.158   3.764  22.842  0.00  0.00    -0.288 NA
HETATM   32  H   UNL     1       5.035   3.537  23.338  0.00  0.00     0.127 HD
BRANCH  31  33
HETATM   33  C   UNL     1       3.713   2.182  23.877  0.00  0.00     0.112 C 
BRANCH  33  34
HETATM   34  C   UNL     1       2.408   1.178  24.946  0.00  0.00     0.130 C 
BRANCH  34  35
HETATM   35  N   UNL     1       1.842   1.050  26.437  0.00  0.00    -0.420 N 
HETATM   36  C   UNL     1       2.039   2.164  27.361  0.00  0.00     0.142 C 
HETATM   37  C   UNL     1       0.517   0.459  26.676  0.00  0.00     0.142 C 
ENDBRANCH  34  35
ENDBRANCH  33  34
ENDBRANCH  31  33
ENDBRANCH   1  31
BRANCH  22  38
HETATM   38  O   UNL     1      12.236  13.982  25.782  0.00  0.00    -0.388 OA
HETATM   39  C   UNL     1      11.872  14.175  27.295  0.00  0.00     0.202 C 
ENDBRANCH  22  38
BRANCH  21  40
HETATM   40  O   UNL     1      12.631  14.034  22.001  0.00  0.00    -0.392 OA
HETATM   41  H   UNL     1      13.540  14.346  21.954  0.00  0.00     0.210 HD
ENDBRANCH  21  40
BRANCH  14  42
HETATM   42  O   UNL     1       5.944  13.230  23.148  0.00  0.00    -0.384 OA
HETATM   43  C   UNL     1       4.816  13.761  23.736  0.00  0.00     0.202 C 
ENDBRANCH  14  42
BRANCH  15  44
HETATM   44  O   UNL     1       8.210  11.751  22.247  0.00  0.00    -0.291 OA
BRANCH  44  45
HETATM   45  C   UNL     1       7.809  12.337  21.096  0.00  0.00     0.359 C 
HETATM   46  N   UNL     1       6.568  11.946  20.737  0.00  0.00    -0.346 N 
HETATM   47  H   UNL     1       5.928  11.455  21.337  0.00  0.00     0.161 HD
HETATM   48  H   UNL     1       6.344  12.142  19.772  0.00  0.00     0.161 HD
HETATM   49  O   UNL     1       8.474  13.006  20.320  0.00  0.00    -0.239 OA
ENDBRANCH  44  45
ENDBRANCH  15  44
TORSDOF 9
ENDMDL
MODEL 3
REMARK VINA RESULT:    -9.679      3.726     11.002
REMARK INTER + INTRA:         -10.466
REMARK INTER:                 -11.343
REMARK INTRA:                   0.877
REMARK UNBOUND:                 1.476
REMARK  9 active torsions:
REMARK  status: ('A' for Active; 'I' for Inactive)
REMARK    1  A    between atoms: N_2  and  C_4 
REMARK    2  A    between atoms: C_4  and  C_5 
REMARK    3  A    between atoms: C_5  and  N_6 
REMARK    4  A    between atoms: N_6  and  C_7 
REMARK    5  A    between atoms: C_20  and  O_21 
REMARK    6  A    between atoms: C_23  and  O_24 
REMARK    7  A    between atoms: O_24  and  C_25 
REMARK       I    between atoms: C_25  and  N_26 
REMARK    8  A    between atoms: C_33  and  O_34 
REMARK    9  A    between atoms: C_35  and  O_36 
ROOT
HETATM    1  C   UNL     1       4.608   5.618  22.950  0.00  0.00     0.066 C 
HETATM    2  C   UNL     1       2.728   5.599  23.090  0.00  0.00     0.182 C 
HETATM    3  O   UNL     1       1.964   4.997  22.320  0.00  0.00    -0.290 OA
HETATM    4  C   UNL     1       1.884   5.971  24.203  0.00  0.00     0.133 C 
HETATM    5  C   UNL     1       2.743   6.927  24.421  0.00  0.00     0.076 C 
HETATM    6  N   UNL     1       2.064   8.073  24.457  0.00  0.00    -0.326 N 
HETATM    7  C   UNL     1       2.803   8.963  25.059  0.00  0.00     0.232 C 
HETATM    8  O   UNL     1       3.370   8.802  26.121  0.00  0.00    -0.272 OA
HETATM    9  C   UNL     1       3.165   9.821  23.955  0.00  0.00     0.062 C 
HETATM   10  C   UNL     1       2.139  10.858  24.058  0.00  0.00     0.027 C 
HETATM   11  C   UNL     1       4.487   9.712  23.925  0.00  0.00     0.035 C 
HETATM   12  C   UNL     1       5.206  10.669  24.654  0.00  0.00    -0.021 C 
HETATM   13  C   UNL     1       6.339  10.985  24.069  0.00  0.00     0.004 C 
HETATM   14  C   UNL     1       6.752  12.388  24.094  0.00  0.00     0.177 C 
HETATM   15  C   UNL     1       8.078  12.449  23.481  0.00  0.00     0.194 C 
HETATM   16  C   UNL     1       8.742  13.778  23.483  0.00  0.00    -0.055 C 
HETATM   17  C   UNL     1       8.151  14.855  24.334  0.00  0.00     0.046 C 
HETATM   18  C   UNL     1       9.811  13.987  22.695  0.00  0.00    -0.015 C 
HETATM   19  C   UNL     1      10.777  15.037  23.056  0.00  0.00     0.035 C 
HETATM   20  C   UNL     1      10.569  16.272  22.255  0.00  0.00     0.017 C 
HETATM   21  C   UNL     1      12.044  14.199  23.245  0.00  0.00     0.154 C 
HETATM   22  C   UNL     1      11.437  13.040  24.563  0.00  0.00     0.150 C 
HETATM   23  C   UNL     1      10.109  11.486  24.631  0.00  0.00     0.039 C 
HETATM   24  C   UNL     1       9.104   9.694  24.108  0.00  0.00    -0.012 C 
HETATM   25  C   UNL     1      10.867   9.611  23.390  0.00  0.00     0.010 C 
HETATM   26  C   UNL     1       7.569   8.191  23.635  0.00  0.00     0.049 C 
HETATM   27  C   UNL     1       5.780   6.900  23.638  0.00  0.00     0.019 C 
HETATM   28  C   UNL     1       4.459   6.721  24.682  0.00  0.00     0.203 C 
HETATM   29  O   UNL     1       4.634   5.847  25.551  0.00  0.00    -0.286 OA
HETATM   30  H   UNL     1       1.061   8.221  24.319  0.00  0.00     0.168 HD
ENDROOT
BRANCH   1  31
HETATM   31  N   UNL     1       4.123   3.761  22.736  0.00  0.00    -0.288 NA
HETATM   32  H   UNL     1       3.176   4.075  22.472  0.00  0.00     0.127 HD
BRANCH  31  33
HETATM   33  C   UNL     1       3.554   2.465  21.405  0.00  0.00     0.112 C 
BRANCH  33  34
HETATM   34  C   UNL     1       2.292   1.935  19.998  0.00  0.00     0.130 C 
BRANCH  34  35
HETATM   35  N   UNL     1       0.817   2.238  19.459  0.00  0.00    -0.420 N 
HETATM   36  C   UNL     1      -0.187   2.733  20.397  0.00  0.00     0.142 C 
HETATM   37  C   UNL     1       0.627   2.903  18.161  0.00  0.00     0.142 C 
ENDBRANCH  34  35
ENDBRANCH  33  34
ENDBRANCH  31  33
ENDBRANCH   1  31
BRANCH  22  38
HETATM   38  O   UNL     1      12.368  13.810  25.794  0.00  0.00    -0.388 OA
HETATM   39  C   UNL     1      11.983  14.054  27.294  0.00  0.00     0.202 C 
ENDBRANCH  22  38
BRANCH  21  40
HETATM   40  O   UNL     1      12.731  13.926  22.011  0.00  0.00    -0.392 OA
HETATM   41  H   UNL     1      13.216  13.095  21.973  0.00  0.00     0.210 HD
ENDBRANCH  21  40
BRANCH  14  42
HETATM   42  O   UNL     1       6.043  13.193  23.202  0.00  0.00    -0.384 OA
HETATM   43  C   UNL     1       4.943  13.750  23.817  0.00  0.00     0.202 C 
ENDBRANCH  14  42
BRANCH  15  44
HETATM   44  O   UNL     1       8.281  11.700  22.253  0.00  0.00    -0.291 OA
BRANCH  44  45
HETATM   45  C   UNL     1       7.865  12.307  21.119  0.00  0.00     0.359 C 
HETATM   46  N   UNL     1       6.618  11.922  20.769  0.00  0.00    -0.346 N 
HETATM   47  H   UNL     1       5.986  11.420  21.369  0.00  0.00     0.161 HD
HETATM   48  H   UNL     1       6.381  12.135  19.812  0.00  0.00     0.161 HD
HETATM   49  O   UNL     1       8.518  12.990  20.346  0.00  0.00    -0.239 OA
ENDBRANCH  44  45
ENDBRANCH  15  44
TORSDOF 9
ENDMDL
MODEL 4
REMARK VINA RESULT:    -9.636      3.661     10.804
REMARK INTER + INTRA:         -10.413
REMARK INTER:                 -11.183
REMARK INTRA:                   0.770
REMARK UNBOUND:                 1.476
REMARK  9 active torsions:
REMARK  status: ('A' for Active; 'I' for Inactive)
REMARK    1  A    between atoms: N_2  and  C_4 
REMARK    2  A    between atoms: C_4  and  C_5 
REMARK    3  A    between atoms: C_5  and  N_6 
REMARK    4  A    between atoms: N_6  and  C_7 
REMARK    5  A    between atoms: C_20  and  O_21 
REMARK    6  A    between atoms: C_23  and  O_24 
REMARK    7  A    between atoms: O_24  and  C_25 
REMARK       I    between atoms: C_25  and  N_26 
REMARK    8  A    between atoms: C_33  and  O_34 
REMARK    9  A    between atoms: C_35  and  O_36 
ROOT
HETATM    1  C   UNL     1       4.698   5.645  22.949  0.00  0.00     0.066 C 
HETATM    2  C   UNL     1       2.818   5.581  23.083  0.00  0.00     0.182 C 
HETATM    3  O   UNL     1       2.071   4.966  22.307  0.00  0.00    -0.290 OA
HETATM    4  C   UNL     1       1.963   5.928  24.195  0.00  0.00     0.133 C 
HETATM    5  C   UNL     1       2.798   6.903  24.421  0.00  0.00     0.076 C 
HETATM    6  N   UNL     1       2.093   8.033  24.461  0.00  0.00    -0.326 N 
HETATM    7  C   UNL     1       2.810   8.936  25.069  0.00  0.00     0.232 C 
HETATM    8  O   UNL     1       3.377   8.783  26.132  0.00  0.00    -0.272 OA
HETATM    9  C   UNL     1       3.154   9.808  23.971  0.00  0.00     0.062 C 
HETATM   10  C   UNL     1       2.104  10.821  24.076  0.00  0.00     0.027 C 
HETATM   11  C   UNL     1       4.479   9.730  23.945  0.00  0.00     0.035 C 
HETATM   12  C   UNL     1       5.173  10.700  24.680  0.00  0.00    -0.021 C 
HETATM   13  C   UNL     1       6.300  11.045  24.101  0.00  0.00     0.004 C 
HETATM   14  C   UNL     1       6.680  12.457  24.134  0.00  0.00     0.177 C 
HETATM   15  C   UNL     1       8.007  12.553  23.525  0.00  0.00     0.194 C 
HETATM   16  C   UNL     1       8.639  13.896  23.537  0.00  0.00    -0.055 C 
HETATM   17  C   UNL     1       8.020  14.955  24.391  0.00  0.00     0.046 C 
HETATM   18  C   UNL     1       9.706  14.134  22.753  0.00  0.00    -0.015 C 
HETATM   19  C   UNL     1      10.646  15.205  23.122  0.00  0.00     0.035 C 
HETATM   20  C   UNL     1      10.411  16.438  22.326  0.00  0.00     0.017 C 
HETATM   21  C   UNL     1      11.931  14.395  23.311  0.00  0.00     0.154 C 
HETATM   22  C   UNL     1      11.348  13.216  24.621  0.00  0.00     0.150 C 
HETATM   23  C   UNL     1      10.056  11.630  24.676  0.00  0.00     0.039 C 
HETATM   24  C   UNL     1       9.094   9.819  24.141  0.00  0.00    -0.012 C 
HETATM   25  C   UNL     1      10.861   9.781  23.429  0.00  0.00     0.010 C 
HETATM   26  C   UNL     1       7.596   8.283  23.656  0.00  0.00     0.049 C 
HETATM   27  C   UNL     1       5.838   6.951  23.647  0.00  0.00     0.019 C 
HETATM   28  C   UNL     1       4.518   6.735  24.686  0.00  0.00     0.203 C 
HETATM   29  O   UNL     1       4.711   5.861  25.551  0.00  0.00    -0.286 OA
HETATM   30  H   UNL     1       1.087   8.158  24.320  0.00  0.00     0.168 HD
ENDROOT
BRANCH   1  31
HETATM   31  N   UNL     1       4.257   3.778  22.723  0.00  0.00    -0.288 NA
HETATM   32  H   UNL     1       3.462   4.074  22.135  0.00  0.00     0.127 HD
BRANCH  31  33
HETATM   33  C   UNL     1       4.126   2.381  21.380  0.00  0.00     0.112 C 
BRANCH  33  34
HETATM   34  C   UNL     1       4.007   1.865  19.490  0.00  0.00     0.130 C 
BRANCH  34  35
HETATM   35  N   UNL     1       3.861   2.493  18.025  0.00  0.00    -0.420 N 
HETATM   36  C   UNL     1       2.525   2.639  17.453  0.00  0.00     0.142 C 
HETATM   37  C   UNL     1       4.678   3.651  17.633  0.00  0.00     0.142 C 
ENDBRANCH  34  35
ENDBRANCH  33  34
ENDBRANCH  31  33
ENDBRANCH   1  31
BRANCH  22  38
HETATM   38  O   UNL     1      12.257  14.000  25.858  0.00  0.00    -0.388 OA
HETATM   39  C   UNL     1      11.889  14.174  27.373  0.00  0.00     0.202 C 
ENDBRANCH  22  38
BRANCH  21  40
HETATM   40  O   UNL     1      12.628  14.145  22.077  0.00  0.00    -0.392 OA
HETATM   41  H   UNL     1      13.101  14.894  21.701  0.00  0.00     0.210 HD
ENDBRANCH  21  40
BRANCH  14  42
HETATM   42  O   UNL     1       5.955  13.250  23.244  0.00  0.00    -0.384 OA
HETATM   43  C   UNL     1       4.822  13.749  23.848  0.00  0.00     0.202 C 
ENDBRANCH  14  42
BRANCH  15  44
HETATM   44  O   UNL     1       8.231  11.814  22.294  0.00  0.00    -0.291 OA
BRANCH  44  45
HETATM   45  C   UNL     1       7.799  12.416  21.162  0.00  0.00     0.359 C 
HETATM   46  N   UNL     1       6.572  11.985  20.799  0.00  0.00    -0.346 N 
HETATM   47  H   UNL     1       5.956  11.452  21.389  0.00  0.00     0.161 HD
HETATM   48  H   UNL     1       6.334  12.198  19.841  0.00  0.00     0.161 HD
HETATM   49  O   UNL     1       8.431  13.132  20.401  0.00  0.00    -0.239 OA
ENDBRANCH  44  45
ENDBRANCH  15  44
TORSDOF 9
ENDMDL
MODEL 5
REMARK VINA RESULT:    -9.252      4.020     10.282
REMARK INTER + INTRA:          -9.939
REMARK INTER:                 -10.559
REMARK INTRA:                   0.619
REMARK UNBOUND:                 1.476
REMARK  9 active torsions:
REMARK  status: ('A' for Active; 'I' for Inactive)
REMARK    1  A    between atoms: N_2  and  C_4 
REMARK    2  A    between atoms: C_4  and  C_5 
REMARK    3  A    between atoms: C_5  and  N_6 
REMARK    4  A    between atoms: N_6  and  C_7 
REMARK    5  A    between atoms: C_20  and  O_21 
REMARK    6  A    between atoms: C_23  and  O_24 
REMARK    7  A    between atoms: O_24  and  C_25 
REMARK       I    between atoms: C_25  and  N_26 
REMARK    8  A    between atoms: C_33  and  O_34 
REMARK    9  A    between atoms: C_35  and  O_36 
ROOT
HETATM    1  C   UNL     1       8.344   4.405  21.218  0.00  0.00     0.066 C 
HETATM    2  C   UNL     1       7.131   2.975  21.421  0.00  0.00     0.182 C 
HETATM    3  O   UNL     1       6.848   2.153  20.537  0.00  0.00    -0.290 OA
HETATM    4  C   UNL     1       6.582   2.399  22.626  0.00  0.00     0.133 C 
HETATM    5  C   UNL     1       6.543   3.618  23.088  0.00  0.00     0.076 C 
HETATM    6  N   UNL     1       5.297   3.852  23.494  0.00  0.00    -0.326 N 
HETATM    7  C   UNL     1       5.320   4.872  24.305  0.00  0.00     0.232 C 
HETATM    8  O   UNL     1       6.077   5.004  25.247  0.00  0.00    -0.272 OA
HETATM    9  C   UNL     1       4.688   5.888  23.497  0.00  0.00     0.062 C 
HETATM   10  C   UNL     1       3.301   5.783  23.948  0.00  0.00     0.027 C 
HETATM   11  C   UNL     1       5.643   6.803  23.382  0.00  0.00     0.035 C 
HETATM   12  C   UNL     1       5.637   7.830  24.336  0.00  0.00    -0.021 C 
HETATM   13  C   UNL     1       6.031   8.975  23.828  0.00  0.00     0.004 C 
HETATM   14  C   UNL     1       5.333  10.187  24.257  0.00  0.00     0.177 C 
HETATM   15  C   UNL     1       6.027  11.317  23.638  0.00  0.00     0.194 C 
HETATM   16  C   UNL     1       5.543  12.670  24.013  0.00  0.00    -0.055 C 
HETATM   17  C   UNL     1       4.606  12.783  25.171  0.00  0.00     0.046 C 
HETATM   18  C   UNL     1       5.918  13.734  23.282  0.00  0.00    -0.015 C 
HETATM   19  C   UNL     1       5.921  15.069  23.903  0.00  0.00     0.035 C 
HETATM   20  C   UNL     1       4.719  15.855  23.519  0.00  0.00     0.017 C 
HETATM   21  C   UNL     1       7.404  15.431  23.780  0.00  0.00     0.154 C 
HETATM   22  C   UNL     1       8.135  14.001  24.712  0.00  0.00     0.150 C 
HETATM   23  C   UNL     1       8.348  11.996  24.362  0.00  0.00     0.039 C 
HETATM   24  C   UNL     1       8.796  10.180  23.366  0.00  0.00    -0.012 C 
HETATM   25  C   UNL     1       9.857  11.557  22.586  0.00  0.00     0.010 C 
HETATM   26  C   UNL     1       8.700   8.150  22.524  0.00  0.00     0.049 C 
HETATM   27  C   UNL     1       8.404   5.987  22.211  0.00  0.00     0.019 C 
HETATM   28  C   UNL     1       7.903   4.710  23.205  0.00  0.00     0.203 C 
HETATM   29  O   UNL     1       8.848   4.122  23.764  0.00  0.00    -0.286 OA
HETATM   30  H   UNL     1       4.486   3.228  23.447  0.00  0.00     0.168 HD
ENDROOT
BRANCH   1  31
HETATM   31  N   UNL     1       9.263   2.878  20.474  0.00  0.00    -0.288 NA
HETATM   32  H   UNL     1       8.868   3.132  19.555  0.00  0.00     0.127 HD
BRANCH  31  33
HETATM   33  C   UNL     1      10.658   2.388  19.214  0.00  0.00     0.112 C 
BRANCH  33  34
HETATM   34  C   UNL     1      12.493   2.616  18.556  0.00  0.00     0.130 C 
BRANCH  34  35
HETATM   35  N   UNL     1      13.339   2.689  17.199  0.00  0.00    -0.420 N 
HETATM   36  C   UNL     1      14.651   3.329  17.223  0.00  0.00     0.142 C 
HETATM   37  C   UNL     1      13.388   1.530  16.297  0.00  0.00     0.142 C 
ENDBRANCH  34  35
ENDBRANCH  33  34
ENDBRANCH  31  33
ENDBRANCH   1  31
BRANCH  22  38
HETATM   38  O   UNL     1       8.527  14.976  26.079  0.00  0.00    -0.388 OA
HETATM   39  C   UNL     1       9.946  15.406  26.591  0.00  0.00     0.202 C 
ENDBRANCH  22  38
BRANCH  21  40
HETATM   40  O   UNL     1       7.747  15.977  22.495  0.00  0.00    -0.392 OA
HETATM   41  H   UNL     1       7.205  15.686  21.754  0.00  0.00     0.210 HD
ENDBRANCH  21  40
BRANCH  14  42
HETATM   42  O   UNL     1       4.073  10.340  23.678  0.00  0.00    -0.384 OA
HETATM   43  C   UNL     1       3.100   9.774  24.473  0.00  0.00     0.202 C 
ENDBRANCH  14  42
BRANCH  15  44
HETATM   44  O   UNL     1       6.381  11.194  22.235  0.00  0.00    -0.291 OA
BRANCH  44  45
HETATM   45  C   UNL     1       5.343  11.113  21.372  0.00  0.00     0.359 C 
HETATM   46  N   UNL     1       5.256   9.893  20.800  0.00  0.00    -0.346 N 
HETATM   47  H   UNL     1       5.751   9.077  21.117  0.00  0.00     0.161 HD
HETATM   48  H   UNL     1       4.680   9.873  19.971  0.00  0.00     0.161 HD
HETATM   49  O   UNL     1       4.631  12.017  20.963  0.00  0.00    -0.239 OA
ENDBRANCH  44  45
ENDBRANCH  15  44
TORSDOF 9
ENDMDL
MODEL 6
REMARK VINA RESULT:    -9.019      2.612      3.621
REMARK INTER + INTRA:          -9.652
REMARK INTER:                 -10.036
REMARK INTRA:                   0.383
REMARK UNBOUND:                 1.476
REMARK  9 active torsions:
REMARK  status: ('A' for Active; 'I' for Inactive)
REMARK    1  A    between atoms: N_2  and  C_4 
REMARK    2  A    between atoms: C_4  and  C_5 
REMARK    3  A    between atoms: C_5  and  N_6 
REMARK    4  A    between atoms: N_6  and  C_7 
REMARK    5  A    between atoms: C_20  and  O_21 
REMARK    6  A    between atoms: C_23  and  O_24 
REMARK    7  A    between atoms: O_24  and  C_25 
REMARK       I    between atoms: C_25  and  N_26 
REMARK    8  A    between atoms: C_33  and  O_34 
REMARK    9  A    between atoms: C_35  and  O_36 
ROOT
HETATM    1  C   UNL     1       7.707  12.299  24.798  0.00  0.00     0.066 C 
HETATM    2  C   UNL     1       7.043  13.876  24.005  0.00  0.00     0.182 C 
HETATM    3  O   UNL     1       6.480  14.796  24.617  0.00  0.00    -0.290 OA
HETATM    4  C   UNL     1       7.317  14.436  22.702  0.00  0.00     0.133 C 
HETATM    5  C   UNL     1       7.322  13.205  22.271  0.00  0.00     0.076 C 
HETATM    6  N   UNL     1       6.457  13.132  21.260  0.00  0.00    -0.326 N 
HETATM    7  C   UNL     1       6.732  12.061  20.569  0.00  0.00     0.232 C 
HETATM    8  O   UNL     1       7.836  11.746  20.171  0.00  0.00    -0.272 OA
HETATM    9  C   UNL     1       5.609  11.216  20.901  0.00  0.00     0.062 C 
HETATM   10  C   UNL     1       4.707  11.495  19.784  0.00  0.00     0.027 C 
HETATM   11  C   UNL     1       6.192  10.180  21.491  0.00  0.00     0.035 C 
HETATM   12  C   UNL     1       6.515   9.096  20.663  0.00  0.00    -0.021 C 
HETATM   13  C   UNL     1       6.384   7.946  21.284  0.00  0.00     0.004 C 
HETATM   14  C   UNL     1       5.824   6.824  20.530  0.00  0.00     0.177 C 
HETATM   15  C   UNL     1       5.887   5.653  21.405  0.00  0.00     0.194 C 
HETATM   16  C   UNL     1       5.454   4.364  20.808  0.00  0.00    -0.055 C 
HETATM   17  C   UNL     1       5.262   4.306  19.327  0.00  0.00     0.046 C 
HETATM   18  C   UNL     1       5.203   3.313  21.609  0.00  0.00    -0.015 C 
HETATM   19  C   UNL     1       5.308   1.950  21.063  0.00  0.00     0.035 C 
HETATM   20  C   UNL     1       3.972   1.386  20.737  0.00  0.00     0.017 C 
HETATM   21  C   UNL     1       6.419   1.380  21.949  0.00  0.00     0.154 C 
HETATM   22  C   UNL     1       7.759   2.608  21.571  0.00  0.00     0.150 C 
HETATM   23  C   UNL     1       8.089   4.578  22.013  0.00  0.00     0.039 C 
HETATM   24  C   UNL     1       8.244   6.376  23.125  0.00  0.00    -0.012 C 
HETATM   25  C   UNL     1       8.488   4.918  24.326  0.00  0.00     0.010 C 
HETATM   26  C   UNL     1       8.062   8.456  23.819  0.00  0.00     0.049 C 
HETATM   27  C   UNL     1       8.015  10.656  23.963  0.00  0.00     0.019 C 
HETATM   28  C   UNL     1       8.334  11.915  22.875  0.00  0.00     0.203 C 
HETATM   29  O   UNL     1       9.514  12.310  22.913  0.00  0.00    -0.286 OA
HETATM   30  H   UNL     1       5.861  13.872  20.880  0.00  0.00     0.168 HD
ENDROOT
BRANCH   1  31
HETATM   31  N   UNL     1       8.339  13.722  25.941  0.00  0.00    -0.288 NA
HETATM   32  H   UNL     1       9.197  13.168  26.097  0.00  0.00     0.127 HD
BRANCH  31  33
HETATM   33  C   UNL     1       9.737  15.061  26.098  0.00  0.00     0.112 C 
BRANCH  33  34
HETATM   34  C   UNL     1      11.500  15.731  25.553  0.00  0.00     0.130 C 
BRANCH  34  35
HETATM   35  N   UNL     1      12.728  15.387  24.586  0.00  0.00    -0.420 N 
HETATM   36  C   UNL     1      14.076  15.359  25.146  0.00  0.00     0.142 C 
HETATM   37  C   UNL     1      12.603  14.318  23.585  0.00  0.00     0.142 C 
ENDBRANCH  34  35
ENDBRANCH  33  34
ENDBRANCH  31  33
ENDBRANCH   1  31
BRANCH  22  38
HETATM   38  O   UNL     1       8.641   1.484  20.606  0.00  0.00    -0.388 OA
HETATM   39  C   UNL     1       8.874   1.508  19.055  0.00  0.00     0.202 C 
ENDBRANCH  22  38
BRANCH  21  40
HETATM   40  O   UNL     1       5.938   0.887  23.211  0.00  0.00    -0.392 OA
HETATM   41  H   UNL     1       6.558   0.934  23.946  0.00  0.00     0.210 HD
ENDBRANCH  21  40
BRANCH  14  42
HETATM   42  O   UNL     1       4.443   6.908  20.349  0.00  0.00    -0.384 OA
HETATM   43  C   UNL     1       4.145   7.511  19.147  0.00  0.00     0.202 C 
ENDBRANCH  14  42
BRANCH  15  44
HETATM   44  O   UNL     1       5.465   5.827  22.784  0.00  0.00    -0.291 OA
BRANCH  44  45
HETATM   45  C   UNL     1       4.154   6.105  22.966  0.00  0.00     0.359 C 
HETATM   46  N   UNL     1       3.956   7.394  23.316  0.00  0.00    -0.346 N 
HETATM   47  H   UNL     1       4.650   8.118  23.246  0.00  0.00     0.161 HD
HETATM   48  H   UNL     1       3.046   7.570  23.716  0.00  0.00     0.161 HD
HETATM   49  O   UNL     1       3.217   5.323  23.007  0.00  0.00    -0.239 OA
ENDBRANCH  44  45
ENDBRANCH  15  44
TORSDOF 9
ENDMDL
MODEL 7
REMARK VINA RESULT:    -8.790      3.439     10.316
REMARK INTER + INTRA:          -9.369
REMARK INTER:                 -10.845
REMARK INTRA:                   1.476
REMARK UNBOUND:                 1.476
REMARK  9 active torsions:
REMARK  status: ('A' for Active; 'I' for Inactive)
REMARK    1  A    between atoms: N_2  and  C_4 
REMARK    2  A    between atoms: C_4  and  C_5 
REMARK    3  A    between atoms: C_5  and  N_6 
REMARK    4  A    between atoms: N_6  and  C_7 
REMARK    5  A    between atoms: C_20  and  O_21 
REMARK    6  A    between atoms: C_23  and  O_24 
REMARK    7  A    between atoms: O_24  and  C_25 
REMARK       I    between atoms: C_25  and  N_26 
REMARK    8  A    between atoms: C_33  and  O_34 
REMARK    9  A    between atoms: C_35  and  O_36 
ROOT
HETATM    1  C   UNL     1       8.581   4.470  21.683  0.00  0.00     0.066 C 
HETATM    2  C   UNL     1       7.248   3.585  20.686  0.00  0.00     0.182 C 
HETATM    3  O   UNL     1       7.463   2.714  19.829  0.00  0.00    -0.290 OA
HETATM    4  C   UNL     1       5.824   3.504  20.920  0.00  0.00     0.133 C 
HETATM    5  C   UNL     1       5.907   4.744  21.313  0.00  0.00     0.076 C 
HETATM    6  N   UNL     1       5.022   5.448  20.609  0.00  0.00    -0.326 N 
HETATM    7  C   UNL     1       4.798   6.566  21.242  0.00  0.00     0.232 C 
HETATM    8  O   UNL     1       4.534   6.664  22.423  0.00  0.00    -0.272 OA
HETATM    9  C   UNL     1       5.454   7.516  20.374  0.00  0.00     0.062 C 
HETATM   10  C   UNL     1       4.334   7.961  19.546  0.00  0.00     0.027 C 
HETATM   11  C   UNL     1       6.391   8.028  21.162  0.00  0.00     0.035 C 
HETATM   12  C   UNL     1       6.046   9.195  21.858  0.00  0.00    -0.021 C 
HETATM   13  C   UNL     1       7.068  10.008  21.994  0.00  0.00     0.004 C 
HETATM   14  C   UNL     1       6.822  11.443  21.850  0.00  0.00     0.177 C 
HETATM   15  C   UNL     1       8.082  12.121  22.152  0.00  0.00     0.194 C 
HETATM   16  C   UNL     1       8.044  13.606  22.161  0.00  0.00    -0.055 C 
HETATM   17  C   UNL     1       6.707  14.272  22.142  0.00  0.00     0.046 C 
HETATM   18  C   UNL     1       9.196  14.299  22.136  0.00  0.00    -0.015 C 
HETATM   19  C   UNL     1       9.223  15.669  22.674  0.00  0.00     0.035 C 
HETATM   20  C   UNL     1       9.168  16.684  21.589  0.00  0.00     0.017 C 
HETATM   21  C   UNL     1      10.241  15.504  23.806  0.00  0.00     0.154 C 
HETATM   22  C   UNL     1       9.389  14.171  24.777  0.00  0.00     0.150 C 
HETATM   23  C   UNL     1       9.021  12.178  24.495  0.00  0.00     0.039 C 
HETATM   24  C   UNL     1       9.340  10.136  24.027  0.00  0.00    -0.012 C 
HETATM   25  C   UNL     1      11.011  10.889  24.549  0.00  0.00     0.010 C 
HETATM   26  C   UNL     1       9.172   8.104  23.200  0.00  0.00     0.049 C 
HETATM   27  C   UNL     1       8.447   6.135  22.522  0.00  0.00     0.019 C 
HETATM   28  C   UNL     1       6.949   5.347  22.582  0.00  0.00     0.203 C 
HETATM   29  O   UNL     1       6.808   4.635  23.593  0.00  0.00    -0.286 OA
HETATM   30  H   UNL     1       4.394   5.119  19.871  0.00  0.00     0.168 HD
ENDROOT
BRANCH   1  31
HETATM   31  N   UNL     1       9.066   2.603  21.773  0.00  0.00    -0.288 NA
HETATM   32  H   UNL     1       8.888   2.545  20.758  0.00  0.00     0.127 HD
BRANCH  31  33
HETATM   33  C   UNL     1      10.387   1.327  21.140  0.00  0.00     0.112 C 
BRANCH  33  34
HETATM   34  C   UNL     1      11.915   0.917  19.979  0.00  0.00     0.130 C 
BRANCH  34  35
HETATM   35  N   UNL     1      13.027   1.626  19.073  0.00  0.00    -0.420 N 
HETATM   36  C   UNL     1      12.794   1.741  17.636  0.00  0.00     0.142 C 
HETATM   37  C   UNL     1      13.700   2.844  19.547  0.00  0.00     0.142 C 
ENDBRANCH  34  35
ENDBRANCH  33  34
ENDBRANCH  31  33
ENDBRANCH   1  31
BRANCH  22  38
HETATM   38  O   UNL     1       8.922  15.259  26.032  0.00  0.00    -0.388 OA
HETATM   39  C   UNL     1       9.701  15.621  27.343  0.00  0.00     0.202 C 
ENDBRANCH  22  38
BRANCH  21  40
HETATM   40  O   UNL     1      11.604  15.603  23.359  0.00  0.00    -0.392 OA
HETATM   41  H   UNL     1      11.731  15.702  22.409  0.00  0.00     0.210 HD
ENDBRANCH  21  40
BRANCH  14  42
HETATM   42  O   UNL     1       6.648  11.849  20.527  0.00  0.00    -0.384 OA
HETATM   43  C   UNL     1       5.354  11.619  20.113  0.00  0.00     0.202 C 
ENDBRANCH  14  42
BRANCH  15  44
HETATM   44  O   UNL     1       9.292  11.573  21.563  0.00  0.00    -0.291 OA
BRANCH  44  45
HETATM   45  C   UNL     1       9.791  12.255  20.506  0.00  0.00     0.359 C 
HETATM   46  N   UNL     1       8.965  12.207  19.440  0.00  0.00    -0.346 N 
HETATM   47  H   UNL     1       8.009  11.897  19.471  0.00  0.00     0.161 HD
HETATM   48  H   UNL     1       9.409  12.464  18.571  0.00  0.00     0.161 HD
HETATM   49  O   UNL     1      10.908  12.732  20.377  0.00  0.00    -0.239 OA
ENDBRANCH  44  45
ENDBRANCH  15  44
TORSDOF 9
ENDMDL
MODEL 8
REMARK VINA RESULT:    -8.655      3.504      6.493
REMARK INTER + INTRA:          -9.203
REMARK INTER:                  -9.638
REMARK INTRA:                   0.434
REMARK UNBOUND:                 1.476
REMARK  9 active torsions:
REMARK  status: ('A' for Active; 'I' for Inactive)
REMARK    1  A    between atoms: N_2  and  C_4 
REMARK    2  A    between atoms: C_4  and  C_5 
REMARK    3  A    between atoms: C_5  and  N_6 
REMARK    4  A    between atoms: N_6  and  C_7 
REMARK    5  A    between atoms: C_20  and  O_21 
REMARK    6  A    between atoms: C_23  and  O_24 
REMARK    7  A    between atoms: O_24  and  C_25 
REMARK       I    between atoms: C_25  and  N_26 
REMARK    8  A    between atoms: C_33  and  O_34 
REMARK    9  A    between atoms: C_35  and  O_36 
ROOT
HETATM    1  C   UNL     1       4.947  10.117  22.811  0.00  0.00     0.066 C 
HETATM    2  C   UNL     1       4.735  11.860  22.123  0.00  0.00     0.182 C 
HETATM    3  O   UNL     1       4.078  12.762  22.665  0.00  0.00    -0.290 OA
HETATM    4  C   UNL     1       5.486  12.540  21.094  0.00  0.00     0.133 C 
HETATM    5  C   UNL     1       5.531  11.387  20.487  0.00  0.00     0.076 C 
HETATM    6  N   UNL     1       5.061  11.565  19.253  0.00  0.00    -0.326 N 
HETATM    7  C   UNL     1       5.462  10.565  18.519  0.00  0.00     0.232 C 
HETATM    8  O   UNL     1       6.603  10.154  18.454  0.00  0.00    -0.272 OA
HETATM    9  C   UNL     1       4.224   9.849  18.321  0.00  0.00     0.062 C 
HETATM   10  C   UNL     1       3.787  10.392  17.035  0.00  0.00     0.027 C 
HETATM   11  C   UNL     1       4.477   8.674  18.884  0.00  0.00     0.035 C 
HETATM   12  C   UNL     1       4.969   7.672  18.037  0.00  0.00    -0.021 C 
HETATM   13  C   UNL     1       4.533   6.481  18.378  0.00  0.00     0.004 C 
HETATM   14  C   UNL     1       4.170   5.554  17.306  0.00  0.00     0.177 C 
HETATM   15  C   UNL     1       3.828   4.283  17.943  0.00  0.00     0.194 C 
HETATM   16  C   UNL     1       3.515   3.154  17.030  0.00  0.00    -0.055 C 
HETATM   17  C   UNL     1       3.837   3.315  15.579  0.00  0.00     0.046 C 
HETATM   18  C   UNL     1       2.914   2.054  17.517  0.00  0.00    -0.015 C 
HETATM   19  C   UNL     1       3.081   0.772  16.814  0.00  0.00     0.035 C 
HETATM   20  C   UNL     1       1.893   0.445  15.981  0.00  0.00     0.017 C 
HETATM   21  C   UNL     1       3.767  -0.057  17.902  0.00  0.00     0.154 C 
HETATM   22  C   UNL     1       5.256   1.012  18.193  0.00  0.00     0.150 C 
HETATM   23  C   UNL     1       5.586   2.843  19.043  0.00  0.00     0.039 C 
HETATM   24  C   UNL     1       5.506   4.443  20.431  0.00  0.00    -0.012 C 
HETATM   25  C   UNL     1       5.196   2.823  21.383  0.00  0.00     0.010 C 
HETATM   26  C   UNL     1       5.280   6.421  21.369  0.00  0.00     0.049 C 
HETATM   27  C   UNL     1       5.378   8.569  21.857  0.00  0.00     0.019 C 
HETATM   28  C   UNL     1       6.158   9.901  21.161  0.00  0.00     0.203 C 
HETATM   29  O   UNL     1       7.284  10.121  21.646  0.00  0.00    -0.286 OA
HETATM   30  H   UNL     1       4.699  12.424  18.830  0.00  0.00     0.168 HD
ENDROOT
BRANCH   1  31
HETATM   31  N   UNL     1       5.271  11.279  24.320  0.00  0.00    -0.288 NA
HETATM   32  H   UNL     1       5.929  10.570  24.680  0.00  0.00     0.127 HD
BRANCH  31  33
HETATM   33  C   UNL     1       6.660  12.327  25.183  0.00  0.00     0.112 C 
BRANCH  33  34
HETATM   34  C   UNL     1       8.560  12.789  25.359  0.00  0.00     0.130 C 
BRANCH  34  35
HETATM   35  N   UNL     1      10.008  12.118  25.473  0.00  0.00    -0.420 N 
HETATM   36  C   UNL     1      10.665  11.653  24.255  0.00  0.00     0.142 C 
HETATM   37  C   UNL     1      11.019  12.692  26.373  0.00  0.00     0.142 C 
ENDBRANCH  34  35
ENDBRANCH  33  34
ENDBRANCH  31  33
ENDBRANCH   1  31
BRANCH  22  38
HETATM   38  O   UNL     1       6.314  -0.089  17.392  0.00  0.00    -0.388 OA
HETATM   39  C   UNL     1       7.205   0.165  16.127  0.00  0.00     0.202 C 
ENDBRANCH  22  38
BRANCH  21  40
HETATM   40  O   UNL     1       2.841  -0.638  18.838  0.00  0.00    -0.392 OA
HETATM   41  H   UNL     1       3.183  -0.797  19.724  0.00  0.00     0.210 HD
ENDBRANCH  21  40
BRANCH  14  42
HETATM   42  O   UNL     1       2.947   5.851  16.703  0.00  0.00    -0.384 OA
HETATM   43  C   UNL     1       3.127   6.693  15.627  0.00  0.00     0.202 C 
ENDBRANCH  14  42
BRANCH  15  44
HETATM   44  O   UNL     1       2.976   4.334  19.118  0.00  0.00    -0.291 OA
BRANCH  44  45
HETATM   45  C   UNL     1       1.712   4.767  18.909  0.00  0.00     0.359 C 
HETATM   46  N   UNL     1       1.485   5.962  19.496  0.00  0.00    -0.346 N 
HETATM   47  H   UNL     1       2.203   6.565  19.861  0.00  0.00     0.161 HD
HETATM   48  H   UNL     1       0.506   6.187  19.594  0.00  0.00     0.161 HD
HETATM   49  O   UNL     1       0.776   4.153  18.421  0.00  0.00    -0.239 OA
ENDBRANCH  44  45
ENDBRANCH  15  44
TORSDOF 9
ENDMDL
