REMARK  9 active torsions:
REMARK  status: ('A' for Active; 'I' for Inactive)
REMARK    1  A    between atoms: N_2  and  C_4 
REMARK    2  A    between atoms: C_4  and  C_5 
REMARK    3  A    between atoms: C_5  and  N_6 
REMARK    4  A    between atoms: N_6  and  C_7 
REMARK    5  A    between atoms: C_20  and  O_21 
REMARK    6  A    between atoms: C_23  and  O_24 
REMARK    7  A    between atoms: O_24  and  C_25 
REMARK       I    between atoms: C_25  and  N_26 
REMARK    8  A    between atoms: C_33  and  O_34 
REMARK    9  A    between atoms: C_35  and  O_36 
ROOT
HETATM    1  C   UNL     1      10.957   0.122  -1.859  0.00  0.00     0.066 C 
HETATM    2  C   UNL     1       9.797   1.605  -1.755  0.00  0.00     0.182 C 
HETATM    3  O   UNL     1       8.652   1.646  -2.230  0.00  0.00    -0.290 OA
HETATM    4  C   UNL     1       9.866   2.769  -0.902  0.00  0.00     0.133 C 
HETATM    5  C   UNL     1      11.157   2.711  -1.074  0.00  0.00     0.076 C 
HETATM    6  N   UNL     1      11.556   3.903  -1.515  0.00  0.00    -0.326 N 
HETATM    7  C   UNL     1      12.840   4.001  -1.311  0.00  0.00     0.232 C 
HETATM    8  O   UNL     1      13.406   3.754  -0.265  0.00  0.00    -0.272 OA
HETATM    9  C   UNL     1      13.346   3.918  -2.661  0.00  0.00     0.062 C 
HETATM   10  C   UNL     1      13.468   5.335  -3.003  0.00  0.00     0.027 C 
HETATM   11  C   UNL     1      14.095   2.823  -2.622  0.00  0.00     0.035 C 
HETATM   12  C   UNL     1      15.453   3.010  -2.330  0.00  0.00    -0.021 C 
HETATM   13  C   UNL     1      16.217   2.157  -2.973  0.00  0.00     0.004 C 
HETATM   14  C   UNL     1      17.486   2.648  -3.510  0.00  0.00     0.177 C 
HETATM   15  C   UNL     1      18.183   1.492  -4.073  0.00  0.00     0.194 C 
HETATM   16  C   UNL     1      19.551   1.740  -4.596  0.00  0.00    -0.055 C 
HETATM   17  C   UNL     1      20.203   3.043  -4.263  0.00  0.00     0.046 C 
HETATM   18  C   UNL     1      20.137   0.821  -5.383  0.00  0.00    -0.015 C 
HETATM   19  C   UNL     1      21.606   0.771  -5.461  0.00  0.00     0.035 C 
HETATM   20  C   UNL     1      22.112   1.426  -6.696  0.00  0.00     0.017 C 
HETATM   21  C   UNL     1      21.866  -0.640  -4.928  0.00  0.00     0.154 C 
HETATM   22  C   UNL     1      21.056  -0.482  -3.265  0.00  0.00     0.150 C 
HETATM   23  C   UNL     1      19.128  -0.326  -2.598  0.00  0.00     0.039 C 
HETATM   24  C   UNL     1      17.057  -0.714  -2.370  0.00  0.00    -0.012 C 
HETATM   25  C   UNL     1      17.895  -2.319  -2.963  0.00  0.00     0.010 C 
HETATM   26  C   UNL     1      14.871  -0.513  -2.222  0.00  0.00     0.049 C 
HETATM   27  C   UNL     1      12.821   0.133  -1.728  0.00  0.00     0.019 C 
HETATM   28  C   UNL     1      12.174   1.333  -0.723  0.00  0.00     0.203 C 
HETATM   29  O   UNL     1      11.925   0.929   0.428  0.00  0.00    -0.286 OA
HETATM   30  H   UNL     1      10.985   4.728  -1.718  0.00  0.00     0.168 HD
ENDROOT
BRANCH   1  31
HETATM   31  N   UNL     1       9.261  -0.624  -1.314  0.00  0.00    -0.288 NA
HETATM   32  H   UNL     1       9.255   0.051  -0.533  0.00  0.00     0.127 HD
BRANCH  31  33
HETATM   33  C   UNL     1       7.383  -0.176  -1.098  0.00  0.00     0.112 C 
BRANCH  33  34
HETATM   34  C   UNL     1       5.518  -0.763  -0.928  0.00  0.00     0.130 C 
BRANCH  34  35
HETATM   35  N   UNL     1       4.544  -1.579   0.045  0.00  0.00    -0.420 N 
HETATM   36  C   UNL     1       4.516  -3.036  -0.049  0.00  0.00     0.142 C 
HETATM   37  C   UNL     1       4.412  -1.188   1.456  0.00  0.00     0.142 C 
ENDBRANCH  34  35
ENDBRANCH  33  34
ENDBRANCH  31  33
ENDBRANCH   1  31
BRANCH  22  38
HETATM   38  O   UNL     1      22.566  -0.433  -2.434  0.00  0.00    -0.388 OA
HETATM   39  C   UNL     1      23.561   0.771  -2.296  0.00  0.00     0.202 C 
ENDBRANCH  22  38
BRANCH  21  40
HETATM   40  O   UNL     1      21.732  -1.658  -5.935  0.00  0.00    -0.392 OA
HETATM   41  H   UNL     1      20.831  -1.881  -6.192  0.00  0.00     0.210 HD
ENDBRANCH  21  40
BRANCH  14  42
HETATM   42  O   UNL     1      17.342   3.420  -4.663  0.00  0.00    -0.384 OA
HETATM   43  C   UNL     1      16.568   4.532  -4.411  0.00  0.00     0.202 C 
ENDBRANCH  14  42
BRANCH  15  44
HETATM   44  O   UNL     1      17.405   0.577  -4.890  0.00  0.00    -0.291 OA
BRANCH  44  45
HETATM   45  C   UNL     1      17.441   0.804  -6.223  0.00  0.00     0.359 C 
HETATM   46  N   UNL     1      17.040  -0.275  -6.929  0.00  0.00    -0.346 N 
HETATM   47  H   UNL     1      16.571  -1.073  -6.536  0.00  0.00     0.161 HD
HETATM   48  H   UNL     1      17.303  -0.243  -7.903  0.00  0.00     0.161 HD
HETATM   49  O   UNL     1      17.923   1.759  -6.812  0.00  0.00    -0.239 OA
ENDBRANCH  44  45
ENDBRANCH  15  44
TORSDOF 9
