MODEL 1
REMARK VINA RESULT:    -7.875      0.000      0.000
REMARK INTER + INTRA:         -12.183
REMARK INTER:                 -11.124
REMARK INTRA:                  -1.059
REMARK UNBOUND:                -1.315
REMARK  7 active torsions:
REMARK  status: ('A' for Active; 'I' for Inactive)
REMARK    1  A    between atoms: C_2  and  C_4 
REMARK    2  A    between atoms: C_4  and  N_5 
REMARK       I    between atoms: N_5  and  C_7 
REMARK    3  A    between atoms: C_7  and  C_9 
REMARK    4  A    between atoms: C_16  and  C_20 
REMARK    5  A    between atoms: C_17  and  O_19 
REMARK       I    between atoms: C_20  and  N_22 
REMARK    6  A    between atoms: N_22  and  C_24 
REMARK    7  A    between atoms: C_27  and  N_30 
ROOT
HETATM    1  C   UNL     1       7.195  14.875  23.276  0.00  0.00     0.157 A 
HETATM    2  N   UNL     1       6.707  15.762  24.166  0.00  0.00    -0.168 NA
HETATM    3  N   UNL     1       5.384  15.531  24.189  0.00  0.00    -0.277 N 
HETATM    4  H   UNL     1       4.806  16.095  24.799  0.00  0.00     0.189 HD
HETATM    5  C   UNL     1       6.133  14.110  22.708  0.00  0.00     0.029 A 
HETATM    6  C   UNL     1       4.982  14.526  23.356  0.00  0.00     0.065 A 
HETATM    7  C   UNL     1       6.043  13.100  21.732  0.00  0.00     0.036 C 
HETATM    8  C   UNL     1       4.831  12.445  21.519  0.00  0.00     0.066 C 
HETATM    9  C   UNL     1       3.676  12.956  22.146  0.00  0.00     0.083 C 
HETATM   10  C   UNL     1       3.723  13.989  23.090  0.00  0.00     0.069 C 
ENDROOT
BRANCH   8  11
HETATM   11  C   UNL     1       4.720  11.311  20.559  0.00  0.00     0.260 C 
HETATM   12  O   UNL     1       3.994  11.572  19.596  0.00  0.00    -0.267 OA
HETATM   13  N   UNL     1       5.333  10.043  20.781  0.00  0.00    -0.318 N 
HETATM   14  C   UNL     1       5.919   9.592  22.053  0.00  0.00     0.159 C 
BRANCH  13  15
HETATM   15  C   UNL     1       5.136   8.992  19.799  0.00  0.00     0.037 A 
HETATM   16  C   UNL     1       5.569   9.131  18.480  0.00  0.00     0.032 A 
HETATM   17  C   UNL     1       5.270   8.165  17.512  0.00  0.00     0.031 A 
HETATM   18  C   UNL     1       4.538   7.009  17.807  0.00  0.00     0.030 A 
HETATM   19  C   UNL     1       4.203   6.822  19.150  0.00  0.00     0.031 A 
HETATM   20  C   UNL     1       4.495   7.789  20.127  0.00  0.00     0.032 A 
BRANCH  18  21
HETATM   21  N   UNL     1       4.164   6.128  16.817  0.00  0.00    -0.377 N 
HETATM   22  C   UNL     1       4.032   4.678  17.009  0.00  0.00     0.149 C 
HETATM   23  C   UNL     1       2.614   4.222  16.635  0.00  0.00     0.187 C 
HETATM   24  O   UNL     1       2.273   4.615  15.295  0.00  0.00    -0.388 OA
HETATM   25  C   UNL     1       2.324   6.045  15.173  0.00  0.00     0.187 C 
HETATM   26  C   UNL     1       3.719   6.606  15.496  0.00  0.00     0.149 C 
ENDBRANCH  18  21
ENDBRANCH  13  15
ENDBRANCH   8  11
BRANCH   9  27
HETATM   27  O   UNL     1       2.406  12.531  21.836  0.00  0.00    -0.360 OA
HETATM   28  H   UNL     1       1.786  13.207  22.195  0.00  0.00     0.217 HD
ENDBRANCH   9  27
BRANCH   1  29
HETATM   29  C   UNL     1       8.628  14.718  22.925  0.00  0.00     0.274 C 
HETATM   30  N   UNL     1       9.479  14.011  23.792  0.00  0.00    -0.351 N 
HETATM   31  C   UNL     1       9.014  13.306  24.977  0.00  0.00     0.153 C 
HETATM   32  O   UNL     1       9.050  15.173  21.864  0.00  0.00    -0.266 OA
BRANCH  30  33
HETATM   33  C   UNL     1      10.908  13.964  23.489  0.00  0.00     0.129 C 
BRANCH  33  34
HETATM   34  C   UNL     1      11.826  14.621  24.540  0.00  0.00    -0.005 C 
HETATM   35  C   UNL     1      13.298  14.615  24.129  0.00  0.00     0.011 C 
HETATM   36  C   UNL     1      11.381  16.036  24.907  0.00  0.00     0.011 C 
ENDBRANCH  33  34
ENDBRANCH  30  33
ENDBRANCH   1  29
TORSDOF 7
ENDMDL
MODEL 2
REMARK VINA RESULT:    -7.705      2.113      4.606
REMARK INTER + INTRA:         -11.948
REMARK INTER:                 -11.194
REMARK INTRA:                  -0.754
REMARK UNBOUND:                -1.315
REMARK  7 active torsions:
REMARK  status: ('A' for Active; 'I' for Inactive)
REMARK    1  A    between atoms: C_2  and  C_4 
REMARK    2  A    between atoms: C_4  and  N_5 
REMARK       I    between atoms: N_5  and  C_7 
REMARK    3  A    between atoms: C_7  and  C_9 
REMARK    4  A    between atoms: C_16  and  C_20 
REMARK    5  A    between atoms: C_17  and  O_19 
REMARK       I    between atoms: C_20  and  N_22 
REMARK    6  A    between atoms: N_22  and  C_24 
REMARK    7  A    between atoms: C_27  and  N_30 
ROOT
HETATM    1  C   UNL     1       5.861  14.857  23.353  0.00  0.00     0.157 A 
HETATM    2  N   UNL     1       6.779  15.671  23.911  0.00  0.00    -0.168 NA
HETATM    3  N   UNL     1       7.949  15.285  23.376  0.00  0.00    -0.277 N 
HETATM    4  H   UNL     1       8.792  15.767  23.661  0.00  0.00     0.189 HD
HETATM    5  C   UNL     1       6.496  13.919  22.484  0.00  0.00     0.029 A 
HETATM    6  C   UNL     1       7.839  14.256  22.486  0.00  0.00     0.065 A 
HETATM    7  C   UNL     1       6.059  12.843  21.689  0.00  0.00     0.036 C 
HETATM    8  C   UNL     1       6.950  12.214  20.822  0.00  0.00     0.066 C 
HETATM    9  C   UNL     1       8.319  12.540  20.916  0.00  0.00     0.083 C 
HETATM   10  C   UNL     1       8.793  13.576  21.730  0.00  0.00     0.069 C 
ENDROOT
BRANCH   8  11
HETATM   11  C   UNL     1       6.502  11.132  19.900  0.00  0.00     0.260 C 
HETATM   12  O   UNL     1       6.927  11.281  18.750  0.00  0.00    -0.267 OA
HETATM   13  N   UNL     1       5.619  10.087  20.299  0.00  0.00    -0.318 N 
HETATM   14  C   UNL     1       4.838  10.063  21.546  0.00  0.00     0.159 C 
BRANCH  13  15
HETATM   15  C   UNL     1       5.217   9.099  19.314  0.00  0.00     0.037 A 
HETATM   16  C   UNL     1       4.273   9.389  18.329  0.00  0.00     0.032 A 
HETATM   17  C   UNL     1       3.802   8.397  17.459  0.00  0.00     0.031 A 
HETATM   18  C   UNL     1       4.256   7.074  17.516  0.00  0.00     0.030 A 
HETATM   19  C   UNL     1       5.279   6.816  18.430  0.00  0.00     0.031 A 
HETATM   20  C   UNL     1       5.753   7.804  19.310  0.00  0.00     0.032 A 
BRANCH  18  21
HETATM   21  N   UNL     1       3.700   6.094  16.724  0.00  0.00    -0.377 N 
HETATM   22  C   UNL     1       3.232   4.796  17.223  0.00  0.00     0.149 C 
HETATM   23  C   UNL     1       1.752   4.593  16.867  0.00  0.00     0.187 C 
HETATM   24  O   UNL     1       1.529   4.732  15.454  0.00  0.00    -0.388 OA
HETATM   25  C   UNL     1       1.912   6.047  15.022  0.00  0.00     0.187 C 
HETATM   26  C   UNL     1       3.395   6.341  15.303  0.00  0.00     0.149 C 
ENDBRANCH  18  21
ENDBRANCH  13  15
ENDBRANCH   8  11
BRANCH   9  27
HETATM   27  O   UNL     1       9.303  11.829  20.273  0.00  0.00    -0.360 OA
HETATM   28  H   UNL     1       9.506  12.317  19.441  0.00  0.00     0.217 HD
ENDBRANCH   9  27
BRANCH   1  29
HETATM   29  C   UNL     1       4.400  14.916  23.607  0.00  0.00     0.274 C 
HETATM   30  N   UNL     1       3.773  13.860  24.289  0.00  0.00    -0.351 N 
HETATM   31  C   UNL     1       4.496  12.744  24.881  0.00  0.00     0.153 C 
HETATM   32  O   UNL     1       3.758  15.903  23.252  0.00  0.00    -0.266 OA
BRANCH  30  33
HETATM   33  C   UNL     1       2.318  13.879  24.429  0.00  0.00     0.129 C 
BRANCH  33  34
HETATM   34  C   UNL     1       1.554  12.913  23.503  0.00  0.00    -0.005 C 
HETATM   35  C   UNL     1       0.038  13.081  23.590  0.00  0.00     0.011 C 
HETATM   36  C   UNL     1       2.017  13.002  22.049  0.00  0.00     0.011 C 
ENDBRANCH  33  34
ENDBRANCH  30  33
ENDBRANCH   1  29
TORSDOF 7
ENDMDL
MODEL 3
REMARK VINA RESULT:    -7.391      4.695      6.746
REMARK INTER + INTRA:         -11.515
REMARK INTER:                 -10.300
REMARK INTRA:                  -1.214
REMARK UNBOUND:                -1.315
REMARK  7 active torsions:
REMARK  status: ('A' for Active; 'I' for Inactive)
REMARK    1  A    between atoms: C_2  and  C_4 
REMARK    2  A    between atoms: C_4  and  N_5 
REMARK       I    between atoms: N_5  and  C_7 
REMARK    3  A    between atoms: C_7  and  C_9 
REMARK    4  A    between atoms: C_16  and  C_20 
REMARK    5  A    between atoms: C_17  and  O_19 
REMARK       I    between atoms: C_20  and  N_22 
REMARK    6  A    between atoms: N_22  and  C_24 
REMARK    7  A    between atoms: C_27  and  N_30 
ROOT
HETATM    1  C   UNL     1      10.008  13.794  23.974  0.00  0.00     0.157 A 
HETATM    2  N   UNL     1      10.438  14.731  23.106  0.00  0.00    -0.168 NA
HETATM    3  N   UNL     1       9.368  15.008  22.343  0.00  0.00    -0.277 N 
HETATM    4  H   UNL     1       9.465  15.696  21.607  0.00  0.00     0.189 HD
HETATM    5  C   UNL     1       8.648  13.458  23.704  0.00  0.00     0.029 A 
HETATM    6  C   UNL     1       8.251  14.296  22.675  0.00  0.00     0.065 A 
HETATM    7  C   UNL     1       7.719  12.548  24.244  0.00  0.00     0.036 C 
HETATM    8  C   UNL     1       6.389  12.586  23.831  0.00  0.00     0.066 C 
HETATM    9  C   UNL     1       6.053  13.401  22.730  0.00  0.00     0.083 C 
HETATM   10  C   UNL     1       6.964  14.286  22.141  0.00  0.00     0.069 C 
ENDROOT
BRANCH   8  11
HETATM   11  C   UNL     1       5.360  11.700  24.446  0.00  0.00     0.260 C 
HETATM   12  O   UNL     1       4.936  12.137  25.519  0.00  0.00    -0.267 OA
HETATM   13  N   UNL     1       4.973  10.450  23.880  0.00  0.00    -0.318 N 
HETATM   14  C   UNL     1       5.684   9.749  22.799  0.00  0.00     0.159 C 
BRANCH  13  15
HETATM   15  C   UNL     1       3.985   9.646  24.575  0.00  0.00     0.037 A 
HETATM   16  C   UNL     1       2.620   9.789  24.330  0.00  0.00     0.032 A 
HETATM   17  C   UNL     1       1.668   9.097  25.090  0.00  0.00     0.031 A 
HETATM   18  C   UNL     1       2.026   8.218  26.119  0.00  0.00     0.030 A 
HETATM   19  C   UNL     1       3.394   7.995  26.286  0.00  0.00     0.031 A 
HETATM   20  C   UNL     1       4.355   8.690  25.532  0.00  0.00     0.032 A 
BRANCH  18  21
HETATM   21  N   UNL     1       1.072   7.633  26.921  0.00  0.00    -0.377 N 
HETATM   22  C   UNL     1       1.377   6.808  28.097  0.00  0.00     0.149 C 
HETATM   23  C   UNL     1       0.700   7.394  29.344  0.00  0.00     0.187 C 
HETATM   24  O   UNL     1      -0.716   7.544  29.152  0.00  0.00    -0.388 OA
HETATM   25  C   UNL     1      -0.972   8.432  28.052  0.00  0.00     0.187 C 
HETATM   26  C   UNL     1      -0.362   7.917  26.737  0.00  0.00     0.149 C 
ENDBRANCH  18  21
ENDBRANCH  13  15
ENDBRANCH   8  11
BRANCH   9  27
HETATM   27  O   UNL     1       4.831  13.346  22.104  0.00  0.00    -0.360 OA
HETATM   28  H   UNL     1       5.011  13.287  21.137  0.00  0.00     0.217 HD
ENDBRANCH   9  27
BRANCH   1  29
HETATM   29  C   UNL     1      10.828  13.187  25.052  0.00  0.00     0.274 C 
HETATM   30  N   UNL     1      11.042  13.900  26.243  0.00  0.00    -0.351 N 
HETATM   31  C   UNL     1      10.400  15.171  26.545  0.00  0.00     0.153 C 
HETATM   32  O   UNL     1      11.282  12.053  24.909  0.00  0.00    -0.266 OA
BRANCH  30  33
HETATM   33  C   UNL     1      11.945  13.338  27.246  0.00  0.00     0.129 C 
BRANCH  33  34
HETATM   34  C   UNL     1      13.426  13.742  27.099  0.00  0.00    -0.005 C 
HETATM   35  C   UNL     1      13.956  14.505  28.312  0.00  0.00     0.011 C 
HETATM   36  C   UNL     1      14.330  12.552  26.781  0.00  0.00     0.011 C 
ENDBRANCH  33  34
ENDBRANCH  30  33
ENDBRANCH   1  29
TORSDOF 7
ENDMDL
MODEL 4
REMARK VINA RESULT:    -7.391      2.537      9.880
REMARK INTER + INTRA:         -11.514
REMARK INTER:                 -10.395
REMARK INTRA:                  -1.120
REMARK UNBOUND:                -1.315
REMARK  7 active torsions:
REMARK  status: ('A' for Active; 'I' for Inactive)
REMARK    1  A    between atoms: C_2  and  C_4 
REMARK    2  A    between atoms: C_4  and  N_5 
REMARK       I    between atoms: N_5  and  C_7 
REMARK    3  A    between atoms: C_7  and  C_9 
REMARK    4  A    between atoms: C_16  and  C_20 
REMARK    5  A    between atoms: C_17  and  O_19 
REMARK       I    between atoms: C_20  and  N_22 
REMARK    6  A    between atoms: N_22  and  C_24 
REMARK    7  A    between atoms: C_27  and  N_30 
ROOT
HETATM    1  C   UNL     1       5.017   6.130  18.110  0.00  0.00     0.157 A 
HETATM    2  N   UNL     1       4.132   5.716  17.181  0.00  0.00    -0.168 NA
HETATM    3  N   UNL     1       3.633   6.848  16.657  0.00  0.00    -0.277 N 
HETATM    4  H   UNL     1       2.934   6.774  15.927  0.00  0.00     0.189 HD
HETATM    5  C   UNL     1       5.026   7.555  18.184  0.00  0.00     0.029 A 
HETATM    6  C   UNL     1       4.155   7.987  17.197  0.00  0.00     0.065 A 
HETATM    7  C   UNL     1       5.698   8.508  18.971  0.00  0.00     0.036 C 
HETATM    8  C   UNL     1       5.583   9.864  18.670  0.00  0.00     0.066 C 
HETATM    9  C   UNL     1       4.628  10.256  17.709  0.00  0.00     0.083 C 
HETATM   10  C   UNL     1       3.909   9.335  16.939  0.00  0.00     0.069 C 
ENDROOT
BRANCH   8  11
HETATM   11  C   UNL     1       6.351  10.894  19.424  0.00  0.00     0.260 C 
HETATM   12  O   UNL     1       7.243  11.412  18.746  0.00  0.00    -0.267 OA
HETATM   13  N   UNL     1       6.118  11.186  20.799  0.00  0.00    -0.318 N 
HETATM   14  C   UNL     1       5.304  10.371  21.716  0.00  0.00     0.159 C 
BRANCH  13  15
HETATM   15  C   UNL     1       6.945  12.186  21.450  0.00  0.00     0.037 A 
HETATM   16  C   UNL     1       8.260  11.916  21.827  0.00  0.00     0.032 A 
HETATM   17  C   UNL     1       9.010  12.844  22.561  0.00  0.00     0.031 A 
HETATM   18  C   UNL     1       8.496  14.088  22.944  0.00  0.00     0.030 A 
HETATM   19  C   UNL     1       7.220  14.396  22.470  0.00  0.00     0.031 A 
HETATM   20  C   UNL     1       6.458  13.469  21.738  0.00  0.00     0.032 A 
BRANCH  18  21
HETATM   21  N   UNL     1       9.214  14.937  23.757  0.00  0.00    -0.377 N 
HETATM   22  C   UNL     1       9.055  15.015  25.214  0.00  0.00     0.149 C 
HETATM   23  C   UNL     1      10.399  14.749  25.908  0.00  0.00     0.187 C 
HETATM   24  O   UNL     1      11.420  15.643  25.436  0.00  0.00    -0.388 OA
HETATM   25  C   UNL     1      11.610  15.470  24.023  0.00  0.00     0.187 C 
HETATM   26  C   UNL     1      10.325  15.747  23.225  0.00  0.00     0.149 C 
ENDBRANCH  18  21
ENDBRANCH  13  15
ENDBRANCH   8  11
BRANCH   9  27
HETATM   27  O   UNL     1       4.276  11.568  17.497  0.00  0.00    -0.360 OA
HETATM   28  H   UNL     1       3.537  11.767  18.120  0.00  0.00     0.217 HD
ENDBRANCH   9  27
BRANCH   1  29
HETATM   29  C   UNL     1       5.857   5.237  18.946  0.00  0.00     0.274 C 
HETATM   30  N   UNL     1       5.563   5.088  20.311  0.00  0.00    -0.351 N 
HETATM   31  C   UNL     1       4.391   5.670  20.949  0.00  0.00     0.153 C 
HETATM   32  O   UNL     1       6.780   4.608  18.430  0.00  0.00    -0.266 OA
BRANCH  30  33
HETATM   33  C   UNL     1       6.468   4.297  21.143  0.00  0.00     0.129 C 
BRANCH  33  34
HETATM   34  C   UNL     1       7.292   5.101  22.169  0.00  0.00    -0.005 C 
HETATM   35  C   UNL     1       8.322   4.245  22.905  0.00  0.00     0.011 C 
HETATM   36  C   UNL     1       7.962   6.328  21.553  0.00  0.00     0.011 C 
ENDBRANCH  33  34
ENDBRANCH  30  33
ENDBRANCH   1  29
TORSDOF 7
ENDMDL
MODEL 5
REMARK VINA RESULT:    -7.322      2.436      9.970
REMARK INTER + INTRA:         -11.420
REMARK INTER:                 -10.167
REMARK INTRA:                  -1.253
REMARK UNBOUND:                -1.315
REMARK  7 active torsions:
REMARK  status: ('A' for Active; 'I' for Inactive)
REMARK    1  A    between atoms: C_2  and  C_4 
REMARK    2  A    between atoms: C_4  and  N_5 
REMARK       I    between atoms: N_5  and  C_7 
REMARK    3  A    between atoms: C_7  and  C_9 
REMARK    4  A    between atoms: C_16  and  C_20 
REMARK    5  A    between atoms: C_17  and  O_19 
REMARK       I    between atoms: C_20  and  N_22 
REMARK    6  A    between atoms: N_22  and  C_24 
REMARK    7  A    between atoms: C_27  and  N_30 
ROOT
HETATM    1  C   UNL     1       4.751   5.957  17.806  0.00  0.00     0.157 A 
HETATM    2  N   UNL     1       3.938   5.598  16.792  0.00  0.00    -0.168 NA
HETATM    3  N   UNL     1       3.523   6.759  16.259  0.00  0.00    -0.277 N 
HETATM    4  H   UNL     1       2.889   6.728  15.471  0.00  0.00     0.189 HD
HETATM    5  C   UNL     1       4.799   7.378  17.921  0.00  0.00     0.029 A 
HETATM    6  C   UNL     1       4.032   7.866  16.876  0.00  0.00     0.065 A 
HETATM    7  C   UNL     1       5.430   8.287  18.791  0.00  0.00     0.036 C 
HETATM    8  C   UNL     1       5.384   9.653  18.521  0.00  0.00     0.066 C 
HETATM    9  C   UNL     1       4.529  10.103  17.493  0.00  0.00     0.083 C 
HETATM   10  C   UNL     1       3.852   9.227  16.636  0.00  0.00     0.069 C 
ENDROOT
BRANCH   8  11
HETATM   11  C   UNL     1       6.116  10.637  19.368  0.00  0.00     0.260 C 
HETATM   12  O   UNL     1       7.035  11.195  18.761  0.00  0.00    -0.267 OA
HETATM   13  N   UNL     1       5.822  10.845  20.747  0.00  0.00    -0.318 N 
HETATM   14  C   UNL     1       4.972   9.976  21.576  0.00  0.00     0.159 C 
BRANCH  13  15
HETATM   15  C   UNL     1       6.617  11.804  21.492  0.00  0.00     0.037 A 
HETATM   16  C   UNL     1       6.216  13.132  21.637  0.00  0.00     0.032 A 
HETATM   17  C   UNL     1       7.045  14.078  22.254  0.00  0.00     0.031 A 
HETATM   18  C   UNL     1       8.304  13.749  22.768  0.00  0.00     0.030 A 
HETATM   19  C   UNL     1       8.652  12.398  22.719  0.00  0.00     0.031 A 
HETATM   20  C   UNL     1       7.829  11.443  22.097  0.00  0.00     0.032 A 
BRANCH  18  21
HETATM   21  N   UNL     1       9.144  14.716  23.272  0.00  0.00    -0.377 N 
HETATM   22  C   UNL     1       9.337  14.977  24.704  0.00  0.00     0.149 C 
HETATM   23  C   UNL     1      10.822  14.842  25.072  0.00  0.00     0.187 C 
HETATM   24  O   UNL     1      11.643  15.698  24.260  0.00  0.00    -0.388 OA
HETATM   25  C   UNL     1      11.497  15.349  22.874  0.00  0.00     0.187 C 
HETATM   26  C   UNL     1      10.043  15.484  22.392  0.00  0.00     0.149 C 
ENDBRANCH  18  21
ENDBRANCH  13  15
ENDBRANCH   8  11
BRANCH   9  27
HETATM   27  O   UNL     1       4.239  11.431  17.289  0.00  0.00    -0.360 OA
HETATM   28  H   UNL     1       3.389  11.461  16.791  0.00  0.00     0.217 HD
ENDBRANCH   9  27
BRANCH   1  29
HETATM   29  C   UNL     1       5.487   5.014  18.685  0.00  0.00     0.274 C 
HETATM   30  N   UNL     1       4.966   4.699  19.951  0.00  0.00    -0.351 N 
HETATM   31  C   UNL     1       3.665   5.152  20.421  0.00  0.00     0.153 C 
HETATM   32  O   UNL     1       6.524   4.489  18.284  0.00  0.00    -0.266 OA
BRANCH  30  33
HETATM   33  C   UNL     1       5.760   3.861  20.848  0.00  0.00     0.129 C 
BRANCH  33  34
HETATM   34  C   UNL     1       6.329   4.579  22.089  0.00  0.00    -0.005 C 
HETATM   35  C   UNL     1       6.834   3.609  23.156  0.00  0.00     0.011 C 
HETATM   36  C   UNL     1       7.415   5.593  21.734  0.00  0.00     0.011 C 
ENDBRANCH  33  34
ENDBRANCH  30  33
ENDBRANCH   1  29
TORSDOF 7
ENDMDL
MODEL 6
REMARK VINA RESULT:    -7.297      4.758      6.717
REMARK INTER + INTRA:         -11.385
REMARK INTER:                 -10.101
REMARK INTRA:                  -1.284
REMARK UNBOUND:                -1.315
REMARK  7 active torsions:
REMARK  status: ('A' for Active; 'I' for Inactive)
REMARK    1  A    between atoms: C_2  and  C_4 
REMARK    2  A    between atoms: C_4  and  N_5 
REMARK       I    between atoms: N_5  and  C_7 
REMARK    3  A    between atoms: C_7  and  C_9 
REMARK    4  A    between atoms: C_16  and  C_20 
REMARK    5  A    between atoms: C_17  and  O_19 
REMARK       I    between atoms: C_20  and  N_22 
REMARK    6  A    between atoms: N_22  and  C_24 
REMARK    7  A    between atoms: C_27  and  N_30 
ROOT
HETATM    1  C   UNL     1       9.663  12.210  21.824  0.00  0.00     0.157 A 
HETATM    2  N   UNL     1      10.049  12.802  20.676  0.00  0.00    -0.168 NA
HETATM    3  N   UNL     1       9.016  12.625  19.836  0.00  0.00    -0.277 N 
HETATM    4  H   UNL     1       9.090  12.993  18.896  0.00  0.00     0.189 HD
HETATM    5  C   UNL     1       8.375  11.619  21.666  0.00  0.00     0.029 A 
HETATM    6  C   UNL     1       7.965  11.947  20.384  0.00  0.00     0.065 A 
HETATM    7  C   UNL     1       7.517  10.862  22.487  0.00  0.00     0.036 C 
HETATM    8  C   UNL     1       6.227  10.563  22.055  0.00  0.00     0.066 C 
HETATM    9  C   UNL     1       5.886  10.852  20.717  0.00  0.00     0.083 C 
HETATM   10  C   UNL     1       6.732  11.564  19.859  0.00  0.00     0.069 C 
ENDROOT
BRANCH   8  11
HETATM   11  C   UNL     1       5.262   9.843  22.933  0.00  0.00     0.260 C 
HETATM   12  O   UNL     1       5.096   8.668  22.594  0.00  0.00    -0.267 OA
HETATM   13  N   UNL     1       4.559  10.476  23.999  0.00  0.00    -0.318 N 
HETATM   14  C   UNL     1       4.479  11.929  24.220  0.00  0.00     0.159 C 
BRANCH  13  15
HETATM   15  C   UNL     1       3.615   9.693  24.775  0.00  0.00     0.037 A 
HETATM   16  C   UNL     1       4.024   8.917  25.859  0.00  0.00     0.032 A 
HETATM   17  C   UNL     1       3.128   8.072  26.527  0.00  0.00     0.031 A 
HETATM   18  C   UNL     1       1.782   7.967  26.160  0.00  0.00     0.030 A 
HETATM   19  C   UNL     1       1.354   8.827  25.147  0.00  0.00     0.031 A 
HETATM   20  C   UNL     1       2.247   9.674  24.468  0.00  0.00     0.032 A 
BRANCH  18  21
HETATM   21  N   UNL     1       0.948   7.051  26.761  0.00  0.00    -0.377 N 
HETATM   22  C   UNL     1       1.414   5.900  27.543  0.00  0.00     0.149 C 
HETATM   23  C   UNL     1       0.821   5.946  28.959  0.00  0.00     0.187 C 
HETATM   24  O   UNL     1      -0.614   6.020  28.925  0.00  0.00    -0.388 OA
HETATM   25  C   UNL     1      -1.029   7.208  28.232  0.00  0.00     0.187 C 
HETATM   26  C   UNL     1      -0.513   7.246  26.783  0.00  0.00     0.149 C 
ENDBRANCH  18  21
ENDBRANCH  13  15
ENDBRANCH   8  11
BRANCH   9  27
HETATM   27  O   UNL     1       4.729  10.402  20.127  0.00  0.00    -0.360 OA
HETATM   28  H   UNL     1       4.857   9.440  19.951  0.00  0.00     0.217 HD
ENDBRANCH   9  27
BRANCH   1  29
HETATM   29  C   UNL     1      10.462  12.169  23.074  0.00  0.00     0.274 C 
HETATM   30  N   UNL     1      10.569  13.325  23.865  0.00  0.00    -0.351 N 
HETATM   31  C   UNL     1       9.835  14.553  23.598  0.00  0.00     0.153 C 
HETATM   32  O   UNL     1      10.993  11.117  23.425  0.00  0.00    -0.266 OA
BRANCH  30  33
HETATM   33  C   UNL     1      11.452  13.300  25.030  0.00  0.00     0.129 C 
BRANCH  33  34
HETATM   34  C   UNL     1      11.675  14.662  25.717  0.00  0.00    -0.005 C 
HETATM   35  C   UNL     1      11.439  14.612  27.226  0.00  0.00     0.011 C 
HETATM   36  C   UNL     1      13.049  15.257  25.412  0.00  0.00     0.011 C 
ENDBRANCH  33  34
ENDBRANCH  30  33
ENDBRANCH   1  29
TORSDOF 7
ENDMDL
MODEL 7
REMARK VINA RESULT:    -7.256      1.177      1.676
REMARK INTER + INTRA:         -11.328
REMARK INTER:                 -10.395
REMARK INTRA:                  -0.933
REMARK UNBOUND:                -1.315
REMARK  7 active torsions:
REMARK  status: ('A' for Active; 'I' for Inactive)
REMARK    1  A    between atoms: C_2  and  C_4 
REMARK    2  A    between atoms: C_4  and  N_5 
REMARK       I    between atoms: N_5  and  C_7 
REMARK    3  A    between atoms: C_7  and  C_9 
REMARK    4  A    between atoms: C_16  and  C_20 
REMARK    5  A    between atoms: C_17  and  O_19 
REMARK       I    between atoms: C_20  and  N_22 
REMARK    6  A    between atoms: N_22  and  C_24 
REMARK    7  A    between atoms: C_27  and  N_30 
ROOT
HETATM    1  C   UNL     1       7.169  15.018  23.039  0.00  0.00     0.157 A 
HETATM    2  N   UNL     1       6.640  16.008  23.786  0.00  0.00    -0.168 NA
HETATM    3  N   UNL     1       5.321  15.752  23.808  0.00  0.00    -0.277 N 
HETATM    4  H   UNL     1       4.716  16.383  24.319  0.00  0.00     0.189 HD
HETATM    5  C   UNL     1       6.137  14.157  22.558  0.00  0.00     0.029 A 
HETATM    6  C   UNL     1       4.961  14.633  23.114  0.00  0.00     0.065 A 
HETATM    7  C   UNL     1       6.093  13.019  21.731  0.00  0.00     0.036 C 
HETATM    8  C   UNL     1       4.901  12.314  21.582  0.00  0.00     0.066 C 
HETATM    9  C   UNL     1       3.719  12.881  22.104  0.00  0.00     0.083 C 
HETATM   10  C   UNL     1       3.721  14.036  22.895  0.00  0.00     0.069 C 
ENDROOT
BRANCH   8  11
HETATM   11  C   UNL     1       4.838  11.055  20.788  0.00  0.00     0.260 C 
HETATM   12  O   UNL     1       4.273  11.207  19.701  0.00  0.00    -0.267 OA
HETATM   13  N   UNL     1       5.316   9.804  21.275  0.00  0.00    -0.318 N 
HETATM   14  C   UNL     1       5.686   9.520  22.671  0.00  0.00     0.159 C 
BRANCH  13  15
HETATM   15  C   UNL     1       5.178   8.629  20.434  0.00  0.00     0.037 A 
HETATM   16  C   UNL     1       4.650   7.435  20.925  0.00  0.00     0.032 A 
HETATM   17  C   UNL     1       4.631   6.273  20.144  0.00  0.00     0.031 A 
HETATM   18  C   UNL     1       5.122   6.243  18.833  0.00  0.00     0.030 A 
HETATM   19  C   UNL     1       5.547   7.466  18.310  0.00  0.00     0.031 A 
HETATM   20  C   UNL     1       5.575   8.635  19.090  0.00  0.00     0.032 A 
BRANCH  18  21
HETATM   21  N   UNL     1       5.192   5.065  18.124  0.00  0.00    -0.377 N 
HETATM   22  C   UNL     1       6.228   4.043  18.320  0.00  0.00     0.149 C 
HETATM   23  C   UNL     1       5.582   2.693  18.664  0.00  0.00     0.187 C 
HETATM   24  O   UNL     1       4.629   2.298  17.663  0.00  0.00    -0.388 OA
HETATM   25  C   UNL     1       3.582   3.277  17.567  0.00  0.00     0.187 C 
HETATM   26  C   UNL     1       4.121   4.668  17.192  0.00  0.00     0.149 C 
ENDBRANCH  18  21
ENDBRANCH  13  15
ENDBRANCH   8  11
BRANCH   9  27
HETATM   27  O   UNL     1       2.467  12.387  21.825  0.00  0.00    -0.360 OA
HETATM   28  H   UNL     1       2.593  11.470  21.486  0.00  0.00     0.217 HD
ENDBRANCH   9  27
BRANCH   1  29
HETATM   29  C   UNL     1       8.613  14.846  22.749  0.00  0.00     0.274 C 
HETATM   30  N   UNL     1       9.412  14.098  23.630  0.00  0.00    -0.351 N 
HETATM   31  C   UNL     1       8.882  13.364  24.769  0.00  0.00     0.153 C 
HETATM   32  O   UNL     1       9.091  15.327  21.723  0.00  0.00    -0.266 OA
BRANCH  30  33
HETATM   33  C   UNL     1      10.853  14.034  23.391  0.00  0.00     0.129 C 
BRANCH  33  34
HETATM   34  C   UNL     1      11.731  14.665  24.491  0.00  0.00    -0.005 C 
HETATM   35  C   UNL     1      13.210  14.719  24.111  0.00  0.00     0.011 C 
HETATM   36  C   UNL     1      11.240  16.048  24.915  0.00  0.00     0.011 C 
ENDBRANCH  33  34
ENDBRANCH  30  33
ENDBRANCH   1  29
TORSDOF 7
ENDMDL
MODEL 8
REMARK VINA RESULT:    -7.174      5.400      9.443
REMARK INTER + INTRA:         -11.215
REMARK INTER:                  -9.900
REMARK INTRA:                  -1.315
REMARK UNBOUND:                -1.315
REMARK  7 active torsions:
REMARK  status: ('A' for Active; 'I' for Inactive)
REMARK    1  A    between atoms: C_2  and  C_4 
REMARK    2  A    between atoms: C_4  and  N_5 
REMARK       I    between atoms: N_5  and  C_7 
REMARK    3  A    between atoms: C_7  and  C_9 
REMARK    4  A    between atoms: C_16  and  C_20 
REMARK    5  A    between atoms: C_17  and  O_19 
REMARK       I    between atoms: C_20  and  N_22 
REMARK    6  A    between atoms: N_22  and  C_24 
REMARK    7  A    between atoms: C_27  and  N_30 
ROOT
HETATM    1  C   UNL     1       5.912  10.927  19.298  0.00  0.00     0.157 A 
HETATM    2  N   UNL     1       7.062  11.399  18.775  0.00  0.00    -0.168 NA
HETATM    3  N   UNL     1       7.872  11.572  19.831  0.00  0.00    -0.277 N 
HETATM    4  H   UNL     1       8.806  11.929  19.670  0.00  0.00     0.189 HD
HETATM    5  C   UNL     1       6.011  10.851  20.719  0.00  0.00     0.029 A 
HETATM    6  C   UNL     1       7.308  11.229  21.026  0.00  0.00     0.065 A 
HETATM    7  C   UNL     1       5.140  10.480  21.761  0.00  0.00     0.036 C 
HETATM    8  C   UNL     1       5.621  10.374  23.064  0.00  0.00     0.066 C 
HETATM    9  C   UNL     1       6.923  10.843  23.337  0.00  0.00     0.083 C 
HETATM   10  C   UNL     1       7.801  11.261  22.329  0.00  0.00     0.069 C 
ENDROOT
BRANCH   8  11
HETATM   11  C   UNL     1       4.751   9.897  24.176  0.00  0.00     0.260 C 
HETATM   12  O   UNL     1       4.449  10.799  24.963  0.00  0.00    -0.267 OA
HETATM   13  N   UNL     1       4.378   8.532  24.340  0.00  0.00    -0.318 N 
HETATM   14  C   UNL     1       4.980   7.394  23.627  0.00  0.00     0.159 C 
BRANCH  13  15
HETATM   15  C   UNL     1       3.554   8.165  25.477  0.00  0.00     0.037 A 
HETATM   16  C   UNL     1       2.178   8.391  25.487  0.00  0.00     0.032 A 
HETATM   17  C   UNL     1       1.409   8.146  26.632  0.00  0.00     0.031 A 
HETATM   18  C   UNL     1       1.967   7.652  27.817  0.00  0.00     0.030 A 
HETATM   19  C   UNL     1       3.323   7.323  27.766  0.00  0.00     0.031 A 
HETATM   20  C   UNL     1       4.102   7.572  26.623  0.00  0.00     0.032 A 
BRANCH  18  21
HETATM   21  N   UNL     1       1.211   7.521  28.961  0.00  0.00    -0.377 N 
HETATM   22  C   UNL     1      -0.119   6.901  29.005  0.00  0.00     0.149 C 
HETATM   23  C   UNL     1      -0.127   5.735  30.004  0.00  0.00     0.187 C 
HETATM   24  O   UNL     1       0.306   6.159  31.308  0.00  0.00    -0.388 OA
HETATM   25  C   UNL     1       1.645   6.673  31.239  0.00  0.00     0.187 C 
HETATM   26  C   UNL     1       1.758   7.873  30.283  0.00  0.00     0.149 C 
ENDBRANCH  18  21
ENDBRANCH  13  15
ENDBRANCH   8  11
BRANCH   9  27
HETATM   27  O   UNL     1       7.413  10.992  24.612  0.00  0.00    -0.360 OA
HETATM   28  H   UNL     1       7.367  10.104  25.038  0.00  0.00     0.217 HD
ENDBRANCH   9  27
BRANCH   1  29
HETATM   29  C   UNL     1       4.710  10.548  18.515  0.00  0.00     0.274 C 
HETATM   30  N   UNL     1       4.635   9.269  17.938  0.00  0.00    -0.351 N 
HETATM   31  C   UNL     1       5.625   8.227  18.163  0.00  0.00     0.153 C 
HETATM   32  O   UNL     1       3.776  11.341  18.408  0.00  0.00    -0.266 OA
BRANCH  30  33
HETATM   33  C   UNL     1       3.497   8.953  17.076  0.00  0.00     0.129 C 
BRANCH  33  34
HETATM   34  C   UNL     1       3.064   7.473  17.074  0.00  0.00    -0.005 C 
HETATM   35  C   UNL     1       2.147   7.121  18.244  0.00  0.00     0.011 C 
HETATM   36  C   UNL     1       2.427   7.048  15.752  0.00  0.00     0.011 C 
ENDBRANCH  33  34
ENDBRANCH  30  33
ENDBRANCH   1  29
TORSDOF 7
ENDMDL
MODEL 9
REMARK VINA RESULT:    -7.163      4.971      6.968
REMARK INTER + INTRA:         -11.200
REMARK INTER:                 -10.018
REMARK INTRA:                  -1.182
REMARK UNBOUND:                -1.315
REMARK  7 active torsions:
REMARK  status: ('A' for Active; 'I' for Inactive)
REMARK    1  A    between atoms: C_2  and  C_4 
REMARK    2  A    between atoms: C_4  and  N_5 
REMARK       I    between atoms: N_5  and  C_7 
REMARK    3  A    between atoms: C_7  and  C_9 
REMARK    4  A    between atoms: C_16  and  C_20 
REMARK    5  A    between atoms: C_17  and  O_19 
REMARK       I    between atoms: C_20  and  N_22 
REMARK    6  A    between atoms: N_22  and  C_24 
REMARK    7  A    between atoms: C_27  and  N_30 
ROOT
HETATM    1  C   UNL     1       9.566  12.042  21.955  0.00  0.00     0.157 A 
HETATM    2  N   UNL     1       9.948  12.382  20.708  0.00  0.00    -0.168 NA
HETATM    3  N   UNL     1       8.838  12.247  19.962  0.00  0.00    -0.277 N 
HETATM    4  H   UNL     1       8.894  12.451  18.972  0.00  0.00     0.189 HD
HETATM    5  C   UNL     1       8.195  11.648  21.963  0.00  0.00     0.029 A 
HETATM    6  C   UNL     1       7.743  11.838  20.668  0.00  0.00     0.065 A 
HETATM    7  C   UNL     1       7.299  11.173  22.939  0.00  0.00     0.036 C 
HETATM    8  C   UNL     1       5.949  11.022  22.629  0.00  0.00     0.066 C 
HETATM    9  C   UNL     1       5.554  11.154  21.282  0.00  0.00     0.083 C 
HETATM   10  C   UNL     1       6.430  11.583  20.276  0.00  0.00     0.069 C 
ENDROOT
BRANCH   8  11
HETATM   11  C   UNL     1       4.957  10.609  23.661  0.00  0.00     0.260 C 
HETATM   12  O   UNL     1       4.597  11.549  24.377  0.00  0.00    -0.267 OA
HETATM   13  N   UNL     1       4.537   9.259  23.839  0.00  0.00    -0.318 N 
HETATM   14  C   UNL     1       5.183   8.081  23.238  0.00  0.00     0.159 C 
BRANCH  13  15
HETATM   15  C   UNL     1       3.590   8.956  24.896  0.00  0.00     0.037 A 
HETATM   16  C   UNL     1       4.011   8.579  26.171  0.00  0.00     0.032 A 
HETATM   17  C   UNL     1       3.094   8.173  27.149  0.00  0.00     0.031 A 
HETATM   18  C   UNL     1       1.715   8.136  26.913  0.00  0.00     0.030 A 
HETATM   19  C   UNL     1       1.292   8.619  25.674  0.00  0.00     0.031 A 
HETATM   20  C   UNL     1       2.205   9.023  24.685  0.00  0.00     0.032 A 
BRANCH  18  21
HETATM   21  N   UNL     1       0.844   7.631  27.853  0.00  0.00    -0.377 N 
HETATM   22  C   UNL     1      -0.614   7.588  27.687  0.00  0.00     0.149 C 
HETATM   23  C   UNL     1      -1.120   6.145  27.829  0.00  0.00     0.187 C 
HETATM   24  O   UNL     1      -0.709   5.565  29.079  0.00  0.00    -0.388 OA
HETATM   25  C   UNL     1       0.724   5.541  29.162  0.00  0.00     0.187 C 
HETATM   26  C   UNL     1       1.336   6.949  29.064  0.00  0.00     0.149 C 
ENDBRANCH  18  21
ENDBRANCH  13  15
ENDBRANCH   8  11
BRANCH   9  27
HETATM   27  O   UNL     1       4.301  10.811  20.833  0.00  0.00    -0.360 OA
HETATM   28  H   UNL     1       3.958  10.124  21.451  0.00  0.00     0.217 HD
ENDBRANCH   9  27
BRANCH   1  29
HETATM   29  C   UNL     1      10.443  12.065  23.152  0.00  0.00     0.274 C 
HETATM   30  N   UNL     1      10.596  13.259  23.876  0.00  0.00    -0.351 N 
HETATM   31  C   UNL     1       9.842  14.472  23.594  0.00  0.00     0.153 C 
HETATM   32  O   UNL     1      10.999  11.032  23.521  0.00  0.00    -0.266 OA
BRANCH  30  33
HETATM   33  C   UNL     1      11.551  13.294  24.982  0.00  0.00     0.129 C 
BRANCH  33  34
HETATM   34  C   UNL     1      11.707  14.662  25.675  0.00  0.00    -0.005 C 
HETATM   35  C   UNL     1      11.493  14.590  27.186  0.00  0.00     0.011 C 
HETATM   36  C   UNL     1      13.043  15.333  25.358  0.00  0.00     0.011 C 
ENDBRANCH  33  34
ENDBRANCH  30  33
ENDBRANCH   1  29
TORSDOF 7
ENDMDL
