REMARK  7 active torsions:
REMARK  status: ('A' for Active; 'I' for Inactive)
REMARK    1  A    between atoms: C_2  and  C_4 
REMARK    2  A    between atoms: C_4  and  N_5 
REMARK       I    between atoms: N_5  and  C_7 
REMARK    3  A    between atoms: C_7  and  C_9 
REMARK    4  A    between atoms: C_16  and  C_20 
REMARK    5  A    between atoms: C_17  and  O_19 
REMARK       I    between atoms: C_20  and  N_22 
REMARK    6  A    between atoms: N_22  and  C_24 
REMARK    7  A    between atoms: C_27  and  N_30 
ROOT
HETATM    1  C   UNL     1       6.686   1.094  -2.442  0.00  0.00     0.157 A 
HETATM    2  N   UNL     1       7.422   2.204  -2.233  0.00  0.00    -0.168 NA
HETATM    3  N   UNL     1       8.697   1.786  -2.297  0.00  0.00    -0.277 N 
HETATM    4  H   UNL     1       9.435   2.466  -2.163  0.00  0.00     0.189 HD
HETATM    5  C   UNL     1       7.537  -0.041  -2.596  0.00  0.00     0.029 A 
HETATM    6  C   UNL     1       8.831   0.450  -2.545  0.00  0.00     0.065 A 
HETATM    7  C   UNL     1       7.334  -1.420  -2.793  0.00  0.00     0.036 C 
HETATM    8  C   UNL     1       8.420  -2.251  -3.060  0.00  0.00     0.066 C 
HETATM    9  C   UNL     1       9.719  -1.719  -2.921  0.00  0.00     0.083 C 
HETATM   10  C   UNL     1       9.957  -0.360  -2.682  0.00  0.00     0.069 C 
ENDROOT
BRANCH   8  11
HETATM   11  C   UNL     1       8.234  -3.698  -3.363  0.00  0.00     0.260 C 
HETATM   12  O   UNL     1       9.152  -4.397  -2.924  0.00  0.00    -0.267 OA
HETATM   13  N   UNL     1       7.148  -4.196  -4.140  0.00  0.00    -0.318 N 
HETATM   14  C   UNL     1       6.233  -3.374  -4.948  0.00  0.00     0.159 C 
BRANCH  13  15
HETATM   15  C   UNL     1       7.076  -5.621  -4.406  0.00  0.00     0.037 A 
HETATM   16  C   UNL     1       7.566  -6.561  -3.500  0.00  0.00     0.032 A 
HETATM   17  C   UNL     1       7.602  -7.925  -3.816  0.00  0.00     0.031 A 
HETATM   18  C   UNL     1       7.141  -8.423  -5.040  0.00  0.00     0.030 A 
HETATM   19  C   UNL     1       6.551  -7.492  -5.897  0.00  0.00     0.031 A 
HETATM   20  C   UNL     1       6.516  -6.121  -5.590  0.00  0.00     0.032 A 
BRANCH  18  21
HETATM   21  N   UNL     1       7.286  -9.752  -5.370  0.00  0.00    -0.377 N 
HETATM   22  C   UNL     1       6.411 -10.470  -6.305  0.00  0.00     0.149 C 
HETATM   23  C   UNL     1       7.240 -11.076  -7.447  0.00  0.00     0.187 C 
HETATM   24  O   UNL     1       8.288 -11.921  -6.943  0.00  0.00    -0.388 OA
HETATM   25  C   UNL     1       9.175 -11.160  -6.108  0.00  0.00     0.187 C 
HETATM   26  C   UNL     1       8.447 -10.533  -4.907  0.00  0.00     0.149 C 
ENDBRANCH  18  21
ENDBRANCH  13  15
ENDBRANCH   8  11
BRANCH   9  27
HETATM   27  O   UNL     1      10.852  -2.497  -2.942  0.00  0.00    -0.360 OA
HETATM   28  H   UNL     1      10.559  -3.427  -2.796  0.00  0.00     0.217 HD
ENDBRANCH   9  27
BRANCH   1  29
HETATM   29  C   UNL     1       5.204   1.050  -2.497  0.00  0.00     0.274 C 
HETATM   30  N   UNL     1       4.486   2.227  -2.766  0.00  0.00    -0.351 N 
HETATM   31  C   UNL     1       5.117   3.490  -3.120  0.00  0.00     0.153 C 
HETATM   32  O   UNL     1       4.619  -0.021  -2.344  0.00  0.00    -0.266 OA
BRANCH  30  33
HETATM   33  C   UNL     1       3.026   2.190  -2.703  0.00  0.00     0.129 C 
BRANCH  33  34
HETATM   34  C   UNL     1       2.417   2.539  -1.330  0.00  0.00    -0.005 C 
HETATM   35  C   UNL     1       2.824   1.556  -0.233  0.00  0.00     0.011 C 
HETATM   36  C   UNL     1       2.721   3.973  -0.899  0.00  0.00     0.011 C 
ENDBRANCH  33  34
ENDBRANCH  30  33
ENDBRANCH   1  29
TORSDOF 7
