MODEL 1
REMARK VINA RESULT:    -9.286      0.000      0.000
REMARK INTER + INTRA:         -13.003
REMARK INTER:                 -11.705
REMARK INTRA:                  -1.298
REMARK UNBOUND:                -1.275
REMARK  5 active torsions:
REMARK  status: ('A' for Active; 'I' for Inactive)
REMARK       I    between atoms: C_2  and  N_3 
REMARK    1  A    between atoms: C_2  and  C_15 
REMARK    2  A    between atoms: N_3  and  C_5 
REMARK    3  A    between atoms: C_16  and  O_17 
REMARK    4  A    between atoms: C_23  and  C_24 
REMARK    5  A    between atoms: C_24  and  C_25 
ROOT
HETATM    1  C   UNL     1       9.327  14.796  21.431  0.00  0.00     0.066 C 
HETATM    2  C   UNL     1      10.281  15.807  21.295  0.00  0.00     0.083 C 
HETATM    3  C   UNL     1      11.571  15.548  20.817  0.00  0.00     0.069 C 
HETATM    4  C   UNL     1      11.926  14.218  20.593  0.00  0.00     0.065 A 
HETATM    5  N   UNL     1      13.110  13.665  20.195  0.00  0.00    -0.277 N 
HETATM    6  H   UNL     1      13.969  14.151  19.964  0.00  0.00     0.189 HD
HETATM    7  N   UNL     1      13.120  12.330  20.181  0.00  0.00    -0.178 NA
HETATM    8  C   UNL     1      11.885  11.980  20.585  0.00  0.00     0.071 A 
HETATM    9  C   UNL     1      11.072  13.142  20.831  0.00  0.00     0.020 A 
HETATM   10  C   UNL     1       9.752  13.443  21.256  0.00  0.00     0.035 C 
ENDROOT
BRANCH   1  11
HETATM   11  C   UNL     1       7.893  15.013  21.854  0.00  0.00     0.260 C 
HETATM   12  O   UNL     1       7.314  15.888  21.205  0.00  0.00    -0.267 OA
HETATM   13  N   UNL     1       7.285  14.303  22.933  0.00  0.00    -0.318 N 
HETATM   14  C   UNL     1       8.051  13.463  23.871  0.00  0.00     0.159 C 
BRANCH  13  15
HETATM   15  C   UNL     1       5.864  14.474  23.257  0.00  0.00     0.039 A 
HETATM   16  C   UNL     1       4.924  13.438  23.116  0.00  0.00     0.069 A 
HETATM   17  C   UNL     1       3.566  13.623  23.421  0.00  0.00     0.104 A 
HETATM   18  O   UNL     1       2.743  12.530  23.279  0.00  0.00    -0.346 OA
HETATM   19  C   UNL     1       3.100  14.864  23.844  0.00  0.00     0.102 A 
HETATM   20  C   UNL     1       1.487  12.736  23.936  0.00  0.00     0.202 C 
HETATM   21  C   UNL     1       0.927  14.107  23.598  0.00  0.00     0.202 C 
HETATM   22  O   UNL     1       1.784  15.136  24.108  0.00  0.00    -0.346 OA
HETATM   23  C   UNL     1       4.005  15.899  24.031  0.00  0.00     0.042 A 
HETATM   24  C   UNL     1       5.362  15.698  23.756  0.00  0.00     0.032 A 
ENDBRANCH  13  15
ENDBRANCH   1  11
BRANCH   2  25
HETATM   25  O   UNL     1      10.068  17.114  21.657  0.00  0.00    -0.360 OA
HETATM   26  H   UNL     1       9.912  17.637  20.848  0.00  0.00     0.217 HD
ENDBRANCH   2  25
BRANCH   8  27
HETATM   27  C   UNL     1      11.655  10.530  20.851  0.00  0.00     0.100 C 
BRANCH  27  28
HETATM   28  C   UNL     1      11.070  10.314  22.221  0.00  0.00    -0.052 A 
HETATM   29  C   UNL     1       9.732   9.911  22.322  0.00  0.00     0.014 A 
HETATM   30  C   UNL     1       9.055   9.950  23.544  0.00  0.00    -0.061 A 
HETATM   31  C   UNL     1       7.581   9.679  23.584  0.00  0.00     0.048 C 
HETATM   32  C   UNL     1       9.757  10.291  24.703  0.00  0.00     0.007 A 
HETATM   33  C   UNL     1      11.107  10.646  24.627  0.00  0.00     0.001 A 
HETATM   34  C   UNL     1      11.756  10.676  23.389  0.00  0.00     0.007 A 
ENDBRANCH  27  28
ENDBRANCH   8  27
TORSDOF 5
ENDMDL
MODEL 2
REMARK VINA RESULT:    -9.161      3.330      9.066
REMARK INTER + INTRA:         -12.845
REMARK INTER:                 -11.583
REMARK INTRA:                  -1.262
REMARK UNBOUND:                -1.275
REMARK  5 active torsions:
REMARK  status: ('A' for Active; 'I' for Inactive)
REMARK       I    between atoms: C_2  and  N_3 
REMARK    1  A    between atoms: C_2  and  C_15 
REMARK    2  A    between atoms: N_3  and  C_5 
REMARK    3  A    between atoms: C_16  and  O_17 
REMARK    4  A    between atoms: C_23  and  C_24 
REMARK    5  A    between atoms: C_24  and  C_25 
ROOT
HETATM    1  C   UNL     1       5.081  10.827  23.552  0.00  0.00     0.066 C 
HETATM    2  C   UNL     1       4.873   9.641  24.260  0.00  0.00     0.083 C 
HETATM    3  C   UNL     1       3.607   9.273  24.731  0.00  0.00     0.069 C 
HETATM    4  C   UNL     1       2.566  10.190  24.581  0.00  0.00     0.065 A 
HETATM    5  N   UNL     1       1.263  10.135  24.989  0.00  0.00    -0.277 N 
HETATM    6  H   UNL     1       0.802   9.375  25.477  0.00  0.00     0.189 HD
HETATM    7  N   UNL     1       0.565  11.250  24.760  0.00  0.00    -0.178 NA
HETATM    8  C   UNL     1       1.443  12.081  24.170  0.00  0.00     0.071 A 
HETATM    9  C   UNL     1       2.724  11.447  24.001  0.00  0.00     0.020 A 
HETATM   10  C   UNL     1       4.005  11.765  23.479  0.00  0.00     0.035 C 
ENDROOT
BRANCH   1  11
HETATM   11  C   UNL     1       6.396  11.246  22.937  0.00  0.00     0.260 C 
HETATM   12  O   UNL     1       7.018  12.068  23.614  0.00  0.00    -0.267 OA
HETATM   13  N   UNL     1       6.849  10.766  21.671  0.00  0.00    -0.318 N 
HETATM   14  C   UNL     1       5.989  10.001  20.750  0.00  0.00     0.159 C 
BRANCH  13  15
HETATM   15  C   UNL     1       8.173  11.123  21.147  0.00  0.00     0.039 A 
HETATM   16  C   UNL     1       9.364  10.586  21.666  0.00  0.00     0.069 A 
HETATM   17  C   UNL     1      10.622  10.947  21.158  0.00  0.00     0.104 A 
HETATM   18  O   UNL     1      11.718  10.332  21.719  0.00  0.00    -0.346 OA
HETATM   19  C   UNL     1      10.729  11.886  20.138  0.00  0.00     0.102 A 
HETATM   20  C   UNL     1      12.885  10.509  20.907  0.00  0.00     0.202 C 
HETATM   21  C   UNL     1      13.018  11.958  20.472  0.00  0.00     0.202 C 
HETATM   22  O   UNL     1      11.921  12.328  19.628  0.00  0.00    -0.346 OA
HETATM   23  C   UNL     1       9.573  12.409  19.575  0.00  0.00     0.042 A 
HETATM   24  C   UNL     1       8.322  12.020  20.064  0.00  0.00     0.032 A 
ENDBRANCH  13  15
ENDBRANCH   1  11
BRANCH   2  25
HETATM   25  O   UNL     1       5.875   8.768  24.601  0.00  0.00    -0.360 OA
HETATM   26  H   UNL     1       6.226   8.367  23.784  0.00  0.00     0.217 HD
ENDBRANCH   2  25
BRANCH   8  27
HETATM   27  C   UNL     1       0.995  13.490  23.964  0.00  0.00     0.100 C 
BRANCH  27  28
HETATM   28  C   UNL     1       1.983  14.466  24.544  0.00  0.00    -0.052 A 
HETATM   29  C   UNL     1       3.001  14.960  23.718  0.00  0.00     0.014 A 
HETATM   30  C   UNL     1       4.093  15.649  24.250  0.00  0.00    -0.061 A 
HETATM   31  C   UNL     1       5.247  16.011  23.362  0.00  0.00     0.048 C 
HETATM   32  C   UNL     1       4.115  15.946  25.616  0.00  0.00     0.007 A 
HETATM   33  C   UNL     1       3.080  15.505  26.446  0.00  0.00     0.001 A 
HETATM   34  C   UNL     1       2.029  14.752  25.917  0.00  0.00     0.007 A 
ENDBRANCH  27  28
ENDBRANCH   8  27
TORSDOF 5
ENDMDL
MODEL 3
REMARK VINA RESULT:    -9.025      3.206      4.908
REMARK INTER + INTRA:         -12.674
REMARK INTER:                 -11.520
REMARK INTRA:                  -1.154
REMARK UNBOUND:                -1.275
REMARK  5 active torsions:
REMARK  status: ('A' for Active; 'I' for Inactive)
REMARK       I    between atoms: C_2  and  N_3 
REMARK    1  A    between atoms: C_2  and  C_15 
REMARK    2  A    between atoms: N_3  and  C_5 
REMARK    3  A    between atoms: C_16  and  O_17 
REMARK    4  A    between atoms: C_23  and  C_24 
REMARK    5  A    between atoms: C_24  and  C_25 
ROOT
HETATM    1  C   UNL     1       6.450  14.181  24.952  0.00  0.00     0.066 C 
HETATM    2  C   UNL     1       7.201  13.997  26.115  0.00  0.00     0.083 C 
HETATM    3  C   UNL     1       8.503  14.495  26.241  0.00  0.00     0.069 C 
HETATM    4  C   UNL     1       9.087  15.080  25.117  0.00  0.00     0.065 A 
HETATM    5  N   UNL     1      10.341  15.588  24.925  0.00  0.00    -0.277 N 
HETATM    6  H   UNL     1      11.092  15.648  25.603  0.00  0.00     0.189 HD
HETATM    7  N   UNL     1      10.591  15.983  23.674  0.00  0.00    -0.178 NA
HETATM    8  C   UNL     1       9.451  15.729  23.007  0.00  0.00     0.071 A 
HETATM    9  C   UNL     1       8.448  15.183  23.882  0.00  0.00     0.020 A 
HETATM   10  C   UNL     1       7.107  14.725  23.806  0.00  0.00     0.035 C 
ENDROOT
BRANCH   1  11
HETATM   11  C   UNL     1       5.012  13.752  24.777  0.00  0.00     0.260 C 
HETATM   12  O   UNL     1       4.876  12.540  24.597  0.00  0.00    -0.267 OA
HETATM   13  N   UNL     1       3.922  14.674  24.776  0.00  0.00    -0.318 N 
HETATM   14  C   UNL     1       4.108  16.135  24.722  0.00  0.00     0.159 C 
BRANCH  13  15
HETATM   15  C   UNL     1       2.530  14.214  24.695  0.00  0.00     0.039 A 
HETATM   16  C   UNL     1       1.901  13.912  23.475  0.00  0.00     0.069 A 
HETATM   17  C   UNL     1       0.565  13.483  23.416  0.00  0.00     0.104 A 
HETATM   18  O   UNL     1       0.064  13.182  22.171  0.00  0.00    -0.346 OA
HETATM   19  C   UNL     1      -0.194  13.376  24.577  0.00  0.00     0.102 A 
HETATM   20  C   UNL     1      -1.158  12.440  22.268  0.00  0.00     0.202 C 
HETATM   21  C   UNL     1      -2.090  13.077  23.285  0.00  0.00     0.202 C 
HETATM   22  O   UNL     1      -1.515  13.016  24.596  0.00  0.00    -0.346 OA
HETATM   23  C   UNL     1       0.405  13.630  25.803  0.00  0.00     0.042 A 
HETATM   24  C   UNL     1       1.746  14.025  25.856  0.00  0.00     0.032 A 
ENDBRANCH  13  15
ENDBRANCH   1  11
BRANCH   2  25
HETATM   25  O   UNL     1       6.765  13.282  27.203  0.00  0.00    -0.360 OA
HETATM   26  H   UNL     1       5.889  12.907  26.995  0.00  0.00     0.217 HD
ENDBRANCH   2  25
BRANCH   8  27
HETATM   27  C   UNL     1       9.494  15.895  21.524  0.00  0.00     0.100 C 
BRANCH  27  28
HETATM   28  C   UNL     1       9.501  14.562  20.827  0.00  0.00    -0.052 A 
HETATM   29  C   UNL     1      10.647  13.761  20.924  0.00  0.00     0.014 A 
HETATM   30  C   UNL     1      10.825  12.649  20.097  0.00  0.00    -0.061 A 
HETATM   31  C   UNL     1      12.135  11.919  20.107  0.00  0.00     0.048 C 
HETATM   32  C   UNL     1       9.793  12.266  19.235  0.00  0.00     0.007 A 
HETATM   33  C   UNL     1       8.622  13.025  19.163  0.00  0.00     0.001 A 
HETATM   34  C   UNL     1       8.483  14.179  19.940  0.00  0.00     0.007 A 
ENDBRANCH  27  28
ENDBRANCH   8  27
TORSDOF 5
ENDMDL
MODEL 4
REMARK VINA RESULT:    -8.961      3.221      5.387
REMARK INTER + INTRA:         -12.593
REMARK INTER:                 -11.410
REMARK INTRA:                  -1.183
REMARK UNBOUND:                -1.275
REMARK  5 active torsions:
REMARK  status: ('A' for Active; 'I' for Inactive)
REMARK       I    between atoms: C_2  and  N_3 
REMARK    1  A    between atoms: C_2  and  C_15 
REMARK    2  A    between atoms: N_3  and  C_5 
REMARK    3  A    between atoms: C_16  and  O_17 
REMARK    4  A    between atoms: C_23  and  C_24 
REMARK    5  A    between atoms: C_24  and  C_25 
ROOT
HETATM    1  C   UNL     1       5.655  13.719  24.630  0.00  0.00     0.066 C 
HETATM    2  C   UNL     1       6.224  13.418  25.870  0.00  0.00     0.083 C 
HETATM    3  C   UNL     1       7.479  13.911  26.246  0.00  0.00     0.069 C 
HETATM    4  C   UNL     1       8.212  14.617  25.293  0.00  0.00     0.065 A 
HETATM    5  N   UNL     1       9.468  15.154  25.351  0.00  0.00    -0.277 N 
HETATM    6  H   UNL     1      10.105  15.147  26.139  0.00  0.00     0.189 HD
HETATM    7  N   UNL     1       9.896  15.682  24.201  0.00  0.00    -0.178 NA
HETATM    8  C   UNL     1       8.878  15.491  23.343  0.00  0.00     0.071 A 
HETATM    9  C   UNL     1       7.767  14.846  23.992  0.00  0.00     0.020 A 
HETATM   10  C   UNL     1       6.466  14.388  23.662  0.00  0.00     0.035 C 
ENDROOT
BRANCH   1  11
HETATM   11  C   UNL     1       4.271  13.299  24.191  0.00  0.00     0.260 C 
HETATM   12  O   UNL     1       4.268  12.346  23.410  0.00  0.00    -0.267 OA
HETATM   13  N   UNL     1       3.085  13.976  24.610  0.00  0.00    -0.318 N 
HETATM   14  C   UNL     1       3.109  15.267  25.320  0.00  0.00     0.159 C 
BRANCH  13  15
HETATM   15  C   UNL     1       1.753  13.486  24.238  0.00  0.00     0.039 A 
HETATM   16  C   UNL     1       0.900  12.843  25.151  0.00  0.00     0.069 A 
HETATM   17  C   UNL     1      -0.368  12.371  24.775  0.00  0.00     0.104 A 
HETATM   18  O   UNL     1      -1.132  11.789  25.759  0.00  0.00    -0.346 OA
HETATM   19  C   UNL     1      -0.807  12.496  23.460  0.00  0.00     0.102 A 
HETATM   20  C   UNL     1      -2.501  11.669  25.352  0.00  0.00     0.202 C 
HETATM   21  C   UNL     1      -2.592  11.106  23.945  0.00  0.00     0.202 C 
HETATM   22  O   UNL     1      -2.005  12.015  23.005  0.00  0.00    -0.346 OA
HETATM   23  C   UNL     1      -0.007  13.159  22.540  0.00  0.00     0.042 A 
HETATM   24  C   UNL     1       1.242  13.656  22.931  0.00  0.00     0.032 A 
ENDBRANCH  13  15
ENDBRANCH   1  11
BRANCH   2  25
HETATM   25  O   UNL     1       5.645  12.587  26.797  0.00  0.00    -0.360 OA
HETATM   26  H   UNL     1       4.747  12.917  26.988  0.00  0.00     0.217 HD
ENDBRANCH   2  25
BRANCH   8  27
HETATM   27  C   UNL     1       9.143  15.815  21.910  0.00  0.00     0.100 C 
BRANCH  27  28
HETATM   28  C   UNL     1       9.236  14.564  21.078  0.00  0.00    -0.052 A 
HETATM   29  C   UNL     1      10.407  13.799  21.148  0.00  0.00     0.014 A 
HETATM   30  C   UNL     1      10.668  12.789  20.219  0.00  0.00    -0.061 A 
HETATM   31  C   UNL     1      12.005  12.108  20.218  0.00  0.00     0.048 C 
HETATM   32  C   UNL     1       9.693  12.464  19.271  0.00  0.00     0.007 A 
HETATM   33  C   UNL     1       8.498  13.185  19.220  0.00  0.00     0.001 A 
HETATM   34  C   UNL     1       8.277  14.243  20.106  0.00  0.00     0.007 A 
ENDBRANCH  27  28
ENDBRANCH   8  27
TORSDOF 5
ENDMDL
MODEL 5
REMARK VINA RESULT:    -8.940      4.514      7.184
REMARK INTER + INTRA:         -12.566
REMARK INTER:                 -11.601
REMARK INTRA:                  -0.965
REMARK UNBOUND:                -1.275
REMARK  5 active torsions:
REMARK  status: ('A' for Active; 'I' for Inactive)
REMARK       I    between atoms: C_2  and  N_3 
REMARK    1  A    between atoms: C_2  and  C_15 
REMARK    2  A    between atoms: N_3  and  C_5 
REMARK    3  A    between atoms: C_16  and  O_17 
REMARK    4  A    between atoms: C_23  and  C_24 
REMARK    5  A    between atoms: C_24  and  C_25 
ROOT
HETATM    1  C   UNL     1       6.571  11.085  21.568  0.00  0.00     0.066 C 
HETATM    2  C   UNL     1       7.550  11.386  20.618  0.00  0.00     0.083 C 
HETATM    3  C   UNL     1       8.659  12.182  20.925  0.00  0.00     0.069 C 
HETATM    4  C   UNL     1       8.702  12.779  22.186  0.00  0.00     0.065 A 
HETATM    5  N   UNL     1       9.610  13.640  22.735  0.00  0.00    -0.277 N 
HETATM    6  H   UNL     1      10.458  13.995  22.309  0.00  0.00     0.189 HD
HETATM    7  N   UNL     1       9.277  14.094  23.946  0.00  0.00    -0.178 NA
HETATM    8  C   UNL     1       8.098  13.506  24.214  0.00  0.00     0.071 A 
HETATM    9  C   UNL     1       7.699  12.632  23.142  0.00  0.00     0.020 A 
HETATM   10  C   UNL     1       6.619  11.769  22.822  0.00  0.00     0.035 C 
ENDROOT
BRANCH   1  11
HETATM   11  C   UNL     1       5.398  10.162  21.336  0.00  0.00     0.260 C 
HETATM   12  O   UNL     1       4.393  10.738  20.910  0.00  0.00    -0.267 OA
HETATM   13  N   UNL     1       5.439   8.765  21.627  0.00  0.00    -0.318 N 
HETATM   14  C   UNL     1       6.539   8.137  22.380  0.00  0.00     0.159 C 
BRANCH  13  15
HETATM   15  C   UNL     1       4.312   7.883  21.303  0.00  0.00     0.039 A 
HETATM   16  C   UNL     1       4.120   7.337  20.022  0.00  0.00     0.069 A 
HETATM   17  C   UNL     1       3.029   6.502  19.728  0.00  0.00     0.104 A 
HETATM   18  O   UNL     1       2.960   5.997  18.451  0.00  0.00    -0.346 OA
HETATM   19  C   UNL     1       2.076   6.217  20.701  0.00  0.00     0.102 A 
HETATM   20  C   UNL     1       2.029   4.911  18.372  0.00  0.00     0.202 C 
HETATM   21  C   UNL     1       0.731   5.268  19.074  0.00  0.00     0.202 C 
HETATM   22  O   UNL     1       0.959   5.457  20.476  0.00  0.00    -0.346 OA
HETATM   23  C   UNL     1       2.253   6.708  21.987  0.00  0.00     0.042 A 
HETATM   24  C   UNL     1       3.360   7.512  22.280  0.00  0.00     0.032 A 
ENDBRANCH  13  15
ENDBRANCH   1  11
BRANCH   2  25
HETATM   25  O   UNL     1       7.494  10.982  19.307  0.00  0.00    -0.360 OA
HETATM   26  H   UNL     1       7.863  10.081  19.246  0.00  0.00     0.217 HD
ENDBRANCH   2  25
BRANCH   8  27
HETATM   27  C   UNL     1       7.379  13.974  25.436  0.00  0.00     0.100 C 
BRANCH  27  28
HETATM   28  C   UNL     1       6.250  14.903  25.081  0.00  0.00    -0.052 A 
HETATM   29  C   UNL     1       5.302  15.212  26.065  0.00  0.00     0.014 A 
HETATM   30  C   UNL     1       4.099  15.844  25.737  0.00  0.00    -0.061 A 
HETATM   31  C   UNL     1       3.036  16.002  26.783  0.00  0.00     0.048 C 
HETATM   32  C   UNL     1       3.888  16.273  24.424  0.00  0.00     0.007 A 
HETATM   33  C   UNL     1       4.848  16.018  23.440  0.00  0.00     0.001 A 
HETATM   34  C   UNL     1       6.015  15.319  23.762  0.00  0.00     0.007 A 
ENDBRANCH  27  28
ENDBRANCH   8  27
TORSDOF 5
ENDMDL
MODEL 6
REMARK VINA RESULT:    -8.908      4.370      7.537
REMARK INTER + INTRA:         -12.527
REMARK INTER:                 -11.334
REMARK INTRA:                  -1.193
REMARK UNBOUND:                -1.275
REMARK  5 active torsions:
REMARK  status: ('A' for Active; 'I' for Inactive)
REMARK       I    between atoms: C_2  and  N_3 
REMARK    1  A    between atoms: C_2  and  C_15 
REMARK    2  A    between atoms: N_3  and  C_5 
REMARK    3  A    between atoms: C_16  and  O_17 
REMARK    4  A    between atoms: C_23  and  C_24 
REMARK    5  A    between atoms: C_24  and  C_25 
ROOT
HETATM    1  C   UNL     1       6.929  11.022  21.791  0.00  0.00     0.066 C 
HETATM    2  C   UNL     1       8.312  10.914  21.950  0.00  0.00     0.083 C 
HETATM    3  C   UNL     1       9.059  11.894  22.614  0.00  0.00     0.069 C 
HETATM    4  C   UNL     1       8.399  13.057  23.011  0.00  0.00     0.065 A 
HETATM    5  N   UNL     1       8.870  14.190  23.611  0.00  0.00    -0.277 N 
HETATM    6  H   UNL     1       9.822  14.383  23.903  0.00  0.00     0.189 HD
HETATM    7  N   UNL     1       7.961  15.157  23.756  0.00  0.00    -0.178 NA
HETATM    8  C   UNL     1       6.834  14.642  23.232  0.00  0.00     0.071 A 
HETATM    9  C   UNL     1       7.046  13.295  22.771  0.00  0.00     0.020 A 
HETATM   10  C   UNL     1       6.305  12.256  22.152  0.00  0.00     0.035 C 
ENDROOT
BRANCH   1  11
HETATM   11  C   UNL     1       6.047   9.966  21.168  0.00  0.00     0.260 C 
HETATM   12  O   UNL     1       5.575  10.296  20.077  0.00  0.00    -0.267 OA
HETATM   13  N   UNL     1       5.754   8.723  21.807  0.00  0.00    -0.318 N 
HETATM   14  C   UNL     1       6.096   8.445  23.213  0.00  0.00     0.159 C 
BRANCH  13  15
HETATM   15  C   UNL     1       4.968   7.683  21.133  0.00  0.00     0.039 A 
HETATM   16  C   UNL     1       3.574   7.573  21.275  0.00  0.00     0.069 A 
HETATM   17  C   UNL     1       2.840   6.565  20.631  0.00  0.00     0.104 A 
HETATM   18  O   UNL     1       1.477   6.575  20.814  0.00  0.00    -0.346 OA
HETATM   19  C   UNL     1       3.485   5.610  19.850  0.00  0.00     0.102 A 
HETATM   20  C   UNL     1       0.817   5.740  19.854  0.00  0.00     0.202 C 
HETATM   21  C   UNL     1       1.518   4.397  19.744  0.00  0.00     0.202 C 
HETATM   22  O   UNL     1       2.846   4.568  19.234  0.00  0.00    -0.346 OA
HETATM   23  C   UNL     1       4.856   5.709  19.656  0.00  0.00     0.042 A 
HETATM   24  C   UNL     1       5.576   6.737  20.275  0.00  0.00     0.032 A 
ENDBRANCH  13  15
ENDBRANCH   1  11
BRANCH   2  25
HETATM   25  O   UNL     1       9.064   9.886  21.437  0.00  0.00    -0.360 OA
HETATM   26  H   UNL     1       9.861  10.264  21.022  0.00  0.00     0.217 HD
ENDBRANCH   2  25
BRANCH   8  27
HETATM   27  C   UNL     1       5.679  15.575  23.082  0.00  0.00     0.100 C 
BRANCH  27  28
HETATM   28  C   UNL     1       4.585  15.249  24.062  0.00  0.00    -0.052 A 
HETATM   29  C   UNL     1       3.449  14.574  23.597  0.00  0.00     0.014 A 
HETATM   30  C   UNL     1       2.295  14.477  24.379  0.00  0.00    -0.061 A 
HETATM   31  C   UNL     1       1.043  13.901  23.787  0.00  0.00     0.048 C 
HETATM   32  C   UNL     1       2.314  14.965  25.689  0.00  0.00     0.007 A 
HETATM   33  C   UNL     1       3.458  15.596  26.185  0.00  0.00     0.001 A 
HETATM   34  C   UNL     1       4.582  15.755  25.370  0.00  0.00     0.007 A 
ENDBRANCH  27  28
ENDBRANCH   8  27
TORSDOF 5
ENDMDL
MODEL 7
REMARK VINA RESULT:    -8.854      3.266      9.123
REMARK INTER + INTRA:         -12.458
REMARK INTER:                 -10.919
REMARK INTRA:                  -1.538
REMARK UNBOUND:                -1.275
REMARK  5 active torsions:
REMARK  status: ('A' for Active; 'I' for Inactive)
REMARK       I    between atoms: C_2  and  N_3 
REMARK    1  A    between atoms: C_2  and  C_15 
REMARK    2  A    between atoms: N_3  and  C_5 
REMARK    3  A    between atoms: C_16  and  O_17 
REMARK    4  A    between atoms: C_23  and  C_24 
REMARK    5  A    between atoms: C_24  and  C_25 
ROOT
HETATM    1  C   UNL     1       4.015  10.445  24.227  0.00  0.00     0.066 C 
HETATM    2  C   UNL     1       3.216   9.494  24.866  0.00  0.00     0.083 C 
HETATM    3  C   UNL     1       1.837   9.675  25.029  0.00  0.00     0.069 C 
HETATM    4  C   UNL     1       1.293  10.900  24.643  0.00  0.00     0.065 A 
HETATM    5  N   UNL     1       0.017  11.379  24.738  0.00  0.00    -0.277 N 
HETATM    6  H   UNL     1      -0.796  10.897  25.104  0.00  0.00     0.189 HD
HETATM    7  N   UNL     1      -0.126  12.650  24.355  0.00  0.00    -0.178 NA
HETATM    8  C   UNL     1       1.110  13.031  23.986  0.00  0.00     0.071 A 
HETATM    9  C   UNL     1       2.048  11.948  24.118  0.00  0.00     0.020 A 
HETATM   10  C   UNL     1       3.430  11.709  23.908  0.00  0.00     0.035 C 
ENDROOT
BRANCH   1  11
HETATM   11  C   UNL     1       5.488  10.279  23.935  0.00  0.00     0.260 C 
HETATM   12  O   UNL     1       5.738   9.345  23.169  0.00  0.00    -0.267 OA
HETATM   13  N   UNL     1       6.494  11.099  24.529  0.00  0.00    -0.318 N 
HETATM   14  C   UNL     1       6.218  12.028  25.640  0.00  0.00     0.159 C 
BRANCH  13  15
HETATM   15  C   UNL     1       7.907  10.969  24.154  0.00  0.00     0.039 A 
HETATM   16  C   UNL     1       8.492  11.733  23.129  0.00  0.00     0.069 A 
HETATM   17  C   UNL     1       9.844  11.588  22.776  0.00  0.00     0.104 A 
HETATM   18  O   UNL     1      10.319  12.412  21.783  0.00  0.00    -0.346 OA
HETATM   19  C   UNL     1      10.643  10.646  23.416  0.00  0.00     0.102 A 
HETATM   20  C   UNL     1      11.751  12.420  21.754  0.00  0.00     0.202 C 
HETATM   21  C   UNL     1      12.294  11.004  21.834  0.00  0.00     0.202 C 
HETATM   22  O   UNL     1      11.953  10.409  23.092  0.00  0.00    -0.346 OA
HETATM   23  C   UNL     1      10.110   9.900  24.457  0.00  0.00     0.042 A 
HETATM   24  C   UNL     1       8.771  10.074  24.825  0.00  0.00     0.032 A 
ENDBRANCH  13  15
ENDBRANCH   1  11
BRANCH   2  25
HETATM   25  O   UNL     1       3.702   8.340  25.429  0.00  0.00    -0.360 OA
HETATM   26  H   UNL     1       4.674   8.345  25.353  0.00  0.00     0.217 HD
ENDBRANCH   2  25
BRANCH   8  27
HETATM   27  C   UNL     1       1.300  14.481  23.683  0.00  0.00     0.100 C 
BRANCH  27  28
HETATM   28  C   UNL     1       2.565  15.005  24.306  0.00  0.00    -0.052 A 
HETATM   29  C   UNL     1       3.684  15.200  23.487  0.00  0.00     0.014 A 
HETATM   30  C   UNL     1       4.951  15.425  24.034  0.00  0.00    -0.061 A 
HETATM   31  C   UNL     1       6.152  15.455  23.136  0.00  0.00     0.048 C 
HETATM   32  C   UNL     1       5.081  15.569  25.418  0.00  0.00     0.007 A 
HETATM   33  C   UNL     1       3.964  15.430  26.246  0.00  0.00     0.001 A 
HETATM   34  C   UNL     1       2.715  15.130  25.696  0.00  0.00     0.007 A 
ENDBRANCH  27  28
ENDBRANCH   8  27
TORSDOF 5
ENDMDL
MODEL 8
REMARK VINA RESULT:    -8.751      3.048      4.498
REMARK INTER + INTRA:         -12.328
REMARK INTER:                 -11.166
REMARK INTRA:                  -1.162
REMARK UNBOUND:                -1.275
REMARK  5 active torsions:
REMARK  status: ('A' for Active; 'I' for Inactive)
REMARK       I    between atoms: C_2  and  N_3 
REMARK    1  A    between atoms: C_2  and  C_15 
REMARK    2  A    between atoms: N_3  and  C_5 
REMARK    3  A    between atoms: C_16  and  O_17 
REMARK    4  A    between atoms: C_23  and  C_24 
REMARK    5  A    between atoms: C_24  and  C_25 
ROOT
HETATM    1  C   UNL     1       6.896  14.168  24.561  0.00  0.00     0.066 C 
HETATM    2  C   UNL     1       7.521  13.899  25.781  0.00  0.00     0.083 C 
HETATM    3  C   UNL     1       8.805  14.372  26.074  0.00  0.00     0.069 C 
HETATM    4  C   UNL     1       9.506  15.022  25.057  0.00  0.00     0.065 A 
HETATM    5  N   UNL     1      10.776  15.527  25.031  0.00  0.00    -0.277 N 
HETATM    6  H   UNL     1      11.452  15.533  25.786  0.00  0.00     0.189 HD
HETATM    7  N   UNL     1      11.157  15.998  23.841  0.00  0.00    -0.178 NA
HETATM    8  C   UNL     1      10.092  15.802  23.044  0.00  0.00     0.071 A 
HETATM    9  C   UNL     1       9.000  15.213  23.773  0.00  0.00     0.020 A 
HETATM   10  C   UNL     1       7.672  14.777  23.527  0.00  0.00     0.035 C 
ENDROOT
BRANCH   1  11
HETATM   11  C   UNL     1       5.482  13.769  24.209  0.00  0.00     0.260 C 
HETATM   12  O   UNL     1       5.413  12.944  23.295  0.00  0.00    -0.267 OA
HETATM   13  N   UNL     1       4.335  14.331  24.849  0.00  0.00    -0.318 N 
HETATM   14  C   UNL     1       4.409  15.500  25.743  0.00  0.00     0.159 C 
BRANCH  13  15
HETATM   15  C   UNL     1       2.981  13.854  24.547  0.00  0.00     0.039 A 
HETATM   16  C   UNL     1       2.538  12.563  24.884  0.00  0.00     0.069 A 
HETATM   17  C   UNL     1       1.241  12.120  24.578  0.00  0.00     0.104 A 
HETATM   18  O   UNL     1       0.905  10.850  24.986  0.00  0.00    -0.346 OA
HETATM   19  C   UNL     1       0.357  12.946  23.890  0.00  0.00     0.102 A 
HETATM   20  C   UNL     1      -0.511  10.645  24.933  0.00  0.00     0.202 C 
HETATM   21  C   UNL     1      -1.075  11.149  23.616  0.00  0.00     0.202 C 
HETATM   22  O   UNL     1      -0.903  12.567  23.509  0.00  0.00    -0.346 OA
HETATM   23  C   UNL     1       0.746  14.240  23.574  0.00  0.00     0.042 A 
HETATM   24  C   UNL     1       2.029  14.684  23.912  0.00  0.00     0.032 A 
ENDBRANCH  13  15
ENDBRANCH   1  11
BRANCH   2  25
HETATM   25  O   UNL     1       6.970  13.120  26.768  0.00  0.00    -0.360 OA
HETATM   26  H   UNL     1       5.999  13.200  26.718  0.00  0.00     0.217 HD
ENDBRANCH   2  25
BRANCH   8  27
HETATM   27  C   UNL     1      10.290  16.064  21.587  0.00  0.00     0.100 C 
BRANCH  27  28
HETATM   28  C   UNL     1      10.472  14.780  20.823  0.00  0.00    -0.052 A 
HETATM   29  C   UNL     1       9.339  14.152  20.289  0.00  0.00     0.014 A 
HETATM   30  C   UNL     1       9.398  12.842  19.808  0.00  0.00    -0.061 A 
HETATM   31  C   UNL     1       8.134  12.142  19.405  0.00  0.00     0.048 C 
HETATM   32  C   UNL     1      10.632  12.188  19.756  0.00  0.00     0.007 A 
HETATM   33  C   UNL     1      11.781  12.820  20.237  0.00  0.00     0.001 A 
HETATM   34  C   UNL     1      11.700  14.103  20.787  0.00  0.00     0.007 A 
ENDBRANCH  27  28
ENDBRANCH   8  27
TORSDOF 5
ENDMDL
MODEL 9
REMARK VINA RESULT:    -8.561      4.322      7.852
REMARK INTER + INTRA:         -12.087
REMARK INTER:                 -10.813
REMARK INTRA:                  -1.275
REMARK UNBOUND:                -1.275
REMARK  5 active torsions:
REMARK  status: ('A' for Active; 'I' for Inactive)
REMARK       I    between atoms: C_2  and  N_3 
REMARK    1  A    between atoms: C_2  and  C_15 
REMARK    2  A    between atoms: N_3  and  C_5 
REMARK    3  A    between atoms: C_16  and  O_17 
REMARK    4  A    between atoms: C_23  and  C_24 
REMARK    5  A    between atoms: C_24  and  C_25 
ROOT
HETATM    1  C   UNL     1       7.630  10.807  23.820  0.00  0.00     0.066 C 
HETATM    2  C   UNL     1       8.673  10.603  24.728  0.00  0.00     0.083 C 
HETATM    3  C   UNL     1       9.025  11.568  25.679  0.00  0.00     0.069 C 
HETATM    4  C   UNL     1       8.383  12.805  25.617  0.00  0.00     0.065 A 
HETATM    5  N   UNL     1       8.560  13.939  26.359  0.00  0.00    -0.277 N 
HETATM    6  H   UNL     1       9.204  14.078  27.129  0.00  0.00     0.189 HD
HETATM    7  N   UNL     1       7.832  14.983  25.954  0.00  0.00    -0.178 NA
HETATM    8  C   UNL     1       7.138  14.520  24.898  0.00  0.00     0.071 A 
HETATM    9  C   UNL     1       7.425  13.130  24.658  0.00  0.00     0.020 A 
HETATM   10  C   UNL     1       7.047  12.109  23.749  0.00  0.00     0.035 C 
ENDROOT
BRANCH   1  11
HETATM   11  C   UNL     1       7.136   9.780  22.829  0.00  0.00     0.260 C 
HETATM   12  O   UNL     1       7.600   9.924  21.695  0.00  0.00    -0.267 OA
HETATM   13  N   UNL     1       6.187   8.768  23.167  0.00  0.00    -0.318 N 
HETATM   14  C   UNL     1       5.439   8.765  24.437  0.00  0.00     0.159 C 
BRANCH  13  15
HETATM   15  C   UNL     1       5.798   7.731  22.205  0.00  0.00     0.039 A 
HETATM   16  C   UNL     1       4.647   7.833  21.404  0.00  0.00     0.069 A 
HETATM   17  C   UNL     1       4.285   6.825  20.495  0.00  0.00     0.104 A 
HETATM   18  O   UNL     1       3.158   7.046  19.739  0.00  0.00    -0.346 OA
HETATM   19  C   UNL     1       5.047   5.666  20.386  0.00  0.00     0.102 A 
HETATM   20  C   UNL     1       3.089   6.139  18.632  0.00  0.00     0.202 C 
HETATM   21  C   UNL     1       3.383   4.720  19.085  0.00  0.00     0.202 C 
HETATM   22  O   UNL     1       4.730   4.618  19.563  0.00  0.00    -0.346 OA
HETATM   23  C   UNL     1       6.211   5.547  21.133  0.00  0.00     0.042 A 
HETATM   24  C   UNL     1       6.582   6.570  22.012  0.00  0.00     0.032 A 
ENDBRANCH  13  15
ENDBRANCH   1  11
BRANCH   2  25
HETATM   25  O   UNL     1       9.468   9.484  24.741  0.00  0.00    -0.360 OA
HETATM   26  H   UNL     1       8.996   8.765  24.281  0.00  0.00     0.217 HD
ENDBRANCH   2  25
BRANCH   8  27
HETATM   27  C   UNL     1       6.367  15.527  24.111  0.00  0.00     0.100 C 
BRANCH  27  28
HETATM   28  C   UNL     1       4.887  15.379  24.339  0.00  0.00    -0.052 A 
HETATM   29  C   UNL     1       4.343  15.855  25.538  0.00  0.00     0.014 A 
HETATM   30  C   UNL     1       3.045  15.518  25.928  0.00  0.00    -0.061 A 
HETATM   31  C   UNL     1       2.557  15.899  27.294  0.00  0.00     0.048 C 
HETATM   32  C   UNL     1       2.238  14.784  25.054  0.00  0.00     0.007 A 
HETATM   33  C   UNL     1       2.749  14.345  23.830  0.00  0.00     0.001 A 
HETATM   34  C   UNL     1       4.074  14.624  23.481  0.00  0.00     0.007 A 
ENDBRANCH  27  28
ENDBRANCH   8  27
TORSDOF 5
ENDMDL
