MODEL 1
REMARK VINA RESULT:    -8.466      0.000      0.000
REMARK INTER + INTRA:         -12.852
REMARK INTER:                 -11.734
REMARK INTRA:                  -1.118
REMARK UNBOUND:                -2.159
REMARK  5 active torsions:
REMARK  status: ('A' for Active; 'I' for Inactive)
REMARK       I    between atoms: N_8  and  C_10 
REMARK    1  A    between atoms: C_10  and  C_12 
REMARK    2  A    between atoms: C_14  and  N_15 
REMARK    3  A    between atoms: C_21  and  C_23 
REMARK    4  A    between atoms: C_28  and  S_29 
REMARK    5  A    between atoms: S_29  and  N_32 
ROOT
HETATM    1  C   UNL     1       0.599  10.208  25.232  0.00  0.00     0.156 A 
HETATM    2  N   UNL     1      -0.005  11.418  25.393  0.00  0.00    -0.057 NA
HETATM    3  C   UNL     1       0.642  12.471  24.919  0.00  0.00     0.721 A 
HETATM    4  N   UNL     1       1.824  12.392  24.307  0.00  0.00    -0.063 NA
HETATM    5  C   UNL     1       2.413  11.183  24.146  0.00  0.00     0.088 A 
HETATM    6  C   UNL     1       1.841   9.988  24.561  0.00  0.00     0.029 A 
HETATM    7  C   UNL     1       3.677  11.107  23.557  0.00  0.00     0.034 A 
HETATM    8  C   UNL     1       4.396   9.894  23.350  0.00  0.00     0.014 A 
HETATM    9  C   UNL     1       3.871   8.648  23.706  0.00  0.00    -0.023 A 
HETATM   10  C   UNL     1       2.568   8.735  24.282  0.00  0.00     0.028 A 
ENDROOT
BRANCH   9  11
HETATM   11  C   UNL     1       4.582   7.325  23.408  0.00  0.00    -0.003 A 
HETATM   12  C   UNL     1       5.213   6.638  24.479  0.00  0.00     0.014 A 
HETATM   13  C   UNL     1       5.863   5.383  24.346  0.00  0.00     0.001 A 
HETATM   14  C   UNL     1       5.855   4.689  23.155  0.00  0.00     0.002 A 
HETATM   15  C   UNL     1       5.273   5.326  22.060  0.00  0.00     0.026 A 
HETATM   16  C   UNL     1       4.700   6.633  22.168  0.00  0.00     0.090 A 
BRANCH  16  17
HETATM   17  S   UNL     1       4.515   7.359  20.546  0.00  0.00     0.261 S 
HETATM   18  O   UNL     1       3.477   8.359  20.605  0.00  0.00    -0.200 OA
HETATM   19  O   UNL     1       5.788   7.615  19.924  0.00  0.00    -0.200 OA
BRANCH  17  20
HETATM   20  N   UNL     1       3.905   6.012  19.690  0.00  0.00    -0.303 N 
HETATM   21  C   UNL     1       4.519   5.723  18.372  0.00  0.00     0.163 C 
HETATM   22  C   UNL     1       3.701   6.197  17.160  0.00  0.00     0.255 C 
HETATM   23  N   UNL     1       2.189   6.098  17.302  0.00  0.00    -0.072 N 
HETATM   24  H   UNL     1       1.937   5.154  16.981  0.00  0.00     0.279 HD
HETATM   25  C   UNL     1       1.481   7.072  16.381  0.00  0.00     0.269 C 
HETATM   26  C   UNL     1       1.624   6.264  18.704  0.00  0.00     0.255 C 
HETATM   27  C   UNL     1       2.483   5.653  19.808  0.00  0.00     0.163 C 
ENDBRANCH  17  20
ENDBRANCH  16  17
ENDBRANCH   9  11
BRANCH   1  28
HETATM   28  C   UNL     1      -0.035   9.100  26.040  0.00  0.00     0.274 C 
HETATM   29  N   UNL     1       0.581   8.574  27.174  0.00  0.00    -0.342 N 
HETATM   30  C   UNL     1       1.761   9.066  27.882  0.00  0.00     0.161 C 
HETATM   31  C   UNL     1      -0.003   7.440  27.890  0.00  0.00     0.139 C 
HETATM   32  C   UNL     1       1.496   8.617  29.294  0.00  0.00    -0.056 C 
HETATM   33  C   UNL     1       2.204   8.864  30.411  0.00  0.00    -0.018 C 
HETATM   34  C   UNL     1       0.247   7.764  29.356  0.00  0.00     0.056 C 
HETATM   35  C   UNL     1       1.824   8.202  31.720  0.00  0.00     0.054 C 
HETATM   36  C   UNL     1       1.072   6.904  31.505  0.00  0.00    -0.026 C 
HETATM   37  C   UNL     1       0.378   6.664  30.374  0.00  0.00    -0.020 C 
HETATM   38  O   UNL     1      -1.103   8.631  25.633  0.00  0.00    -0.266 OA
ENDBRANCH   1  28
BRANCH   3  39
HETATM   39  N   UNL     1       0.061  13.706  25.101  0.00  0.00    -0.231 N 
HETATM   40  H   UNL     1      -0.846  13.801  24.668  0.00  0.00     0.174 HD
HETATM   41  H   UNL     1       0.709  14.476  25.027  0.00  0.00     0.174 HD
ENDBRANCH   3  39
TORSDOF 5
ENDMDL
MODEL 2
REMARK VINA RESULT:    -8.402      2.475      5.077
REMARK INTER + INTRA:         -12.772
REMARK INTER:                 -11.306
REMARK INTRA:                  -1.466
REMARK UNBOUND:                -2.159
REMARK  5 active torsions:
REMARK  status: ('A' for Active; 'I' for Inactive)
REMARK       I    between atoms: N_8  and  C_10 
REMARK    1  A    between atoms: C_10  and  C_12 
REMARK    2  A    between atoms: C_14  and  N_15 
REMARK    3  A    between atoms: C_21  and  C_23 
REMARK    4  A    between atoms: C_28  and  S_29 
REMARK    5  A    between atoms: S_29  and  N_32 
ROOT
HETATM    1  C   UNL     1       1.167   7.317  26.146  0.00  0.00     0.156 A 
HETATM    2  N   UNL     1       0.946   7.028  27.459  0.00  0.00    -0.057 NA
HETATM    3  C   UNL     1       1.895   6.351  28.084  0.00  0.00     0.721 A 
HETATM    4  N   UNL     1       3.024   5.955  27.496  0.00  0.00    -0.063 NA
HETATM    5  C   UNL     1       3.237   6.253  26.192  0.00  0.00     0.088 A 
HETATM    6  C   UNL     1       2.349   6.984  25.416  0.00  0.00     0.029 A 
HETATM    7  C   UNL     1       4.394   5.788  25.561  0.00  0.00     0.034 A 
HETATM    8  C   UNL     1       4.714   6.027  24.193  0.00  0.00     0.014 A 
HETATM    9  C   UNL     1       3.889   6.786  23.358  0.00  0.00    -0.023 A 
HETATM   10  C   UNL     1       2.725   7.278  24.019  0.00  0.00     0.028 A 
ENDROOT
BRANCH   9  11
HETATM   11  C   UNL     1       4.258   7.136  21.913  0.00  0.00    -0.003 A 
HETATM   12  C   UNL     1       4.716   8.451  21.630  0.00  0.00     0.014 A 
HETATM   13  C   UNL     1       5.133   8.889  20.345  0.00  0.00     0.001 A 
HETATM   14  C   UNL     1       5.202   8.022  19.276  0.00  0.00     0.002 A 
HETATM   15  C   UNL     1       4.741   6.724  19.487  0.00  0.00     0.026 A 
HETATM   16  C   UNL     1       4.230   6.305  20.756  0.00  0.00     0.090 A 
BRANCH  16  17
HETATM   17  S   UNL     1       3.273   4.808  20.570  0.00  0.00     0.261 S 
HETATM   18  O   UNL     1       4.179   3.693  20.457  0.00  0.00    -0.200 OA
HETATM   19  O   UNL     1       2.137   4.784  21.456  0.00  0.00    -0.200 OA
BRANCH  17  20
HETATM   20  N   UNL     1       2.584   5.089  19.031  0.00  0.00    -0.303 N 
HETATM   21  C   UNL     1       1.479   6.074  18.962  0.00  0.00     0.163 C 
HETATM   22  C   UNL     1       0.070   5.462  18.897  0.00  0.00     0.255 C 
HETATM   23  N   UNL     1      -0.052   4.166  18.108  0.00  0.00    -0.072 N 
HETATM   24  H   UNL     1      -0.232   4.445  17.134  0.00  0.00     0.279 HD
HETATM   25  C   UNL     1      -1.252   3.356  18.555  0.00  0.00     0.269 C 
HETATM   26  C   UNL     1       1.166   3.256  18.099  0.00  0.00     0.255 C 
HETATM   27  C   UNL     1       2.504   3.991  18.055  0.00  0.00     0.163 C 
ENDBRANCH  17  20
ENDBRANCH  16  17
ENDBRANCH   9  11
BRANCH   1  28
HETATM   28  C   UNL     1      -0.058   7.824  25.420  0.00  0.00     0.274 C 
HETATM   29  N   UNL     1      -0.327   9.186  25.300  0.00  0.00    -0.342 N 
HETATM   30  C   UNL     1       0.530  10.320  25.636  0.00  0.00     0.161 C 
HETATM   31  C   UNL     1      -1.565   9.654  24.675  0.00  0.00     0.139 C 
HETATM   32  C   UNL     1       0.066  11.370  24.664  0.00  0.00    -0.056 C 
HETATM   33  C   UNL     1       0.557  12.604  24.447  0.00  0.00    -0.018 C 
HETATM   34  C   UNL     1      -1.133  10.879  23.880  0.00  0.00     0.056 C 
HETATM   35  C   UNL     1      -0.148  13.553  23.500  0.00  0.00     0.054 C 
HETATM   36  C   UNL     1      -1.623  13.231  23.363  0.00  0.00    -0.026 C 
HETATM   37  C   UNL     1      -2.103  11.992  23.598  0.00  0.00    -0.020 C 
HETATM   38  O   UNL     1      -0.849   6.986  24.977  0.00  0.00    -0.266 OA
ENDBRANCH   1  28
BRANCH   3  39
HETATM   39  N   UNL     1       1.675   6.024  29.404  0.00  0.00    -0.231 N 
HETATM   40  H   UNL     1       2.481   5.635  29.871  0.00  0.00     0.174 HD
HETATM   41  H   UNL     1       0.775   5.601  29.574  0.00  0.00     0.174 HD
ENDBRANCH   3  39
TORSDOF 5
ENDMDL
MODEL 3
REMARK VINA RESULT:    -8.376      2.623      5.226
REMARK INTER + INTRA:         -12.738
REMARK INTER:                 -11.110
REMARK INTRA:                  -1.629
REMARK UNBOUND:                -2.159
REMARK  5 active torsions:
REMARK  status: ('A' for Active; 'I' for Inactive)
REMARK       I    between atoms: N_8  and  C_10 
REMARK    1  A    between atoms: C_10  and  C_12 
REMARK    2  A    between atoms: C_14  and  N_15 
REMARK    3  A    between atoms: C_21  and  C_23 
REMARK    4  A    between atoms: C_28  and  S_29 
REMARK    5  A    between atoms: S_29  and  N_32 
ROOT
HETATM    1  C   UNL     1       1.102   7.725  26.757  0.00  0.00     0.156 A 
HETATM    2  N   UNL     1       0.835   7.541  28.080  0.00  0.00    -0.057 NA
HETATM    3  C   UNL     1       1.807   7.025  28.814  0.00  0.00     0.721 A 
HETATM    4  N   UNL     1       3.001   6.690  28.322  0.00  0.00    -0.063 NA
HETATM    5  C   UNL     1       3.258   6.883  27.006  0.00  0.00     0.088 A 
HETATM    6  C   UNL     1       2.349   7.444  26.120  0.00  0.00     0.029 A 
HETATM    7  C   UNL     1       4.487   6.478  26.479  0.00  0.00     0.034 A 
HETATM    8  C   UNL     1       4.859   6.617  25.112  0.00  0.00     0.014 A 
HETATM    9  C   UNL     1       4.015   7.207  24.166  0.00  0.00    -0.023 A 
HETATM   10  C   UNL     1       2.774   7.640  24.720  0.00  0.00     0.028 A 
ENDROOT
BRANCH   9  11
HETATM   11  C   UNL     1       4.430   7.454  22.713  0.00  0.00    -0.003 A 
HETATM   12  C   UNL     1       4.247   8.752  22.167  0.00  0.00     0.014 A 
HETATM   13  C   UNL     1       4.633   9.124  20.851  0.00  0.00     0.001 A 
HETATM   14  C   UNL     1       5.302   8.250  20.023  0.00  0.00     0.002 A 
HETATM   15  C   UNL     1       5.487   6.952  20.495  0.00  0.00     0.026 A 
HETATM   16  C   UNL     1       5.015   6.546  21.784  0.00  0.00     0.090 A 
BRANCH  16  17
HETATM   17  S   UNL     1       4.942   4.764  21.879  0.00  0.00     0.261 S 
HETATM   18  O   UNL     1       5.198   4.222  20.567  0.00  0.00    -0.200 OA
HETATM   19  O   UNL     1       5.602   4.261  23.055  0.00  0.00    -0.200 OA
BRANCH  17  20
HETATM   20  N   UNL     1       3.280   4.556  22.222  0.00  0.00    -0.303 N 
HETATM   21  C   UNL     1       2.909   3.381  23.045  0.00  0.00     0.163 C 
HETATM   22  C   UNL     1       2.354   2.186  22.254  0.00  0.00     0.255 C 
HETATM   23  N   UNL     1       1.498   2.534  21.044  0.00  0.00    -0.072 N 
HETATM   24  H   UNL     1       0.536   2.625  21.396  0.00  0.00     0.279 HD
HETATM   25  C   UNL     1       1.484   1.406  20.033  0.00  0.00     0.269 C 
HETATM   26  C   UNL     1       1.836   3.827  20.319  0.00  0.00     0.255 C 
HETATM   27  C   UNL     1       2.272   4.969  21.233  0.00  0.00     0.163 C 
ENDBRANCH  17  20
ENDBRANCH  16  17
ENDBRANCH   9  11
BRANCH   1  28
HETATM   28  C   UNL     1      -0.123   8.035  25.927  0.00  0.00     0.274 C 
HETATM   29  N   UNL     1      -0.474   9.343  25.600  0.00  0.00    -0.342 N 
HETATM   30  C   UNL     1       0.294  10.570  25.792  0.00  0.00     0.161 C 
HETATM   31  C   UNL     1      -1.713   9.629  24.876  0.00  0.00     0.139 C 
HETATM   32  C   UNL     1      -0.197  11.435  24.662  0.00  0.00    -0.056 C 
HETATM   33  C   UNL     1       0.222  12.655  24.282  0.00  0.00    -0.018 C 
HETATM   34  C   UNL     1      -1.329  10.753  23.923  0.00  0.00     0.056 C 
HETATM   35  C   UNL     1      -0.504  13.407  23.184  0.00  0.00     0.054 C 
HETATM   36  C   UNL     1      -1.948  12.966  23.052  0.00  0.00    -0.026 C 
HETATM   37  C   UNL     1      -2.357  11.744  23.451  0.00  0.00    -0.020 C 
HETATM   38  O   UNL     1      -0.840   7.089  25.588  0.00  0.00    -0.266 OA
ENDBRANCH   1  28
BRANCH   3  39
HETATM   39  N   UNL     1       1.545   6.804  30.148  0.00  0.00    -0.231 N 
HETATM   40  H   UNL     1       1.617   5.836  30.426  0.00  0.00     0.174 HD
HETATM   41  H   UNL     1       0.775   7.348  30.507  0.00  0.00     0.174 HD
ENDBRANCH   3  39
TORSDOF 5
ENDMDL
MODEL 4
REMARK VINA RESULT:    -8.336      2.742      5.242
REMARK INTER + INTRA:         -12.687
REMARK INTER:                 -11.112
REMARK INTRA:                  -1.575
REMARK UNBOUND:                -2.159
REMARK  5 active torsions:
REMARK  status: ('A' for Active; 'I' for Inactive)
REMARK       I    between atoms: N_8  and  C_10 
REMARK    1  A    between atoms: C_10  and  C_12 
REMARK    2  A    between atoms: C_14  and  N_15 
REMARK    3  A    between atoms: C_21  and  C_23 
REMARK    4  A    between atoms: C_28  and  S_29 
REMARK    5  A    between atoms: S_29  and  N_32 
ROOT
HETATM    1  C   UNL     1       2.033   7.523  26.221  0.00  0.00     0.156 A 
HETATM    2  N   UNL     1       2.153   7.393  27.572  0.00  0.00    -0.057 NA
HETATM    3  C   UNL     1       3.301   6.910  28.020  0.00  0.00     0.721 A 
HETATM    4  N   UNL     1       4.312   6.560  27.224  0.00  0.00    -0.063 NA
HETATM    5  C   UNL     1       4.184   6.700  25.883  0.00  0.00     0.088 A 
HETATM    6  C   UNL     1       3.054   7.222  25.269  0.00  0.00     0.029 A 
HETATM    7  C   UNL     1       5.220   6.279  25.046  0.00  0.00     0.034 A 
HETATM    8  C   UNL     1       5.189   6.364  23.624  0.00  0.00     0.014 A 
HETATM    9  C   UNL     1       4.104   6.911  22.934  0.00  0.00    -0.023 A 
HETATM   10  C   UNL     1       3.063   7.362  23.800  0.00  0.00     0.028 A 
ENDROOT
BRANCH   9  11
HETATM   11  C   UNL     1       4.088   7.100  21.415  0.00  0.00    -0.003 A 
HETATM   12  C   UNL     1       3.762   8.381  20.894  0.00  0.00     0.014 A 
HETATM   13  C   UNL     1       3.758   8.700  19.510  0.00  0.00     0.001 A 
HETATM   14  C   UNL     1       4.159   7.788  18.559  0.00  0.00     0.002 A 
HETATM   15  C   UNL     1       4.466   6.504  19.008  0.00  0.00     0.026 A 
HETATM   16  C   UNL     1       4.379   6.151  20.393  0.00  0.00     0.090 A 
BRANCH  16  17
HETATM   17  S   UNL     1       4.329   4.375  20.573  0.00  0.00     0.261 S 
HETATM   18  O   UNL     1       4.343   3.779  19.260  0.00  0.00    -0.200 OA
HETATM   19  O   UNL     1       5.194   3.918  21.629  0.00  0.00    -0.200 OA
BRANCH  17  20
HETATM   20  N   UNL     1       2.758   4.190  21.221  0.00  0.00    -0.303 N 
HETATM   21  C   UNL     1       2.528   3.013  22.092  0.00  0.00     0.163 C 
HETATM   22  C   UNL     1       1.814   1.835  21.412  0.00  0.00     0.255 C 
HETATM   23  N   UNL     1       0.752   2.208  20.386  0.00  0.00    -0.072 N 
HETATM   24  H   UNL     1      -0.125   2.310  20.914  0.00  0.00     0.279 HD
HETATM   25  C   UNL     1       0.528   1.090  19.388  0.00  0.00     0.269 C 
HETATM   26  C   UNL     1       0.970   3.502  19.619  0.00  0.00     0.255 C 
HETATM   27  C   UNL     1       1.589   4.629  20.442  0.00  0.00     0.163 C 
ENDBRANCH  17  20
ENDBRANCH  16  17
ENDBRANCH   9  11
BRANCH   1  28
HETATM   28  C   UNL     1       0.619   7.795  25.761  0.00  0.00     0.274 C 
HETATM   29  N   UNL     1       0.160   9.091  25.529  0.00  0.00    -0.342 N 
HETATM   30  C   UNL     1       0.923  10.336  25.486  0.00  0.00     0.161 C 
HETATM   31  C   UNL     1      -1.237   9.340  25.173  0.00  0.00     0.139 C 
HETATM   32  C   UNL     1       0.118  11.170  24.527  0.00  0.00    -0.056 C 
HETATM   33  C   UNL     1       0.386  12.392  24.031  0.00  0.00    -0.018 C 
HETATM   34  C   UNL     1      -1.158  10.454  24.139  0.00  0.00     0.056 C 
HETATM   35  C   UNL     1      -0.633  13.110  23.170  0.00  0.00     0.054 C 
HETATM   36  C   UNL     1      -2.047  12.639  23.448  0.00  0.00    -0.026 C 
HETATM   37  C   UNL     1      -2.300  11.416  23.959  0.00  0.00    -0.020 C 
HETATM   38  O   UNL     1      -0.142   6.830  25.644  0.00  0.00    -0.266 OA
ENDBRANCH   1  28
BRANCH   3  39
HETATM   39  N   UNL     1       3.429   6.743  29.381  0.00  0.00    -0.231 N 
HETATM   40  H   UNL     1       2.663   6.243  29.807  0.00  0.00     0.174 HD
HETATM   41  H   UNL     1       3.794   7.553  29.858  0.00  0.00     0.174 HD
ENDBRANCH   3  39
TORSDOF 5
ENDMDL
MODEL 5
REMARK VINA RESULT:    -8.228      2.877      5.394
REMARK INTER + INTRA:         -12.551
REMARK INTER:                 -11.106
REMARK INTRA:                  -1.446
REMARK UNBOUND:                -2.159
REMARK  5 active torsions:
REMARK  status: ('A' for Active; 'I' for Inactive)
REMARK       I    between atoms: N_8  and  C_10 
REMARK    1  A    between atoms: C_10  and  C_12 
REMARK    2  A    between atoms: C_14  and  N_15 
REMARK    3  A    between atoms: C_21  and  C_23 
REMARK    4  A    between atoms: C_28  and  S_29 
REMARK    5  A    between atoms: S_29  and  N_32 
ROOT
HETATM    1  C   UNL     1       2.070   7.683  26.283  0.00  0.00     0.156 A 
HETATM    2  N   UNL     1       2.304   7.610  27.622  0.00  0.00    -0.057 NA
HETATM    3  C   UNL     1       3.492   7.160  27.992  0.00  0.00     0.721 A 
HETATM    4  N   UNL     1       4.439   6.791  27.129  0.00  0.00    -0.063 NA
HETATM    5  C   UNL     1       4.199   6.874  25.799  0.00  0.00     0.088 A 
HETATM    6  C   UNL     1       3.014   7.356  25.261  0.00  0.00     0.029 A 
HETATM    7  C   UNL     1       5.169   6.433  24.896  0.00  0.00     0.034 A 
HETATM    8  C   UNL     1       5.019   6.459  23.480  0.00  0.00     0.014 A 
HETATM    9  C   UNL     1       3.872   6.964  22.862  0.00  0.00    -0.023 A 
HETATM   10  C   UNL     1       2.899   7.437  23.792  0.00  0.00     0.028 A 
ENDROOT
BRANCH   9  11
HETATM   11  C   UNL     1       3.727   7.091  21.342  0.00  0.00    -0.003 A 
HETATM   12  C   UNL     1       4.030   8.338  20.734  0.00  0.00     0.014 A 
HETATM   13  C   UNL     1       3.982   8.573  19.334  0.00  0.00     0.001 A 
HETATM   14  C   UNL     1       3.711   7.559  18.442  0.00  0.00     0.002 A 
HETATM   15  C   UNL     1       3.380   6.317  18.982  0.00  0.00     0.026 A 
HETATM   16  C   UNL     1       3.334   6.100  20.396  0.00  0.00     0.090 A 
BRANCH  16  17
HETATM   17  S   UNL     1       2.409   4.617  20.761  0.00  0.00     0.261 S 
HETATM   18  O   UNL     1       2.829   4.117  22.047  0.00  0.00    -0.200 OA
HETATM   19  O   UNL     1       1.019   4.752  20.411  0.00  0.00    -0.200 OA
BRANCH  17  20
HETATM   20  N   UNL     1       3.034   3.577  19.558  0.00  0.00    -0.303 N 
HETATM   21  C   UNL     1       2.049   2.811  18.757  0.00  0.00     0.163 C 
HETATM   22  C   UNL     1       1.869   1.346  19.184  0.00  0.00     0.255 C 
HETATM   23  N   UNL     1       3.126   0.639  19.672  0.00  0.00    -0.072 N 
HETATM   24  H   UNL     1       3.568   0.241  18.833  0.00  0.00     0.279 HD
HETATM   25  C   UNL     1       2.789  -0.527  20.579  0.00  0.00     0.269 C 
HETATM   26  C   UNL     1       4.168   1.503  20.364  0.00  0.00     0.255 C 
HETATM   27  C   UNL     1       4.324   2.902  19.773  0.00  0.00     0.163 C 
ENDBRANCH  17  20
ENDBRANCH  16  17
ENDBRANCH   9  11
BRANCH   1  28
HETATM   28  C   UNL     1       0.619   7.918  25.931  0.00  0.00     0.274 C 
HETATM   29  N   UNL     1       0.131   9.191  25.642  0.00  0.00    -0.342 N 
HETATM   30  C   UNL     1       0.878  10.430  25.435  0.00  0.00     0.161 C 
HETATM   31  C   UNL     1      -1.294   9.412  25.395  0.00  0.00     0.139 C 
HETATM   32  C   UNL     1      -0.016  11.188  24.491  0.00  0.00    -0.056 C 
HETATM   33  C   UNL     1       0.199  12.367  23.880  0.00  0.00    -0.018 C 
HETATM   34  C   UNL     1      -1.316  10.443  24.275  0.00  0.00     0.056 C 
HETATM   35  C   UNL     1      -0.899  13.016  23.061  0.00  0.00     0.054 C 
HETATM   36  C   UNL     1      -2.279  12.567  23.501  0.00  0.00    -0.026 C 
HETATM   37  C   UNL     1      -2.476  11.388  24.125  0.00  0.00    -0.020 C 
HETATM   38  O   UNL     1      -0.142   6.946  25.958  0.00  0.00    -0.266 OA
ENDBRANCH   1  28
BRANCH   3  39
HETATM   39  N   UNL     1       3.735   7.051  29.343  0.00  0.00    -0.231 N 
HETATM   40  H   UNL     1       3.862   7.936  29.811  0.00  0.00     0.174 HD
HETATM   41  H   UNL     1       4.351   6.290  29.586  0.00  0.00     0.174 HD
ENDBRANCH   3  39
TORSDOF 5
ENDMDL
MODEL 6
REMARK VINA RESULT:    -8.123      3.514      6.452
REMARK INTER + INTRA:         -12.419
REMARK INTER:                 -10.970
REMARK INTRA:                  -1.449
REMARK UNBOUND:                -2.159
REMARK  5 active torsions:
REMARK  status: ('A' for Active; 'I' for Inactive)
REMARK       I    between atoms: N_8  and  C_10 
REMARK    1  A    between atoms: C_10  and  C_12 
REMARK    2  A    between atoms: C_14  and  N_15 
REMARK    3  A    between atoms: C_21  and  C_23 
REMARK    4  A    between atoms: C_28  and  S_29 
REMARK    5  A    between atoms: S_29  and  N_32 
ROOT
HETATM    1  C   UNL     1       5.472   7.027  21.123  0.00  0.00     0.156 A 
HETATM    2  N   UNL     1       6.316   8.057  20.837  0.00  0.00    -0.057 NA
HETATM    3  C   UNL     1       6.532   8.306  19.555  0.00  0.00     0.721 A 
HETATM    4  N   UNL     1       5.971   7.610  18.566  0.00  0.00    -0.063 NA
HETATM    5  C   UNL     1       5.128   6.592  18.862  0.00  0.00     0.088 A 
HETATM    6  C   UNL     1       4.780   6.234  20.157  0.00  0.00     0.029 A 
HETATM    7  C   UNL     1       4.586   5.825  17.828  0.00  0.00     0.034 A 
HETATM    8  C   UNL     1       3.702   4.725  18.022  0.00  0.00     0.014 A 
HETATM    9  C   UNL     1       3.276   4.327  19.292  0.00  0.00    -0.023 A 
HETATM   10  C   UNL     1       3.814   5.133  20.339  0.00  0.00     0.028 A 
ENDROOT
BRANCH   9  11
HETATM   11  C   UNL     1       2.253   3.210  19.519  0.00  0.00    -0.003 A 
HETATM   12  C   UNL     1       2.722   1.941  19.955  0.00  0.00     0.014 A 
HETATM   13  C   UNL     1       1.876   0.839  20.247  0.00  0.00     0.001 A 
HETATM   14  C   UNL     1       0.503   0.952  20.206  0.00  0.00     0.002 A 
HETATM   15  C   UNL     1      -0.015   2.167  19.759  0.00  0.00     0.026 A 
HETATM   16  C   UNL     1       0.837   3.250  19.372  0.00  0.00     0.090 A 
BRANCH  16  17
HETATM   17  S   UNL     1      -0.077   4.431  18.392  0.00  0.00     0.261 S 
HETATM   18  O   UNL     1      -1.423   3.943  18.220  0.00  0.00    -0.200 OA
HETATM   19  O   UNL     1       0.199   5.787  18.790  0.00  0.00    -0.200 OA
BRANCH  17  20
HETATM   20  N   UNL     1       0.740   4.269  16.900  0.00  0.00    -0.303 N 
HETATM   21  C   UNL     1       0.729   5.446  15.999  0.00  0.00     0.163 C 
HETATM   22  C   UNL     1      -0.287   5.371  14.849  0.00  0.00     0.255 C 
HETATM   23  N   UNL     1      -0.511   3.989  14.252  0.00  0.00    -0.072 N 
HETATM   24  H   UNL     1       0.193   3.887  13.509  0.00  0.00     0.279 HD
HETATM   25  C   UNL     1      -1.866   3.888  13.581  0.00  0.00     0.269 C 
HETATM   26  C   UNL     1      -0.349   2.806  15.192  0.00  0.00     0.255 C 
HETATM   27  C   UNL     1       0.769   2.963  16.220  0.00  0.00     0.163 C 
ENDBRANCH  17  20
ENDBRANCH  16  17
ENDBRANCH   9  11
BRANCH   1  28
HETATM   28  C   UNL     1       5.495   6.608  22.575  0.00  0.00     0.274 C 
HETATM   29  N   UNL     1       4.719   7.253  23.537  0.00  0.00    -0.342 N 
HETATM   30  C   UNL     1       3.663   8.243  23.344  0.00  0.00     0.161 C 
HETATM   31  C   UNL     1       4.825   6.894  24.951  0.00  0.00     0.139 C 
HETATM   32  C   UNL     1       2.772   7.995  24.531  0.00  0.00    -0.056 C 
HETATM   33  C   UNL     1       1.587   8.555  24.836  0.00  0.00    -0.018 C 
HETATM   34  C   UNL     1       3.391   6.969  25.456  0.00  0.00     0.056 C 
HETATM   35  C   UNL     1       0.914   8.250  26.159  0.00  0.00     0.054 C 
HETATM   36  C   UNL     1       1.910   7.826  27.220  0.00  0.00    -0.026 C 
HETATM   37  C   UNL     1       3.100   7.279  26.899  0.00  0.00    -0.020 C 
HETATM   38  O   UNL     1       6.270   5.702  22.899  0.00  0.00    -0.266 OA
ENDBRANCH   1  28
BRANCH   3  39
HETATM   39  N   UNL     1       7.406   9.325  19.247  0.00  0.00    -0.231 N 
HETATM   40  H   UNL     1       7.000  10.059  18.685  0.00  0.00     0.174 HD
HETATM   41  H   UNL     1       8.336   9.008  19.018  0.00  0.00     0.174 HD
ENDBRANCH   3  39
TORSDOF 5
ENDMDL
MODEL 7
REMARK VINA RESULT:    -8.062      1.959      2.690
REMARK INTER + INTRA:         -12.342
REMARK INTER:                 -10.775
REMARK INTRA:                  -1.567
REMARK UNBOUND:                -2.159
REMARK  5 active torsions:
REMARK  status: ('A' for Active; 'I' for Inactive)
REMARK       I    between atoms: N_8  and  C_10 
REMARK    1  A    between atoms: C_10  and  C_12 
REMARK    2  A    between atoms: C_14  and  N_15 
REMARK    3  A    between atoms: C_21  and  C_23 
REMARK    4  A    between atoms: C_28  and  S_29 
REMARK    5  A    between atoms: S_29  and  N_32 
ROOT
HETATM    1  C   UNL     1       1.948   8.439  24.628  0.00  0.00     0.156 A 
HETATM    2  N   UNL     1       1.808   9.789  24.740  0.00  0.00    -0.057 NA
HETATM    3  C   UNL     1       2.696  10.531  24.098  0.00  0.00     0.721 A 
HETATM    4  N   UNL     1       3.688  10.023  23.368  0.00  0.00    -0.063 NA
HETATM    5  C   UNL     1       3.814   8.679  23.257  0.00  0.00     0.088 A 
HETATM    6  C   UNL     1       2.942   7.774  23.846  0.00  0.00     0.029 A 
HETATM    7  C   UNL     1       4.888   8.145  22.540  0.00  0.00     0.034 A 
HETATM    8  C   UNL     1       5.128   6.751  22.371  0.00  0.00     0.014 A 
HETATM    9  C   UNL     1       4.274   5.779  22.900  0.00  0.00    -0.023 A 
HETATM   10  C   UNL     1       3.166   6.335  23.608  0.00  0.00     0.028 A 
ENDROOT
BRANCH   9  11
HETATM   11  C   UNL     1       4.458   4.279  22.652  0.00  0.00    -0.003 A 
HETATM   12  C   UNL     1       5.052   3.491  23.673  0.00  0.00     0.014 A 
HETATM   13  C   UNL     1       5.235   2.085  23.587  0.00  0.00     0.001 A 
HETATM   14  C   UNL     1       4.762   1.360  22.515  0.00  0.00     0.002 A 
HETATM   15  C   UNL     1       4.192   2.084  21.469  0.00  0.00     0.026 A 
HETATM   16  C   UNL     1       4.092   3.511  21.509  0.00  0.00     0.090 A 
BRANCH  16  17
HETATM   17  S   UNL     1       3.808   4.154  19.867  0.00  0.00     0.261 S 
HETATM   18  O   UNL     1       4.995   4.848  19.433  0.00  0.00    -0.200 OA
HETATM   19  O   UNL     1       3.129   3.201  19.028  0.00  0.00    -0.200 OA
BRANCH  17  20
HETATM   20  N   UNL     1       2.608   5.322  20.212  0.00  0.00    -0.303 N 
HETATM   21  C   UNL     1       1.228   4.822  20.420  0.00  0.00     0.163 C 
HETATM   22  C   UNL     1       0.292   4.987  19.212  0.00  0.00     0.255 C 
HETATM   23  N   UNL     1       0.499   6.246  18.381  0.00  0.00    -0.072 N 
HETATM   24  H   UNL     1      -0.089   6.969  18.815  0.00  0.00     0.279 HD
HETATM   25  C   UNL     1      -0.009   6.065  16.966  0.00  0.00     0.269 C 
HETATM   26  C   UNL     1       1.916   6.795  18.318  0.00  0.00     0.255 C 
HETATM   27  C   UNL     1       2.703   6.665  19.619  0.00  0.00     0.163 C 
ENDBRANCH  17  20
ENDBRANCH  16  17
ENDBRANCH   9  11
BRANCH   1  28
HETATM   28  C   UNL     1       1.100   7.657  25.604  0.00  0.00     0.274 C 
HETATM   29  N   UNL     1       1.464   7.515  26.942  0.00  0.00    -0.342 N 
HETATM   30  C   UNL     1       2.532   8.192  27.674  0.00  0.00     0.161 C 
HETATM   31  C   UNL     1       0.680   6.677  27.850  0.00  0.00     0.139 C 
HETATM   32  C   UNL     1       1.988   8.223  29.076  0.00  0.00    -0.056 C 
HETATM   33  C   UNL     1       2.501   8.806  30.175  0.00  0.00    -0.018 C 
HETATM   34  C   UNL     1       0.688   7.451  29.161  0.00  0.00     0.056 C 
HETATM   35  C   UNL     1       1.846   8.605  31.526  0.00  0.00     0.054 C 
HETATM   36  C   UNL     1       1.052   7.315  31.587  0.00  0.00    -0.026 C 
HETATM   37  C   UNL     1       0.554   6.734  30.476  0.00  0.00    -0.020 C 
HETATM   38  O   UNL     1       0.090   7.096  25.167  0.00  0.00    -0.266 OA
ENDBRANCH   1  28
BRANCH   3  39
HETATM   39  N   UNL     1       2.588  11.898  24.226  0.00  0.00    -0.231 N 
HETATM   40  H   UNL     1       1.769  12.289  23.783  0.00  0.00     0.174 HD
HETATM   41  H   UNL     1       3.464  12.387  24.123  0.00  0.00     0.174 HD
ENDBRANCH   3  39
TORSDOF 5
ENDMDL
MODEL 8
REMARK VINA RESULT:    -7.826      3.463      6.861
REMARK INTER + INTRA:         -12.044
REMARK INTER:                  -9.885
REMARK INTRA:                  -2.159
REMARK UNBOUND:                -2.159
REMARK  5 active torsions:
REMARK  status: ('A' for Active; 'I' for Inactive)
REMARK       I    between atoms: N_8  and  C_10 
REMARK    1  A    between atoms: C_10  and  C_12 
REMARK    2  A    between atoms: C_14  and  N_15 
REMARK    3  A    between atoms: C_21  and  C_23 
REMARK    4  A    between atoms: C_28  and  S_29 
REMARK    5  A    between atoms: S_29  and  N_32 
ROOT
HETATM    1  C   UNL     1       3.830   4.094  24.586  0.00  0.00     0.156 A 
HETATM    2  N   UNL     1       4.674   3.550  25.506  0.00  0.00    -0.057 NA
HETATM    3  C   UNL     1       5.280   2.425  25.161  0.00  0.00     0.721 A 
HETATM    4  N   UNL     1       5.103   1.826  23.984  0.00  0.00    -0.063 NA
HETATM    5  C   UNL     1       4.266   2.379  23.073  0.00  0.00     0.088 A 
HETATM    6  C   UNL     1       3.586   3.572  23.279  0.00  0.00     0.029 A 
HETATM    7  C   UNL     1       4.035   1.722  21.863  0.00  0.00     0.034 A 
HETATM    8  C   UNL     1       3.166   2.202  20.841  0.00  0.00     0.014 A 
HETATM    9  C   UNL     1       2.477   3.412  20.957  0.00  0.00    -0.023 A 
HETATM   10  C   UNL     1       2.741   4.088  22.186  0.00  0.00     0.028 A 
ENDROOT
BRANCH   9  11
HETATM   11  C   UNL     1       1.614   3.995  19.834  0.00  0.00    -0.003 A 
HETATM   12  C   UNL     1       0.305   3.475  19.646  0.00  0.00     0.014 A 
HETATM   13  C   UNL     1      -0.611   3.959  18.675  0.00  0.00     0.001 A 
HETATM   14  C   UNL     1      -0.315   5.048  17.884  0.00  0.00     0.002 A 
HETATM   15  C   UNL     1       0.966   5.584  18.006  0.00  0.00     0.026 A 
HETATM   16  C   UNL     1       1.926   5.039  18.917  0.00  0.00     0.090 A 
BRANCH  16  17
HETATM   17  S   UNL     1       3.569   5.587  18.480  0.00  0.00     0.261 S 
HETATM   18  O   UNL     1       4.418   4.430  18.339  0.00  0.00    -0.200 OA
HETATM   19  O   UNL     1       3.540   6.639  17.497  0.00  0.00    -0.200 OA
BRANCH  17  20
HETATM   20  N   UNL     1       4.004   6.390  19.925  0.00  0.00    -0.303 N 
HETATM   21  C   UNL     1       3.693   7.837  20.005  0.00  0.00     0.163 C 
HETATM   22  C   UNL     1       4.887   8.770  19.749  0.00  0.00     0.255 C 
HETATM   23  N   UNL     1       6.234   8.279  20.263  0.00  0.00    -0.072 N 
HETATM   24  H   UNL     1       6.303   8.614  21.233  0.00  0.00     0.279 HD
HETATM   25  C   UNL     1       7.382   8.912  19.503  0.00  0.00     0.269 C 
HETATM   26  C   UNL     1       6.445   6.774  20.289  0.00  0.00     0.255 C 
HETATM   27  C   UNL     1       5.204   5.967  20.664  0.00  0.00     0.163 C 
ENDBRANCH  17  20
ENDBRANCH  16  17
ENDBRANCH   9  11
BRANCH   1  28
HETATM   28  C   UNL     1       2.957   5.197  25.140  0.00  0.00     0.274 C 
HETATM   29  N   UNL     1       3.321   6.539  25.043  0.00  0.00    -0.342 N 
HETATM   30  C   UNL     1       4.416   7.135  24.282  0.00  0.00     0.161 C 
HETATM   31  C   UNL     1       2.509   7.584  25.666  0.00  0.00     0.139 C 
HETATM   32  C   UNL     1       3.879   8.505  23.969  0.00  0.00    -0.056 C 
HETATM   33  C   UNL     1       4.418   9.477  23.211  0.00  0.00    -0.018 C 
HETATM   34  C   UNL     1       2.551   8.727  24.662  0.00  0.00     0.056 C 
HETATM   35  C   UNL     1       3.761  10.840  23.132  0.00  0.00     0.054 C 
HETATM   36  C   UNL     1       2.918  11.138  24.357  0.00  0.00    -0.026 C 
HETATM   37  C   UNL     1       2.395  10.153  25.116  0.00  0.00    -0.020 C 
HETATM   38  O   UNL     1       1.925   4.868  25.734  0.00  0.00    -0.266 OA
ENDBRANCH   1  28
BRANCH   3  39
HETATM   39  N   UNL     1       6.114   1.844  26.091  0.00  0.00    -0.231 N 
HETATM   40  H   UNL     1       7.022   1.594  25.729  0.00  0.00     0.174 HD
HETATM   41  H   UNL     1       5.648   1.192  26.704  0.00  0.00     0.174 HD
ENDBRANCH   3  39
TORSDOF 5
ENDMDL
