MODEL 1
REMARK VINA RESULT:    -8.656      0.000      0.000
REMARK INTER + INTRA:         -12.211
REMARK INTER:                 -11.146
REMARK INTRA:                  -1.065
REMARK UNBOUND:                -1.277
REMARK  5 active torsions:
REMARK  status: ('A' for Active; 'I' for Inactive)
REMARK    1  A    between atoms: C_7  and  N_8 
REMARK       I    between atoms: N_8  and  C_10 
REMARK    2  A    between atoms: C_10  and  C_12 
REMARK    3  A    between atoms: C_14  and  O_15 
REMARK    4  A    between atoms: C_22  and  C_23 
REMARK    5  A    between atoms: C_23  and  C_24 
ROOT
HETATM    1  C   UNL     1       1.462   8.164  26.294  0.00  0.00     0.066 C 
HETATM    2  C   UNL     1       0.202   8.664  25.897  0.00  0.00     0.035 C 
HETATM    3  C   UNL     1       1.779   8.227  27.669  0.00  0.00     0.083 C 
HETATM    4  C   UNL     1       0.941   8.853  28.603  0.00  0.00     0.069 C 
HETATM    5  C   UNL     1      -0.201   9.491  28.111  0.00  0.00     0.065 A 
HETATM    6  C   UNL     1      -0.579   9.447  26.778  0.00  0.00     0.020 A 
HETATM    7  N   UNL     1      -1.165  10.234  28.724  0.00  0.00    -0.277 N 
HETATM    8  H   UNL     1      -1.241  10.442  29.718  0.00  0.00     0.189 HD
HETATM    9  N   UNL     1      -2.069  10.768  27.893  0.00  0.00    -0.178 NA
HETATM   10  C   UNL     1      -1.714  10.320  26.673  0.00  0.00     0.071 A 
ENDROOT
BRANCH   1  11
HETATM   11  C   UNL     1       2.490   7.594  25.329  0.00  0.00     0.260 C 
HETATM   12  N   UNL     1       3.284   8.429  24.486  0.00  0.00    -0.318 N 
HETATM   13  C   UNL     1       3.114   9.883  24.504  0.00  0.00     0.159 C 
HETATM   14  O   UNL     1       2.634   6.369  25.419  0.00  0.00    -0.267 OA
BRANCH  12  15
HETATM   15  C   UNL     1       4.178   7.902  23.455  0.00  0.00     0.037 C 
HETATM   16  C   UNL     1       4.040   8.299  22.109  0.00  0.00     0.030 C 
HETATM   17  C   UNL     1       4.714   7.671  21.058  0.00  0.00     0.009 C 
HETATM   18  C   UNL     1       5.597   6.633  21.315  0.00  0.00    -0.062 C 
HETATM   19  C   UNL     1       6.223   5.878  20.184  0.00  0.00     0.048 C 
HETATM   20  C   UNL     1       5.865   6.313  22.647  0.00  0.00     0.009 C 
HETATM   21  C   UNL     1       5.165   6.939  23.700  0.00  0.00     0.030 C 
ENDBRANCH  12  15
ENDBRANCH   1  11
BRANCH   3  22
HETATM   22  O   UNL     1       2.921   7.679  28.205  0.00  0.00    -0.360 OA
HETATM   23  H   UNL     1       3.594   8.394  28.281  0.00  0.00     0.217 HD
ENDBRANCH   3  22
BRANCH  10  24
HETATM   24  C   UNL     1      -2.509  10.788  25.469  0.00  0.00     0.100 C 
BRANCH  24  25
HETATM   25  C   UNL     1      -1.674  11.674  24.542  0.00  0.00    -0.052 C 
HETATM   26  C   UNL     1      -0.626  12.481  25.005  0.00  0.00     0.007 C 
HETATM   27  C   UNL     1       0.140  13.249  24.125  0.00  0.00     0.001 C 
HETATM   28  C   UNL     1      -0.199  13.325  22.779  0.00  0.00     0.007 C 
HETATM   29  C   UNL     1      -1.332  12.661  22.303  0.00  0.00    -0.061 C 
HETATM   30  C   UNL     1      -2.033  11.800  23.176  0.00  0.00     0.014 C 
HETATM   31  C   UNL     1      -1.763  12.901  20.881  0.00  0.00     0.048 C 
ENDBRANCH  24  25
ENDBRANCH  10  24
TORSDOF 5
ENDMDL
MODEL 2
REMARK VINA RESULT:    -8.654      0.646      1.410
REMARK INTER + INTRA:         -12.208
REMARK INTER:                 -11.205
REMARK INTRA:                  -1.004
REMARK UNBOUND:                -1.277
REMARK  5 active torsions:
REMARK  status: ('A' for Active; 'I' for Inactive)
REMARK    1  A    between atoms: C_7  and  N_8 
REMARK       I    between atoms: N_8  and  C_10 
REMARK    2  A    between atoms: C_10  and  C_12 
REMARK    3  A    between atoms: C_14  and  O_15 
REMARK    4  A    between atoms: C_22  and  C_23 
REMARK    5  A    between atoms: C_23  and  C_24 
ROOT
HETATM    1  C   UNL     1       1.585   8.383  26.124  0.00  0.00     0.066 C 
HETATM    2  C   UNL     1       0.258   8.791  25.860  0.00  0.00     0.035 C 
HETATM    3  C   UNL     1       2.010   8.397  27.471  0.00  0.00     0.083 C 
HETATM    4  C   UNL     1       1.204   8.893  28.505  0.00  0.00     0.069 C 
HETATM    5  C   UNL     1      -0.024   9.455  28.147  0.00  0.00     0.065 A 
HETATM    6  C   UNL     1      -0.508   9.452  26.847  0.00  0.00     0.020 A 
HETATM    7  N   UNL     1      -0.991  10.075  28.880  0.00  0.00    -0.277 N 
HETATM    8  H   UNL     1      -1.000  10.219  29.888  0.00  0.00     0.189 HD
HETATM    9  N   UNL     1      -2.003  10.573  28.157  0.00  0.00    -0.178 NA
HETATM   10  C   UNL     1      -1.716  10.227  26.888  0.00  0.00     0.071 A 
ENDROOT
BRANCH   1  11
HETATM   11  C   UNL     1       2.572   7.959  25.047  0.00  0.00     0.260 C 
HETATM   12  N   UNL     1       3.290   8.911  24.260  0.00  0.00    -0.318 N 
HETATM   13  C   UNL     1       3.076  10.347  24.449  0.00  0.00     0.159 C 
HETATM   14  O   UNL     1       2.758   6.738  24.992  0.00  0.00    -0.267 OA
BRANCH  12  15
HETATM   15  C   UNL     1       4.137   8.533  23.129  0.00  0.00     0.037 C 
HETATM   16  C   UNL     1       4.130   9.288  21.938  0.00  0.00     0.030 C 
HETATM   17  C   UNL     1       4.746   8.856  20.760  0.00  0.00     0.009 C 
HETATM   18  C   UNL     1       5.439   7.655  20.734  0.00  0.00    -0.062 C 
HETATM   19  C   UNL     1       5.992   7.131  19.445  0.00  0.00     0.048 C 
HETATM   20  C   UNL     1       5.588   6.955  21.932  0.00  0.00     0.009 C 
HETATM   21  C   UNL     1       4.946   7.389  23.112  0.00  0.00     0.030 C 
ENDBRANCH  12  15
ENDBRANCH   1  11
BRANCH   3  22
HETATM   22  O   UNL     1       3.235   7.922  27.879  0.00  0.00    -0.360 OA
HETATM   23  H   UNL     1       3.921   8.570  27.596  0.00  0.00     0.217 HD
ENDBRANCH   3  22
BRANCH  10  24
HETATM   24  C   UNL     1      -2.646  10.689  25.782  0.00  0.00     0.100 C 
BRANCH  24  25
HETATM   25  C   UNL     1      -1.923  11.565  24.757  0.00  0.00    -0.052 C 
HETATM   26  C   UNL     1      -2.208  11.521  23.385  0.00  0.00     0.007 C 
HETATM   27  C   UNL     1      -1.554  12.362  22.482  0.00  0.00     0.001 C 
HETATM   28  C   UNL     1      -0.514  13.179  22.907  0.00  0.00     0.007 C 
HETATM   29  C   UNL     1      -0.090  13.139  24.238  0.00  0.00    -0.061 C 
HETATM   30  C   UNL     1      -0.829  12.370  25.164  0.00  0.00     0.014 C 
HETATM   31  C   UNL     1       1.144  13.908  24.624  0.00  0.00     0.048 C 
ENDBRANCH  24  25
ENDBRANCH  10  24
TORSDOF 5
ENDMDL
MODEL 3
REMARK VINA RESULT:    -8.485      1.491      2.047
REMARK INTER + INTRA:         -11.994
REMARK INTER:                 -10.839
REMARK INTRA:                  -1.155
REMARK UNBOUND:                -1.277
REMARK  5 active torsions:
REMARK  status: ('A' for Active; 'I' for Inactive)
REMARK    1  A    between atoms: C_7  and  N_8 
REMARK       I    between atoms: N_8  and  C_10 
REMARK    2  A    between atoms: C_10  and  C_12 
REMARK    3  A    between atoms: C_14  and  O_15 
REMARK    4  A    between atoms: C_22  and  C_23 
REMARK    5  A    between atoms: C_23  and  C_24 
ROOT
HETATM    1  C   UNL     1       2.313   8.493  25.190  0.00  0.00     0.066 C 
HETATM    2  C   UNL     1       0.959   8.885  25.273  0.00  0.00     0.035 C 
HETATM    3  C   UNL     1       2.898   7.933  26.347  0.00  0.00     0.083 C 
HETATM    4  C   UNL     1       2.214   7.859  27.569  0.00  0.00     0.069 C 
HETATM    5  C   UNL     1       0.944   8.438  27.628  0.00  0.00     0.065 A 
HETATM    6  C   UNL     1       0.307   8.982  26.524  0.00  0.00     0.020 A 
HETATM    7  N   UNL     1       0.062   8.598  28.655  0.00  0.00    -0.277 N 
HETATM    8  H   UNL     1       0.173   8.277  29.615  0.00  0.00     0.189 HD
HETATM    9  N   UNL     1      -1.036   9.297  28.341  0.00  0.00    -0.178 NA
HETATM   10  C   UNL     1      -0.899   9.574  27.031  0.00  0.00     0.071 A 
ENDROOT
BRANCH   1  11
HETATM   11  C   UNL     1       3.170   8.662  23.944  0.00  0.00     0.260 C 
HETATM   12  N   UNL     1       3.399   7.589  23.029  0.00  0.00    -0.318 N 
HETATM   13  C   UNL     1       2.830   6.263  23.279  0.00  0.00     0.159 C 
HETATM   14  O   UNL     1       3.555   9.822  23.756  0.00  0.00    -0.267 OA
BRANCH  12  15
HETATM   15  C   UNL     1       4.326   7.687  21.902  0.00  0.00     0.037 C 
HETATM   16  C   UNL     1       5.630   7.159  21.994  0.00  0.00     0.030 C 
HETATM   17  C   UNL     1       6.621   7.411  21.040  0.00  0.00     0.009 C 
HETATM   18  C   UNL     1       6.335   8.178  19.921  0.00  0.00    -0.062 C 
HETATM   19  C   UNL     1       7.425   8.554  18.965  0.00  0.00     0.048 C 
HETATM   20  C   UNL     1       5.017   8.595  19.729  0.00  0.00     0.009 C 
HETATM   21  C   UNL     1       4.028   8.351  20.705  0.00  0.00     0.030 C 
ENDBRANCH  12  15
ENDBRANCH   1  11
BRANCH   3  22
HETATM   22  O   UNL     1       4.170   7.410  26.371  0.00  0.00    -0.360 OA
HETATM   23  H   UNL     1       4.598   7.695  27.211  0.00  0.00     0.217 HD
ENDBRANCH   3  22
BRANCH  10  24
HETATM   24  C   UNL     1      -1.962  10.417  26.352  0.00  0.00     0.100 C 
BRANCH  24  25
HETATM   25  C   UNL     1      -1.358  11.387  25.335  0.00  0.00    -0.052 C 
HETATM   26  C   UNL     1      -0.426  12.373  25.687  0.00  0.00     0.007 C 
HETATM   27  C   UNL     1       0.133  13.217  24.725  0.00  0.00     0.001 C 
HETATM   28  C   UNL     1      -0.315  13.181  23.410  0.00  0.00     0.007 C 
HETATM   29  C   UNL     1      -1.356  12.323  23.048  0.00  0.00    -0.061 C 
HETATM   30  C   UNL     1      -1.837  11.396  24.000  0.00  0.00     0.014 C 
HETATM   31  C   UNL     1      -1.929  12.430  21.660  0.00  0.00     0.048 C 
ENDBRANCH  24  25
ENDBRANCH  10  24
TORSDOF 5
ENDMDL
MODEL 4
REMARK VINA RESULT:    -8.228      1.124      1.353
REMARK INTER + INTRA:         -11.669
REMARK INTER:                 -10.787
REMARK INTRA:                  -0.882
REMARK UNBOUND:                -1.277
REMARK  5 active torsions:
REMARK  status: ('A' for Active; 'I' for Inactive)
REMARK    1  A    between atoms: C_7  and  N_8 
REMARK       I    between atoms: N_8  and  C_10 
REMARK    2  A    between atoms: C_10  and  C_12 
REMARK    3  A    between atoms: C_14  and  O_15 
REMARK    4  A    between atoms: C_22  and  C_23 
REMARK    5  A    between atoms: C_23  and  C_24 
ROOT
HETATM    1  C   UNL     1       1.997   7.689  25.506  0.00  0.00     0.066 C 
HETATM    2  C   UNL     1       0.695   8.235  25.542  0.00  0.00     0.035 C 
HETATM    3  C   UNL     1       2.718   7.653  26.721  0.00  0.00     0.083 C 
HETATM    4  C   UNL     1       2.224   8.229  27.901  0.00  0.00     0.069 C 
HETATM    5  C   UNL     1       1.011   8.917  27.818  0.00  0.00     0.065 A 
HETATM    6  C   UNL     1       0.246   8.970  26.663  0.00  0.00     0.020 A 
HETATM    7  N   UNL     1       0.305   9.633  28.739  0.00  0.00    -0.277 N 
HETATM    8  H   UNL     1       0.541   9.774  29.719  0.00  0.00     0.189 HD
HETATM    9  N   UNL     1      -0.788  10.237  28.254  0.00  0.00    -0.178 NA
HETATM   10  C   UNL     1      -0.835   9.867  26.960  0.00  0.00     0.071 A 
ENDROOT
BRANCH   1  11
HETATM   11  C   UNL     1       2.664   7.168  24.242  0.00  0.00     0.260 C 
HETATM   12  N   UNL     1       3.485   7.999  23.420  0.00  0.00    -0.318 N 
HETATM   13  C   UNL     1       3.693   9.408  23.758  0.00  0.00     0.159 C 
HETATM   14  O   UNL     1       2.507   5.955  24.058  0.00  0.00    -0.267 OA
BRANCH  12  15
HETATM   15  C   UNL     1       4.023   7.563  22.132  0.00  0.00     0.037 C 
HETATM   16  C   UNL     1       4.094   8.454  21.041  0.00  0.00     0.030 C 
HETATM   17  C   UNL     1       4.392   8.040  19.739  0.00  0.00     0.009 C 
HETATM   18  C   UNL     1       4.674   6.708  19.477  0.00  0.00    -0.062 C 
HETATM   19  C   UNL     1       4.869   6.242  18.067  0.00  0.00     0.048 C 
HETATM   20  C   UNL     1       4.753   5.827  20.557  0.00  0.00     0.009 C 
HETATM   21  C   UNL     1       4.433   6.250  21.864  0.00  0.00     0.030 C 
ENDBRANCH  12  15
ENDBRANCH   1  11
BRANCH   3  22
HETATM   22  O   UNL     1       3.948   7.051  26.850  0.00  0.00    -0.360 OA
HETATM   23  H   UNL     1       3.882   6.380  27.567  0.00  0.00     0.217 HD
ENDBRANCH   3  22
BRANCH  10  24
HETATM   24  C   UNL     1      -1.940  10.428  26.085  0.00  0.00     0.100 C 
BRANCH  24  25
HETATM   25  C   UNL     1      -1.396  11.386  25.024  0.00  0.00    -0.052 C 
HETATM   26  C   UNL     1      -0.375  12.310  25.287  0.00  0.00     0.007 C 
HETATM   27  C   UNL     1       0.123  13.145  24.283  0.00  0.00     0.001 C 
HETATM   28  C   UNL     1      -0.469  13.164  23.026  0.00  0.00     0.007 C 
HETATM   29  C   UNL     1      -1.591  12.374  22.767  0.00  0.00    -0.061 C 
HETATM   30  C   UNL     1      -2.017  11.454  23.750  0.00  0.00     0.014 C 
HETATM   31  C   UNL     1      -2.305  12.546  21.454  0.00  0.00     0.048 C 
ENDBRANCH  24  25
ENDBRANCH  10  24
TORSDOF 5
ENDMDL
MODEL 5
REMARK VINA RESULT:    -8.184      3.360      7.937
REMARK INTER + INTRA:         -11.615
REMARK INTER:                 -10.688
REMARK INTRA:                  -0.927
REMARK UNBOUND:                -1.277
REMARK  5 active torsions:
REMARK  status: ('A' for Active; 'I' for Inactive)
REMARK    1  A    between atoms: C_7  and  N_8 
REMARK       I    between atoms: N_8  and  C_10 
REMARK    2  A    between atoms: C_10  and  C_12 
REMARK    3  A    between atoms: C_14  and  O_15 
REMARK    4  A    between atoms: C_22  and  C_23 
REMARK    5  A    between atoms: C_23  and  C_24 
ROOT
HETATM    1  C   UNL     1       4.120   7.330  23.010  0.00  0.00     0.066 C 
HETATM    2  C   UNL     1       3.732   8.028  21.845  0.00  0.00     0.035 C 
HETATM    3  C   UNL     1       5.375   6.684  22.990  0.00  0.00     0.083 C 
HETATM    4  C   UNL     1       6.171   6.630  21.837  0.00  0.00     0.069 C 
HETATM    5  C   UNL     1       5.640   7.179  20.667  0.00  0.00     0.065 A 
HETATM    6  C   UNL     1       4.426   7.847  20.626  0.00  0.00     0.020 A 
HETATM    7  N   UNL     1       6.111   7.230  19.389  0.00  0.00    -0.277 N 
HETATM    8  H   UNL     1       7.004   6.878  19.049  0.00  0.00     0.189 HD
HETATM    9  N   UNL     1       5.261   7.768  18.504  0.00  0.00    -0.178 NA
HETATM   10  C   UNL     1       4.194   8.134  19.239  0.00  0.00     0.071 A 
ENDROOT
BRANCH   1  11
HETATM   11  C   UNL     1       3.258   7.221  24.259  0.00  0.00     0.260 C 
HETATM   12  N   UNL     1       2.770   8.374  24.946  0.00  0.00    -0.318 N 
HETATM   13  C   UNL     1       3.110   9.720  24.479  0.00  0.00     0.159 C 
HETATM   14  O   UNL     1       2.949   6.061  24.553  0.00  0.00    -0.267 OA
BRANCH  12  15
HETATM   15  C   UNL     1       2.058   8.300  26.222  0.00  0.00     0.037 C 
HETATM   16  C   UNL     1       0.658   8.467  26.277  0.00  0.00     0.030 C 
HETATM   17  C   UNL     1      -0.042   8.622  27.477  0.00  0.00     0.009 C 
HETATM   18  C   UNL     1       0.630   8.576  28.689  0.00  0.00    -0.062 C 
HETATM   19  C   UNL     1      -0.096   8.867  29.966  0.00  0.00     0.048 C 
HETATM   20  C   UNL     1       1.992   8.269  28.675  0.00  0.00     0.009 C 
HETATM   21  C   UNL     1       2.694   8.133  27.459  0.00  0.00     0.030 C 
ENDBRANCH  12  15
ENDBRANCH   1  11
BRANCH   3  22
HETATM   22  O   UNL     1       5.922   6.064  24.091  0.00  0.00    -0.360 OA
HETATM   23  H   UNL     1       5.881   6.696  24.845  0.00  0.00     0.217 HD
ENDBRANCH   3  22
BRANCH  10  24
HETATM   24  C   UNL     1       2.998   8.740  18.528  0.00  0.00     0.100 C 
BRANCH  24  25
HETATM   25  C   UNL     1       2.130   7.672  17.861  0.00  0.00    -0.052 C 
HETATM   26  C   UNL     1       1.871   7.654  16.483  0.00  0.00     0.007 C 
HETATM   27  C   UNL     1       1.104   6.642  15.903  0.00  0.00     0.001 C 
HETATM   28  C   UNL     1       0.475   5.692  16.697  0.00  0.00     0.007 C 
HETATM   29  C   UNL     1       0.575   5.764  18.089  0.00  0.00    -0.061 C 
HETATM   30  C   UNL     1       1.442   6.722  18.659  0.00  0.00     0.014 C 
HETATM   31  C   UNL     1      -0.254   4.823  18.920  0.00  0.00     0.048 C 
ENDBRANCH  24  25
ENDBRANCH  10  24
TORSDOF 5
ENDMDL
MODEL 6
REMARK VINA RESULT:    -8.044      3.457      8.065
REMARK INTER + INTRA:         -11.437
REMARK INTER:                 -10.513
REMARK INTRA:                  -0.924
REMARK UNBOUND:                -1.277
REMARK  5 active torsions:
REMARK  status: ('A' for Active; 'I' for Inactive)
REMARK    1  A    between atoms: C_7  and  N_8 
REMARK       I    between atoms: N_8  and  C_10 
REMARK    2  A    between atoms: C_10  and  C_12 
REMARK    3  A    between atoms: C_14  and  O_15 
REMARK    4  A    between atoms: C_22  and  C_23 
REMARK    5  A    between atoms: C_23  and  C_24 
ROOT
HETATM    1  C   UNL     1       4.111   8.133  23.033  0.00  0.00     0.066 C 
HETATM    2  C   UNL     1       4.002   8.345  21.641  0.00  0.00     0.035 C 
HETATM    3  C   UNL     1       5.051   7.175  23.471  0.00  0.00     0.083 C 
HETATM    4  C   UNL     1       5.778   6.377  22.575  0.00  0.00     0.069 C 
HETATM    5  C   UNL     1       5.483   6.508  21.216  0.00  0.00     0.065 A 
HETATM    6  C   UNL     1       4.588   7.444  20.722  0.00  0.00     0.020 A 
HETATM    7  N   UNL     1       5.943   5.849  20.115  0.00  0.00    -0.277 N 
HETATM    8  H   UNL     1       6.652   5.118  20.089  0.00  0.00     0.189 HD
HETATM    9  N   UNL     1       5.345   6.196  18.968  0.00  0.00    -0.178 NA
HETATM   10  C   UNL     1       4.478   7.165  19.318  0.00  0.00     0.071 A 
ENDROOT
BRANCH   1  11
HETATM   11  C   UNL     1       3.264   8.856  24.069  0.00  0.00     0.260 C 
HETATM   12  N   UNL     1       2.178   8.216  24.742  0.00  0.00    -0.318 N 
HETATM   13  C   UNL     1       1.824   6.830  24.432  0.00  0.00     0.159 C 
HETATM   14  O   UNL     1       3.664   9.996  24.336  0.00  0.00    -0.267 OA
BRANCH  12  15
HETATM   15  C   UNL     1       1.265   8.926  25.637  0.00  0.00     0.037 C 
HETATM   16  C   UNL     1       1.303   8.705  27.029  0.00  0.00     0.030 C 
HETATM   17  C   UNL     1       0.322   9.184  27.902  0.00  0.00     0.009 C 
HETATM   18  C   UNL     1      -0.730   9.948  27.420  0.00  0.00    -0.062 C 
HETATM   19  C   UNL     1      -1.847  10.355  28.331  0.00  0.00     0.048 C 
HETATM   20  C   UNL     1      -0.719  10.305  26.071  0.00  0.00     0.009 C 
HETATM   21  C   UNL     1       0.266   9.802  25.194  0.00  0.00     0.030 C 
ENDBRANCH  12  15
ENDBRANCH   1  11
BRANCH   3  22
HETATM   22  O   UNL     1       5.337   6.950  24.797  0.00  0.00    -0.360 OA
HETATM   23  H   UNL     1       6.105   7.516  25.042  0.00  0.00     0.217 HD
ENDBRANCH   3  22
BRANCH  10  24
HETATM   24  C   UNL     1       3.580   7.755  18.247  0.00  0.00     0.100 C 
BRANCH  24  25
HETATM   25  C   UNL     1       2.284   6.959  18.086  0.00  0.00    -0.052 C 
HETATM   26  C   UNL     1       1.726   6.198  19.123  0.00  0.00     0.007 C 
HETATM   27  C   UNL     1       0.521   5.513  18.953  0.00  0.00     0.001 C 
HETATM   28  C   UNL     1      -0.095   5.470  17.707  0.00  0.00     0.007 C 
HETATM   29  C   UNL     1       0.509   6.083  16.606  0.00  0.00    -0.061 C 
HETATM   30  C   UNL     1       1.667   6.865  16.812  0.00  0.00     0.014 C 
HETATM   31  C   UNL     1      -0.097   5.873  15.244  0.00  0.00     0.048 C 
ENDBRANCH  24  25
ENDBRANCH  10  24
TORSDOF 5
ENDMDL
MODEL 7
REMARK VINA RESULT:    -7.631      1.623      2.117
REMARK INTER + INTRA:         -10.916
REMARK INTER:                  -9.915
REMARK INTRA:                  -1.002
REMARK UNBOUND:                -1.277
REMARK  5 active torsions:
REMARK  status: ('A' for Active; 'I' for Inactive)
REMARK    1  A    between atoms: C_7  and  N_8 
REMARK       I    between atoms: N_8  and  C_10 
REMARK    2  A    between atoms: C_10  and  C_12 
REMARK    3  A    between atoms: C_14  and  O_15 
REMARK    4  A    between atoms: C_22  and  C_23 
REMARK    5  A    between atoms: C_23  and  C_24 
ROOT
HETATM    1  C   UNL     1       0.989   7.343  26.676  0.00  0.00     0.066 C 
HETATM    2  C   UNL     1      -0.176   8.020  26.254  0.00  0.00     0.035 C 
HETATM    3  C   UNL     1       1.474   7.633  27.970  0.00  0.00     0.083 C 
HETATM    4  C   UNL     1       0.903   8.627  28.778  0.00  0.00     0.069 C 
HETATM    5  C   UNL     1      -0.130   9.388  28.223  0.00  0.00     0.065 A 
HETATM    6  C   UNL     1      -0.664   9.138  26.968  0.00  0.00     0.020 A 
HETATM    7  N   UNL     1      -0.836  10.451  28.700  0.00  0.00    -0.277 N 
HETATM    8  H   UNL     1      -0.748  10.886  29.616  0.00  0.00     0.189 HD
HETATM    9  N   UNL     1      -1.700  10.982  27.825  0.00  0.00    -0.178 NA
HETATM   10  C   UNL     1      -1.594  10.206  26.730  0.00  0.00     0.071 A 
ENDROOT
BRANCH   1  11
HETATM   11  C   UNL     1       1.752   6.349  25.812  0.00  0.00     0.260 C 
HETATM   12  N   UNL     1       2.599   6.769  24.741  0.00  0.00    -0.318 N 
HETATM   13  C   UNL     1       2.741   8.190  24.418  0.00  0.00     0.159 C 
HETATM   14  O   UNL     1       1.645   5.175  26.187  0.00  0.00    -0.267 OA
BRANCH  12  15
HETATM   15  C   UNL     1       3.232   5.834  23.812  0.00  0.00     0.037 C 
HETATM   16  C   UNL     1       2.622   5.516  22.581  0.00  0.00     0.030 C 
HETATM   17  C   UNL     1       3.066   4.476  21.759  0.00  0.00     0.009 C 
HETATM   18  C   UNL     1       4.176   3.727  22.118  0.00  0.00    -0.062 C 
HETATM   19  C   UNL     1       4.577   2.535  21.304  0.00  0.00     0.048 C 
HETATM   20  C   UNL     1       4.887   4.109  23.256  0.00  0.00     0.009 C 
HETATM   21  C   UNL     1       4.421   5.148  24.090  0.00  0.00     0.030 C 
ENDBRANCH  12  15
ENDBRANCH   1  11
BRANCH   3  22
HETATM   22  O   UNL     1       2.531   6.967  28.546  0.00  0.00    -0.360 OA
HETATM   23  H   UNL     1       2.377   6.000  28.434  0.00  0.00     0.217 HD
ENDBRANCH   3  22
BRANCH  10  24
HETATM   24  C   UNL     1      -2.411  10.567  25.503  0.00  0.00     0.100 C 
BRANCH  24  25
HETATM   25  C   UNL     1      -1.674  11.554  24.597  0.00  0.00    -0.052 C 
HETATM   26  C   UNL     1      -1.891  11.623  23.214  0.00  0.00     0.007 C 
HETATM   27  C   UNL     1      -1.227  12.563  22.422  0.00  0.00     0.001 C 
HETATM   28  C   UNL     1      -0.241  13.375  22.970  0.00  0.00     0.007 C 
HETATM   29  C   UNL     1       0.119  13.231  24.312  0.00  0.00    -0.061 C 
HETATM   30  C   UNL     1      -0.633  12.358  25.129  0.00  0.00     0.014 C 
HETATM   31  C   UNL     1       1.302  14.005  24.827  0.00  0.00     0.048 C 
ENDBRANCH  24  25
ENDBRANCH  10  24
TORSDOF 5
ENDMDL
MODEL 8
REMARK VINA RESULT:    -7.563      2.358      5.229
REMARK INTER + INTRA:         -10.830
REMARK INTER:                  -9.552
REMARK INTRA:                  -1.277
REMARK UNBOUND:                -1.277
REMARK  5 active torsions:
REMARK  status: ('A' for Active; 'I' for Inactive)
REMARK    1  A    between atoms: C_7  and  N_8 
REMARK       I    between atoms: N_8  and  C_10 
REMARK    2  A    between atoms: C_10  and  C_12 
REMARK    3  A    between atoms: C_14  and  O_15 
REMARK    4  A    between atoms: C_22  and  C_23 
REMARK    5  A    between atoms: C_23  and  C_24 
ROOT
HETATM    1  C   UNL     1       1.405   9.641  25.550  0.00  0.00     0.066 C 
HETATM    2  C   UNL     1       1.454   9.225  26.899  0.00  0.00     0.035 C 
HETATM    3  C   UNL     1       0.330  10.471  25.166  0.00  0.00     0.083 C 
HETATM    4  C   UNL     1      -0.717  10.793  26.043  0.00  0.00     0.069 C 
HETATM    5  C   UNL     1      -0.702  10.193  27.305  0.00  0.00     0.065 A 
HETATM    6  C   UNL     1       0.336   9.388  27.749  0.00  0.00     0.020 A 
HETATM    7  N   UNL     1      -1.582  10.235  28.344  0.00  0.00    -0.277 N 
HETATM    8  H   UNL     1      -2.447  10.770  28.395  0.00  0.00     0.189 HD
HETATM    9  N   UNL     1      -1.265   9.440  29.375  0.00  0.00    -0.178 NA
HETATM   10  C   UNL     1      -0.093   8.879  29.021  0.00  0.00     0.071 A 
ENDROOT
BRANCH   1  11
HETATM   11  C   UNL     1       2.424   9.227  24.498  0.00  0.00     0.260 C 
HETATM   12  N   UNL     1       2.595   7.865  24.102  0.00  0.00    -0.318 N 
HETATM   13  C   UNL     1       1.801   6.804  24.724  0.00  0.00     0.159 C 
HETATM   14  O   UNL     1       3.005  10.179  23.964  0.00  0.00    -0.267 OA
BRANCH  12  15
HETATM   15  C   UNL     1       3.657   7.425  23.198  0.00  0.00     0.037 C 
HETATM   16  C   UNL     1       4.707   6.608  23.664  0.00  0.00     0.030 C 
HETATM   17  C   UNL     1       5.853   6.339  22.909  0.00  0.00     0.009 C 
HETATM   18  C   UNL     1       5.980   6.848  21.626  0.00  0.00    -0.062 C 
HETATM   19  C   UNL     1       7.257   6.667  20.865  0.00  0.00     0.048 C 
HETATM   20  C   UNL     1       4.896   7.540  21.082  0.00  0.00     0.009 C 
HETATM   21  C   UNL     1       3.752   7.823  21.858  0.00  0.00     0.030 C 
ENDBRANCH  12  15
ENDBRANCH   1  11
BRANCH   3  22
HETATM   22  O   UNL     1       0.222  11.036  23.917  0.00  0.00    -0.360 OA
HETATM   23  H   UNL     1      -0.226  10.386  23.328  0.00  0.00     0.217 HD
ENDBRANCH   3  22
BRANCH  10  24
HETATM   24  C   UNL     1       0.535   7.863  29.956  0.00  0.00     0.100 C 
BRANCH  24  25
HETATM   25  C   UNL     1       0.862   6.552  29.238  0.00  0.00    -0.052 C 
HETATM   26  C   UNL     1       2.167   6.050  29.129  0.00  0.00     0.007 C 
HETATM   27  C   UNL     1       2.424   4.831  28.498  0.00  0.00     0.001 C 
HETATM   28  C   UNL     1       1.403   4.143  27.854  0.00  0.00     0.007 C 
HETATM   29  C   UNL     1       0.117   4.685  27.801  0.00  0.00    -0.061 C 
HETATM   30  C   UNL     1      -0.157   5.860  28.535  0.00  0.00     0.014 C 
HETATM   31  C   UNL     1      -0.920   3.998  26.953  0.00  0.00     0.048 C 
ENDBRANCH  24  25
ENDBRANCH  10  24
TORSDOF 5
ENDMDL
MODEL 9
REMARK VINA RESULT:    -7.505      1.885      2.074
REMARK INTER + INTRA:         -10.757
REMARK INTER:                  -9.890
REMARK INTRA:                  -0.867
REMARK UNBOUND:                -1.277
REMARK  5 active torsions:
REMARK  status: ('A' for Active; 'I' for Inactive)
REMARK    1  A    between atoms: C_7  and  N_8 
REMARK       I    between atoms: N_8  and  C_10 
REMARK    2  A    between atoms: C_10  and  C_12 
REMARK    3  A    between atoms: C_14  and  O_15 
REMARK    4  A    between atoms: C_22  and  C_23 
REMARK    5  A    between atoms: C_23  and  C_24 
ROOT
HETATM    1  C   UNL     1       1.001   7.387  27.280  0.00  0.00     0.066 C 
HETATM    2  C   UNL     1      -0.097   8.002  26.638  0.00  0.00     0.035 C 
HETATM    3  C   UNL     1       1.314   7.823  28.587  0.00  0.00     0.083 C 
HETATM    4  C   UNL     1       0.646   8.894  29.198  0.00  0.00     0.069 C 
HETATM    5  C   UNL     1      -0.302   9.578  28.434  0.00  0.00     0.065 A 
HETATM    6  C   UNL     1      -0.669   9.187  27.155  0.00  0.00     0.020 A 
HETATM    7  N   UNL     1      -1.060  10.680  28.695  0.00  0.00    -0.277 N 
HETATM    8  H   UNL     1      -1.090  11.213  29.562  0.00  0.00     0.189 HD
HETATM    9  N   UNL     1      -1.800  11.103  27.662  0.00  0.00    -0.178 NA
HETATM   10  C   UNL     1      -1.556  10.212  26.682  0.00  0.00     0.071 A 
ENDROOT
BRANCH   1  11
HETATM   11  C   UNL     1       1.866   6.313  26.637  0.00  0.00     0.260 C 
HETATM   12  N   UNL     1       2.812   6.616  25.611  0.00  0.00    -0.318 N 
HETATM   13  C   UNL     1       2.964   7.986  25.118  0.00  0.00     0.159 C 
HETATM   14  O   UNL     1       1.740   5.196  27.152  0.00  0.00    -0.267 OA
BRANCH  12  15
HETATM   15  C   UNL     1       3.554   5.587  24.883  0.00  0.00     0.037 C 
HETATM   16  C   UNL     1       3.041   5.034  23.692  0.00  0.00     0.030 C 
HETATM   17  C   UNL     1       3.593   3.907  23.077  0.00  0.00     0.009 C 
HETATM   18  C   UNL     1       4.721   3.301  23.611  0.00  0.00    -0.062 C 
HETATM   19  C   UNL     1       5.238   2.023  23.027  0.00  0.00     0.048 C 
HETATM   20  C   UNL     1       5.337   3.909  24.706  0.00  0.00     0.009 C 
HETATM   21  C   UNL     1       4.762   5.035  25.331  0.00  0.00     0.030 C 
ENDBRANCH  12  15
ENDBRANCH   1  11
BRANCH   3  22
HETATM   22  O   UNL     1       2.284   7.235  29.365  0.00  0.00    -0.360 OA
HETATM   23  H   UNL     1       2.228   6.260  29.233  0.00  0.00     0.217 HD
ENDBRANCH   3  22
BRANCH  10  24
HETATM   24  C   UNL     1      -2.205  10.428  25.328  0.00  0.00     0.100 C 
BRANCH  24  25
HETATM   25  C   UNL     1      -1.453  11.468  24.494  0.00  0.00    -0.052 C 
HETATM   26  C   UNL     1      -0.497  12.334  25.042  0.00  0.00     0.007 C 
HETATM   27  C   UNL     1       0.197  13.246  24.244  0.00  0.00     0.001 C 
HETATM   28  C   UNL     1      -0.132  13.401  22.903  0.00  0.00     0.007 C 
HETATM   29  C   UNL     1      -1.187  12.669  22.351  0.00  0.00    -0.061 C 
HETATM   30  C   UNL     1      -1.808  11.672  23.136  0.00  0.00     0.014 C 
HETATM   31  C   UNL     1      -1.625  12.985  20.946  0.00  0.00     0.048 C 
ENDBRANCH  24  25
ENDBRANCH  10  24
TORSDOF 5
ENDMDL
