REMARK  5 active torsions:
REMARK  status: ('A' for Active; 'I' for Inactive)
REMARK    1  A    between atoms: C_7  and  N_8 
REMARK       I    between atoms: N_8  and  C_10 
REMARK    2  A    between atoms: C_10  and  C_12 
REMARK    3  A    between atoms: C_14  and  O_15 
REMARK    4  A    between atoms: C_22  and  C_23 
REMARK    5  A    between atoms: C_23  and  C_24 
ROOT
HETATM    1  C   UNL     1      -5.162   1.175  -0.235  0.00  0.00     0.066 C 
HETATM    2  C   UNL     1      -5.802  -0.067  -0.027  0.00  0.00     0.035 C 
HETATM    3  C   UNL     1      -5.981   2.280  -0.555  0.00  0.00     0.083 C 
HETATM    4  C   UNL     1      -7.361   2.151  -0.770  0.00  0.00     0.069 C 
HETATM    5  C   UNL     1      -7.897   0.861  -0.733  0.00  0.00     0.065 A 
HETATM    6  C   UNL     1      -7.151  -0.260  -0.403  0.00  0.00     0.020 A 
HETATM    7  N   UNL     1      -9.155   0.390  -0.963  0.00  0.00    -0.277 N 
HETATM    8  H   UNL     1      -9.984   0.937  -1.188  0.00  0.00     0.189 HD
HETATM    9  N   UNL     1      -9.265  -0.944  -0.923  0.00  0.00    -0.178 NA
HETATM   10  C   UNL     1      -8.030  -1.377  -0.606  0.00  0.00     0.071 A 
ENDROOT
BRANCH   1  11
HETATM   11  C   UNL     1      -3.656   1.376  -0.157  0.00  0.00     0.260 C 
HETATM   12  N   UNL     1      -2.734   0.340  -0.499  0.00  0.00    -0.318 N 
HETATM   13  C   UNL     1      -3.216  -0.978  -0.917  0.00  0.00     0.159 C 
HETATM   14  O   UNL     1      -3.320   2.531   0.130  0.00  0.00    -0.267 OA
BRANCH  12  15
HETATM   15  C   UNL     1      -1.290   0.461  -0.302  0.00  0.00     0.037 C 
HETATM   16  C   UNL     1      -0.408  -0.514  -0.812  0.00  0.00     0.030 C 
HETATM   17  C   UNL     1       0.947  -0.566  -0.472  0.00  0.00     0.009 C 
HETATM   18  C   UNL     1       1.493   0.390   0.371  0.00  0.00    -0.062 C 
HETATM   19  C   UNL     1       2.911   0.264   0.836  0.00  0.00     0.048 C 
HETATM   20  C   UNL     1       0.681   1.450   0.777  0.00  0.00     0.009 C 
HETATM   21  C   UNL     1      -0.690   1.484   0.444  0.00  0.00     0.030 C 
ENDBRANCH  12  15
ENDBRANCH   1  11
BRANCH   3  22
HETATM   22  O   UNL     1      -5.502   3.564  -0.674  0.00  0.00    -0.360 OA
HETATM   23  H   UNL     1      -4.564   3.566  -0.374  0.00  0.00     0.217 HD
ENDBRANCH   3  22
BRANCH  10  24
HETATM   24  C   UNL     1      -7.783  -2.872  -0.530  0.00  0.00     0.100 C 
BRANCH  24  25
HETATM   25  C   UNL     1      -6.888  -3.361  -1.670  0.00  0.00    -0.052 C 
HETATM   26  C   UNL     1      -6.749  -2.665  -2.879  0.00  0.00     0.007 C 
HETATM   27  C   UNL     1      -5.894  -3.122  -3.884  0.00  0.00     0.001 C 
HETATM   28  C   UNL     1      -5.250  -4.347  -3.758  0.00  0.00     0.007 C 
HETATM   29  C   UNL     1      -5.483  -5.149  -2.638  0.00  0.00    -0.061 C 
HETATM   30  C   UNL     1      -6.260  -4.630  -1.579  0.00  0.00     0.014 C 
HETATM   31  C   UNL     1      -4.904  -6.538  -2.614  0.00  0.00     0.048 C 
ENDBRANCH  24  25
ENDBRANCH  10  24
TORSDOF 5
