MODEL 1
REMARK VINA RESULT:    -7.799      0.000      0.000
REMARK INTER + INTRA:         -11.826
REMARK INTER:                 -10.548
REMARK INTRA:                  -1.278
REMARK UNBOUND:                -1.291
REMARK  7 active torsions:
REMARK  status: ('A' for Active; 'I' for Inactive)
REMARK    1  A    between atoms: O_2  and  C_3 
REMARK    2  A    between atoms: C_6  and  C_7 
REMARK    3  A    between atoms: C_9  and  N_10 
REMARK    4  A    between atoms: C_11  and  C_12 
REMARK       I    between atoms: C_12  and  N_14 
REMARK    5  A    between atoms: N_14  and  C_15 
REMARK    6  A    between atoms: C_25  and  N_26 
REMARK    7  A    between atoms: C_31  and  O_32 
ROOT
HETATM    1  C   UNL     1       8.452  13.112  24.704  0.00  0.00     0.013 C 
HETATM    2  C   UNL     1       7.015  12.975  24.763  0.00  0.00     0.035 C 
HETATM    3  C   UNL     1       5.990  12.195  24.064  0.00  0.00     0.043 C 
HETATM    4  C   UNL     1       4.706  12.680  24.261  0.00  0.00     0.097 C 
HETATM    5  S   UNL     1       4.684  13.807  25.549  0.00  0.00    -0.062 SA
HETATM    6  C   UNL     1       6.371  13.769  25.711  0.00  0.00     0.113 C 
HETATM    7  N   UNL     1       6.931  14.521  26.674  0.00  0.00    -0.227 NA
HETATM    8  C   UNL     1       8.264  14.591  26.653  0.00  0.00     0.123 C 
HETATM    9  C   UNL     1       9.046  13.990  25.670  0.00  0.00     0.096 C 
HETATM   10  C   UNL     1      10.445  14.320  25.671  0.00  0.00     0.103 C 
HETATM   11  N   UNL     1      11.588  14.545  25.722  0.00  0.00    -0.191 NA
ENDROOT
BRANCH   1  12
HETATM   12  C   UNL     1       9.257  12.439  23.642  0.00  0.00    -0.021 C 
HETATM   13  C   UNL     1       9.897  11.218  23.870  0.00  0.00     0.015 C 
HETATM   14  C   UNL     1      10.747  10.643  22.925  0.00  0.00     0.040 C 
HETATM   15  C   UNL     1      10.835  11.151  21.627  0.00  0.00     0.101 C 
HETATM   16  C   UNL     1      10.143  12.325  21.328  0.00  0.00     0.102 C 
HETATM   17  C   UNL     1       9.468  12.999  22.371  0.00  0.00     0.052 C 
BRANCH  15  18
HETATM   18  O   UNL     1      11.616  10.548  20.680  0.00  0.00    -0.353 OA
HETATM   19  C   UNL     1      12.928  10.173  21.096  0.00  0.00     0.210 C 
ENDBRANCH  15  18
BRANCH  16  20
HETATM   20  O   UNL     1       9.999  12.973  20.133  0.00  0.00    -0.353 OA
HETATM   21  C   UNL     1       8.902  12.722  19.267  0.00  0.00     0.210 C 
ENDBRANCH  16  20
ENDBRANCH   1  12
BRANCH   8  22
HETATM   22  N   UNL     1       8.812  15.394  27.655  0.00  0.00    -0.286 NA
HETATM   23  H   UNL     1       9.671  15.813  27.303  0.00  0.00     0.125 HD
HETATM   24  H   UNL     1       8.174  16.092  28.026  0.00  0.00     0.125 HD
ENDBRANCH   8  22
BRANCH   3  25
HETATM   25  N   UNL     1       6.232  11.135  23.239  0.00  0.00    -0.301 NA
HETATM   26  H   UNL     1       6.633  11.339  22.320  0.00  0.00     0.124 HD
HETATM   27  H   UNL     1       5.449  10.494  23.083  0.00  0.00     0.124 HD
ENDBRANCH   3  25
BRANCH   4  28
HETATM   28  C   UNL     1       3.428  12.378  23.607  0.00  0.00     0.265 C 
HETATM   29  O   UNL     1       3.370  12.045  22.428  0.00  0.00    -0.267 OA
HETATM   30  N   UNL     1       2.319  12.491  24.433  0.00  0.00    -0.322 N 
HETATM   31  H   UNL     1       2.508  12.843  25.365  0.00  0.00     0.169 HD
BRANCH  30  32
HETATM   32  C   UNL     1       0.969  12.205  24.108  0.00  0.00     0.035 A 
HETATM   33  C   UNL     1       0.164  13.027  23.311  0.00  0.00     0.032 A 
HETATM   34  C   UNL     1      -1.161  12.674  23.028  0.00  0.00     0.044 A 
HETATM   35  C   UNL     1      -1.685  11.501  23.542  0.00  0.00     0.116 A 
HETATM   36  F   UNL     1      -2.954  11.164  23.271  0.00  0.00    -0.206 F 
HETATM   37  C   UNL     1      -0.907  10.666  24.336  0.00  0.00     0.044 A 
HETATM   38  C   UNL     1       0.419  11.018  24.616  0.00  0.00     0.032 A 
ENDBRANCH  30  32
ENDBRANCH   4  28
TORSDOF 7
ENDMDL
MODEL 2
REMARK VINA RESULT:    -7.741      5.222      9.702
REMARK INTER + INTRA:         -11.747
REMARK INTER:                 -10.501
REMARK INTRA:                  -1.246
REMARK UNBOUND:                -1.291
REMARK  7 active torsions:
REMARK  status: ('A' for Active; 'I' for Inactive)
REMARK    1  A    between atoms: O_2  and  C_3 
REMARK    2  A    between atoms: C_6  and  C_7 
REMARK    3  A    between atoms: C_9  and  N_10 
REMARK    4  A    between atoms: C_11  and  C_12 
REMARK       I    between atoms: C_12  and  N_14 
REMARK    5  A    between atoms: N_14  and  C_15 
REMARK    6  A    between atoms: C_25  and  N_26 
REMARK    7  A    between atoms: C_31  and  O_32 
ROOT
HETATM    1  C   UNL     1      -0.737   9.315  26.705  0.00  0.00     0.013 C 
HETATM    2  C   UNL     1      -0.487  10.498  25.914  0.00  0.00     0.035 C 
HETATM    3  C   UNL     1       0.430  10.887  24.839  0.00  0.00     0.043 C 
HETATM    4  C   UNL     1       0.499  12.259  24.649  0.00  0.00     0.097 C 
HETATM    5  S   UNL     1      -0.780  13.041  25.476  0.00  0.00    -0.062 SA
HETATM    6  C   UNL     1      -1.293  11.598  26.202  0.00  0.00     0.113 C 
HETATM    7  N   UNL     1      -2.369  11.643  27.006  0.00  0.00    -0.227 NA
HETATM    8  C   UNL     1      -2.633  10.525  27.685  0.00  0.00     0.123 C 
HETATM    9  C   UNL     1      -1.825   9.392  27.635  0.00  0.00     0.096 C 
HETATM   10  C   UNL     1      -2.130   8.343  28.571  0.00  0.00     0.103 C 
HETATM   11  N   UNL     1      -2.426   7.475  29.290  0.00  0.00    -0.191 NA
ENDROOT
BRANCH   1  12
HETATM   12  C   UNL     1       0.145   8.114  26.612  0.00  0.00    -0.021 C 
HETATM   13  C   UNL     1      -0.243   6.972  25.905  0.00  0.00     0.015 C 
HETATM   14  C   UNL     1       0.521   5.805  25.913  0.00  0.00     0.040 C 
HETATM   15  C   UNL     1       1.809   5.786  26.452  0.00  0.00     0.101 C 
HETATM   16  C   UNL     1       2.273   6.935  27.095  0.00  0.00     0.102 C 
HETATM   17  C   UNL     1       1.389   8.025  27.259  0.00  0.00     0.052 C 
BRANCH  15  18
HETATM   18  O   UNL     1       2.585   4.662  26.400  0.00  0.00    -0.353 OA
HETATM   19  C   UNL     1       2.388   3.716  27.450  0.00  0.00     0.210 C 
ENDBRANCH  15  18
BRANCH  16  20
HETATM   20  O   UNL     1       3.505   7.200  27.624  0.00  0.00    -0.353 OA
HETATM   21  C   UNL     1       3.842   6.856  28.960  0.00  0.00     0.210 C 
ENDBRANCH  16  20
ENDBRANCH   1  12
BRANCH   8  22
HETATM   22  N   UNL     1      -3.745  10.611  28.525  0.00  0.00    -0.286 NA
HETATM   23  H   UNL     1      -4.496  11.080  28.022  0.00  0.00     0.125 HD
HETATM   24  H   UNL     1      -4.046   9.721  28.911  0.00  0.00     0.125 HD
ENDBRANCH   8  22
BRANCH   3  25
HETATM   25  N   UNL     1       1.207  10.028  24.117  0.00  0.00    -0.301 NA
HETATM   26  H   UNL     1       2.054   9.672  24.568  0.00  0.00     0.124 HD
HETATM   27  H   UNL     1       1.482  10.342  23.183  0.00  0.00     0.124 HD
ENDBRANCH   3  25
BRANCH   4  28
HETATM   28  C   UNL     1       1.415  13.100  23.873  0.00  0.00     0.265 C 
HETATM   29  O   UNL     1       1.033  13.743  22.900  0.00  0.00    -0.267 OA
HETATM   30  N   UNL     1       2.722  13.110  24.339  0.00  0.00    -0.322 N 
HETATM   31  H   UNL     1       2.910  12.477  25.109  0.00  0.00     0.169 HD
BRANCH  30  32
HETATM   32  C   UNL     1       3.810  13.869  23.841  0.00  0.00     0.035 A 
HETATM   33  C   UNL     1       3.937  15.254  23.998  0.00  0.00     0.032 A 
HETATM   34  C   UNL     1       5.046  15.935  23.482  0.00  0.00     0.044 A 
HETATM   35  C   UNL     1       6.031  15.234  22.809  0.00  0.00     0.116 A 
HETATM   36  F   UNL     1       7.093  15.886  22.316  0.00  0.00    -0.206 F 
HETATM   37  C   UNL     1       5.931  13.857  22.640  0.00  0.00     0.044 A 
HETATM   38  C   UNL     1       4.823  13.177  23.158  0.00  0.00     0.032 A 
ENDBRANCH  30  32
ENDBRANCH   4  28
TORSDOF 7
ENDMDL
MODEL 3
REMARK VINA RESULT:    -7.449      2.507      2.949
REMARK INTER + INTRA:         -11.352
REMARK INTER:                 -10.169
REMARK INTRA:                  -1.183
REMARK UNBOUND:                -1.291
REMARK  7 active torsions:
REMARK  status: ('A' for Active; 'I' for Inactive)
REMARK    1  A    between atoms: O_2  and  C_3 
REMARK    2  A    between atoms: C_6  and  C_7 
REMARK    3  A    between atoms: C_9  and  N_10 
REMARK    4  A    between atoms: C_11  and  C_12 
REMARK       I    between atoms: C_12  and  N_14 
REMARK    5  A    between atoms: N_14  and  C_15 
REMARK    6  A    between atoms: C_25  and  N_26 
REMARK    7  A    between atoms: C_31  and  O_32 
ROOT
HETATM    1  C   UNL     1       7.334  12.331  24.894  0.00  0.00     0.013 C 
HETATM    2  C   UNL     1       6.043  12.858  25.271  0.00  0.00     0.035 C 
HETATM    3  C   UNL     1       4.667  12.359  25.336  0.00  0.00     0.043 C 
HETATM    4  C   UNL     1       3.723  13.370  25.442  0.00  0.00     0.097 C 
HETATM    5  S   UNL     1       4.480  14.855  25.833  0.00  0.00    -0.062 SA
HETATM    6  C   UNL     1       6.032  14.188  25.688  0.00  0.00     0.113 C 
HETATM    7  N   UNL     1       7.087  14.984  25.932  0.00  0.00    -0.227 NA
HETATM    8  C   UNL     1       8.283  14.467  25.642  0.00  0.00     0.123 C 
HETATM    9  C   UNL     1       8.453  13.213  25.061  0.00  0.00     0.096 C 
HETATM   10  C   UNL     1       9.783  12.880  24.629  0.00  0.00     0.103 C 
HETATM   11  N   UNL     1      10.877  12.597  24.340  0.00  0.00    -0.191 NA
ENDROOT
BRANCH   1  12
HETATM   12  C   UNL     1       7.477  10.975  24.286  0.00  0.00    -0.021 C 
HETATM   13  C   UNL     1       8.200   9.960  24.920  0.00  0.00     0.015 C 
HETATM   14  C   UNL     1       8.437   8.731  24.305  0.00  0.00     0.040 C 
HETATM   15  C   UNL     1       7.790   8.376  23.120  0.00  0.00     0.101 C 
HETATM   16  C   UNL     1       6.987   9.332  22.494  0.00  0.00     0.102 C 
HETATM   17  C   UNL     1       6.944  10.639  23.031  0.00  0.00     0.052 C 
BRANCH  15  18
HETATM   18  O   UNL     1       7.969   7.146  22.552  0.00  0.00    -0.353 OA
HETATM   19  C   UNL     1       7.050   6.131  22.954  0.00  0.00     0.210 C 
ENDBRANCH  15  18
BRANCH  16  20
HETATM   20  O   UNL     1       6.192   9.213  21.388  0.00  0.00    -0.353 OA
HETATM   21  C   UNL     1       4.813   8.888  21.482  0.00  0.00     0.210 C 
ENDBRANCH  16  20
ENDBRANCH   1  12
BRANCH   8  22
HETATM   22  N   UNL     1       9.355  15.326  25.889  0.00  0.00    -0.286 NA
HETATM   23  H   UNL     1       9.234  16.167  25.328  0.00  0.00     0.125 HD
HETATM   24  H   UNL     1       9.497  15.543  26.872  0.00  0.00     0.125 HD
ENDBRANCH   8  22
BRANCH   3  25
HETATM   25  N   UNL     1       4.298  11.048  25.240  0.00  0.00    -0.301 NA
HETATM   26  H   UNL     1       3.941  10.728  24.336  0.00  0.00     0.124 HD
HETATM   27  H   UNL     1       3.647  10.707  25.951  0.00  0.00     0.124 HD
ENDBRANCH   3  25
BRANCH   4  28
HETATM   28  C   UNL     1       2.263  13.370  25.314  0.00  0.00     0.265 C 
HETATM   29  O   UNL     1       1.567  14.220  25.860  0.00  0.00    -0.267 OA
HETATM   30  N   UNL     1       1.754  12.349  24.524  0.00  0.00    -0.322 N 
HETATM   31  H   UNL     1       2.438  11.677  24.193  0.00  0.00     0.169 HD
BRANCH  30  32
HETATM   32  C   UNL     1       0.400  12.127  24.166  0.00  0.00     0.035 A 
HETATM   33  C   UNL     1      -0.229  12.729  23.070  0.00  0.00     0.032 A 
HETATM   34  C   UNL     1      -1.570  12.455  22.776  0.00  0.00     0.044 A 
HETATM   35  C   UNL     1      -2.285  11.580  23.575  0.00  0.00     0.116 A 
HETATM   36  F   UNL     1      -3.568  11.318  23.291  0.00  0.00    -0.206 F 
HETATM   37  C   UNL     1      -1.683  10.967  24.668  0.00  0.00     0.044 A 
HETATM   38  C   UNL     1      -0.342  11.240  24.961  0.00  0.00     0.032 A 
ENDBRANCH  30  32
ENDBRANCH   4  28
TORSDOF 7
ENDMDL
MODEL 4
REMARK VINA RESULT:    -7.428      4.273      6.080
REMARK INTER + INTRA:         -11.325
REMARK INTER:                 -10.165
REMARK INTRA:                  -1.160
REMARK UNBOUND:                -1.291
REMARK  7 active torsions:
REMARK  status: ('A' for Active; 'I' for Inactive)
REMARK    1  A    between atoms: O_2  and  C_3 
REMARK    2  A    between atoms: C_6  and  C_7 
REMARK    3  A    between atoms: C_9  and  N_10 
REMARK    4  A    between atoms: C_11  and  C_12 
REMARK       I    between atoms: C_12  and  N_14 
REMARK    5  A    between atoms: N_14  and  C_15 
REMARK    6  A    between atoms: C_25  and  N_26 
REMARK    7  A    between atoms: C_31  and  O_32 
ROOT
HETATM    1  C   UNL     1       5.692  11.016  22.216  0.00  0.00     0.013 C 
HETATM    2  C   UNL     1       4.679  10.170  22.803  0.00  0.00     0.035 C 
HETATM    3  C   UNL     1       3.919  10.129  24.056  0.00  0.00     0.043 C 
HETATM    4  C   UNL     1       3.305   8.907  24.283  0.00  0.00     0.097 C 
HETATM    5  S   UNL     1       3.321   7.957  22.859  0.00  0.00    -0.062 SA
HETATM    6  C   UNL     1       4.276   9.084  22.028  0.00  0.00     0.113 C 
HETATM    7  N   UNL     1       4.596   8.820  20.749  0.00  0.00    -0.227 NA
HETATM    8  C   UNL     1       5.484   9.646  20.192  0.00  0.00     0.123 C 
HETATM    9  C   UNL     1       6.106  10.680  20.885  0.00  0.00     0.096 C 
HETATM   10  C   UNL     1       7.181  11.353  20.207  0.00  0.00     0.103 C 
HETATM   11  N   UNL     1       8.007  11.933  19.623  0.00  0.00    -0.191 NA
ENDROOT
BRANCH   1  12
HETATM   12  C   UNL     1       6.326  12.125  22.989  0.00  0.00    -0.021 C 
HETATM   13  C   UNL     1       7.443  11.908  23.801  0.00  0.00     0.015 C 
HETATM   14  C   UNL     1       7.966  12.911  24.617  0.00  0.00     0.040 C 
HETATM   15  C   UNL     1       7.534  14.235  24.506  0.00  0.00     0.101 C 
HETATM   16  C   UNL     1       6.474  14.514  23.642  0.00  0.00     0.102 C 
HETATM   17  C   UNL     1       5.825  13.438  22.996  0.00  0.00     0.052 C 
BRANCH  15  18
HETATM   18  O   UNL     1       8.094  15.230  25.257  0.00  0.00    -0.353 OA
HETATM   19  C   UNL     1       9.512  15.361  25.167  0.00  0.00     0.210 C 
ENDBRANCH  15  18
BRANCH  16  20
HETATM   20  O   UNL     1       5.926  15.717  23.295  0.00  0.00    -0.353 OA
HETATM   21  C   UNL     1       4.608  16.083  23.678  0.00  0.00     0.210 C 
ENDBRANCH  16  20
ENDBRANCH   1  12
BRANCH   8  22
HETATM   22  N   UNL     1       5.807   9.334  18.870  0.00  0.00    -0.286 NA
HETATM   23  H   UNL     1       5.393   8.433  18.638  0.00  0.00     0.125 HD
HETATM   24  H   UNL     1       5.553  10.052  18.197  0.00  0.00     0.125 HD
ENDBRANCH   8  22
BRANCH   3  25
HETATM   25  N   UNL     1       3.850  11.142  24.969  0.00  0.00    -0.301 NA
HETATM   26  H   UNL     1       3.038  11.763  24.918  0.00  0.00     0.124 HD
HETATM   27  H   UNL     1       4.675  11.743  25.042  0.00  0.00     0.124 HD
ENDBRANCH   3  25
BRANCH   4  28
HETATM   28  C   UNL     1       2.650   8.339  25.466  0.00  0.00     0.265 C 
HETATM   29  O   UNL     1       3.251   8.182  26.524  0.00  0.00    -0.267 OA
HETATM   30  N   UNL     1       1.313   8.015  25.283  0.00  0.00    -0.322 N 
HETATM   31  H   UNL     1       0.966   8.133  24.338  0.00  0.00     0.169 HD
BRANCH  30  32
HETATM   32  C   UNL     1       0.407   7.512  26.250  0.00  0.00     0.035 A 
HETATM   33  C   UNL     1      -0.180   8.292  27.254  0.00  0.00     0.032 A 
HETATM   34  C   UNL     1      -1.072   7.724  28.171  0.00  0.00     0.044 A 
HETATM   35  C   UNL     1      -1.380   6.377  28.088  0.00  0.00     0.116 A 
HETATM   36  F   UNL     1      -2.235   5.835  28.966  0.00  0.00    -0.206 F 
HETATM   37  C   UNL     1      -0.813   5.581  27.099  0.00  0.00     0.044 A 
HETATM   38  C   UNL     1       0.078   6.150  26.181  0.00  0.00     0.032 A 
ENDBRANCH  30  32
ENDBRANCH   4  28
TORSDOF 7
ENDMDL
MODEL 5
REMARK VINA RESULT:    -7.107      4.505      6.796
REMARK INTER + INTRA:         -10.891
REMARK INTER:                  -9.961
REMARK INTRA:                  -0.930
REMARK UNBOUND:                -1.291
REMARK  7 active torsions:
REMARK  status: ('A' for Active; 'I' for Inactive)
REMARK    1  A    between atoms: O_2  and  C_3 
REMARK    2  A    between atoms: C_6  and  C_7 
REMARK    3  A    between atoms: C_9  and  N_10 
REMARK    4  A    between atoms: C_11  and  C_12 
REMARK       I    between atoms: C_12  and  N_14 
REMARK    5  A    between atoms: N_14  and  C_15 
REMARK    6  A    between atoms: C_25  and  N_26 
REMARK    7  A    between atoms: C_31  and  O_32 
ROOT
HETATM    1  C   UNL     1       5.028  11.792  22.897  0.00  0.00     0.013 C 
HETATM    2  C   UNL     1       4.413  10.509  23.147  0.00  0.00     0.035 C 
HETATM    3  C   UNL     1       3.327   9.994  23.985  0.00  0.00     0.043 C 
HETATM    4  C   UNL     1       3.349   8.614  24.123  0.00  0.00     0.097 C 
HETATM    5  S   UNL     1       4.412   7.918  22.976  0.00  0.00    -0.062 SA
HETATM    6  C   UNL     1       4.949   9.434  22.441  0.00  0.00     0.113 C 
HETATM    7  N   UNL     1       5.854   9.470  21.448  0.00  0.00    -0.227 NA
HETATM    8  C   UNL     1       6.371  10.670  21.177  0.00  0.00     0.123 C 
HETATM    9  C   UNL     1       6.062  11.816  21.904  0.00  0.00     0.096 C 
HETATM   10  C   UNL     1       6.847  12.987  21.621  0.00  0.00     0.103 C 
HETATM   11  N   UNL     1       7.446  13.947  21.337  0.00  0.00    -0.191 NA
ENDROOT
BRANCH   1  12
HETATM   12  C   UNL     1       4.660  13.002  23.690  0.00  0.00    -0.021 C 
HETATM   13  C   UNL     1       3.493  13.725  23.424  0.00  0.00     0.015 C 
HETATM   14  C   UNL     1       3.203  14.922  24.079  0.00  0.00     0.040 C 
HETATM   15  C   UNL     1       3.954  15.347  25.178  0.00  0.00     0.101 C 
HETATM   16  C   UNL     1       5.082  14.607  25.533  0.00  0.00     0.102 C 
HETATM   17  C   UNL     1       5.470  13.524  24.712  0.00  0.00     0.052 C 
BRANCH  15  18
HETATM   18  O   UNL     1       3.630  16.485  25.863  0.00  0.00    -0.353 OA
HETATM   19  C   UNL     1       2.913  16.299  27.083  0.00  0.00     0.210 C 
ENDBRANCH  15  18
BRANCH  16  20
HETATM   20  O   UNL     1       5.925  14.759  26.599  0.00  0.00    -0.353 OA
HETATM   21  C   UNL     1       7.233  14.205  26.612  0.00  0.00     0.210 C 
ENDBRANCH  16  20
ENDBRANCH   1  12
BRANCH   8  22
HETATM   22  N   UNL     1       7.320  10.669  20.153  0.00  0.00    -0.286 NA
HETATM   23  H   UNL     1       7.203  11.516  19.601  0.00  0.00     0.125 HD
HETATM   24  H   UNL     1       8.278  10.553  20.473  0.00  0.00     0.125 HD
ENDBRANCH   8  22
BRANCH   3  25
HETATM   25  N   UNL     1       2.405  10.760  24.639  0.00  0.00    -0.301 NA
HETATM   26  H   UNL     1       2.722  11.658  25.012  0.00  0.00     0.124 HD
HETATM   27  H   UNL     1       1.882  10.298  25.388  0.00  0.00     0.124 HD
ENDBRANCH   3  25
BRANCH   4  28
HETATM   28  C   UNL     1       2.628   7.702  25.015  0.00  0.00     0.265 C 
HETATM   29  O   UNL     1       3.132   6.658  25.417  0.00  0.00    -0.267 OA
HETATM   30  N   UNL     1       1.354   8.127  25.366  0.00  0.00    -0.322 N 
HETATM   31  H   UNL     1       1.040   8.974  24.905  0.00  0.00     0.169 HD
BRANCH  30  32
HETATM   32  C   UNL     1       0.448   7.497  26.255  0.00  0.00     0.035 A 
HETATM   33  C   UNL     1      -0.020   6.187  26.100  0.00  0.00     0.032 A 
HETATM   34  C   UNL     1      -0.911   5.630  27.026  0.00  0.00     0.044 A 
HETATM   35  C   UNL     1      -1.337   6.381  28.107  0.00  0.00     0.116 A 
HETATM   36  F   UNL     1      -2.189   5.847  28.993  0.00  0.00    -0.206 F 
HETATM   37  C   UNL     1      -0.886   7.685  28.286  0.00  0.00     0.044 A 
HETATM   38  C   UNL     1       0.006   8.240  27.361  0.00  0.00     0.032 A 
ENDBRANCH  30  32
ENDBRANCH   4  28
TORSDOF 7
ENDMDL
MODEL 6
REMARK VINA RESULT:    -7.055      4.315      6.468
REMARK INTER + INTRA:         -10.820
REMARK INTER:                  -9.912
REMARK INTRA:                  -0.908
REMARK UNBOUND:                -1.291
REMARK  7 active torsions:
REMARK  status: ('A' for Active; 'I' for Inactive)
REMARK    1  A    between atoms: O_2  and  C_3 
REMARK    2  A    between atoms: C_6  and  C_7 
REMARK    3  A    between atoms: C_9  and  N_10 
REMARK    4  A    between atoms: C_11  and  C_12 
REMARK       I    between atoms: C_12  and  N_14 
REMARK    5  A    between atoms: N_14  and  C_15 
REMARK    6  A    between atoms: C_25  and  N_26 
REMARK    7  A    between atoms: C_31  and  O_32 
ROOT
HETATM    1  C   UNL     1       5.952  12.835  22.325  0.00  0.00     0.013 C 
HETATM    2  C   UNL     1       5.440  11.491  22.190  0.00  0.00     0.035 C 
HETATM    3  C   UNL     1       4.317  10.720  22.729  0.00  0.00     0.043 C 
HETATM    4  C   UNL     1       4.457   9.352  22.553  0.00  0.00     0.097 C 
HETATM    5  S   UNL     1       5.714   9.020  21.438  0.00  0.00    -0.062 SA
HETATM    6  C   UNL     1       6.161  10.653  21.340  0.00  0.00     0.113 C 
HETATM    7  N   UNL     1       7.170  10.984  20.517  0.00  0.00    -0.227 NA
HETATM    8  C   UNL     1       7.596  12.246  20.601  0.00  0.00     0.123 C 
HETATM    9  C   UNL     1       7.091  13.164  21.518  0.00  0.00     0.096 C 
HETATM   10  C   UNL     1       7.786  14.419  21.619  0.00  0.00     0.103 C 
HETATM   11  N   UNL     1       8.318  15.456  21.646  0.00  0.00    -0.191 NA
ENDROOT
BRANCH   1  12
HETATM   12  C   UNL     1       5.375  13.795  23.311  0.00  0.00    -0.021 C 
HETATM   13  C   UNL     1       4.146  14.424  23.089  0.00  0.00     0.015 C 
HETATM   14  C   UNL     1       3.658  15.411  23.946  0.00  0.00     0.040 C 
HETATM   15  C   UNL     1       4.267  15.667  25.177  0.00  0.00     0.101 C 
HETATM   16  C   UNL     1       5.453  14.997  25.480  0.00  0.00     0.102 C 
HETATM   17  C   UNL     1       6.035  14.168  24.494  0.00  0.00     0.052 C 
BRANCH  15  18
HETATM   18  O   UNL     1       3.749  16.585  26.048  0.00  0.00    -0.353 OA
HETATM   19  C   UNL     1       2.842  16.078  27.026  0.00  0.00     0.210 C 
ENDBRANCH  15  18
BRANCH  16  20
HETATM   20  O   UNL     1       6.190  15.006  26.631  0.00  0.00    -0.353 OA
HETATM   21  C   UNL     1       7.497  14.454  26.694  0.00  0.00     0.210 C 
ENDBRANCH  16  20
ENDBRANCH   1  12
BRANCH   8  22
HETATM   22  N   UNL     1       8.657  12.552  19.746  0.00  0.00    -0.286 NA
HETATM   23  H   UNL     1       9.206  13.300  20.164  0.00  0.00     0.125 HD
HETATM   24  H   UNL     1       9.233  11.753  19.494  0.00  0.00     0.125 HD
ENDBRANCH   8  22
BRANCH   3  25
HETATM   25  N   UNL     1       3.252  11.245  23.404  0.00  0.00    -0.301 NA
HETATM   26  H   UNL     1       3.005  10.813  24.298  0.00  0.00     0.124 HD
HETATM   27  H   UNL     1       2.382  11.341  22.873  0.00  0.00     0.124 HD
ENDBRANCH   3  25
BRANCH   4  28
HETATM   28  C   UNL     1       3.727   8.208  23.106  0.00  0.00     0.265 C 
HETATM   29  O   UNL     1       3.918   7.064  22.704  0.00  0.00    -0.267 OA
HETATM   30  N   UNL     1       2.828   8.531  24.113  0.00  0.00    -0.322 N 
HETATM   31  H   UNL     1       2.722   9.523  24.294  0.00  0.00     0.169 HD
BRANCH  30  32
HETATM   32  C   UNL     1       2.031   7.642  24.876  0.00  0.00     0.035 A 
HETATM   33  C   UNL     1       2.532   6.802  25.877  0.00  0.00     0.032 A 
HETATM   34  C   UNL     1       1.679   5.954  26.594  0.00  0.00     0.044 A 
HETATM   35  C   UNL     1       0.325   5.943  26.312  0.00  0.00     0.116 A 
HETATM   36  F   UNL     1      -0.491   5.131  27.000  0.00  0.00    -0.206 F 
HETATM   37  C   UNL     1      -0.200   6.769  25.324  0.00  0.00     0.044 A 
HETATM   38  C   UNL     1       0.653   7.617  24.609  0.00  0.00     0.032 A 
ENDBRANCH  30  32
ENDBRANCH   4  28
TORSDOF 7
ENDMDL
MODEL 7
REMARK VINA RESULT:    -7.052      5.991      8.154
REMARK INTER + INTRA:         -10.817
REMARK INTER:                  -9.516
REMARK INTRA:                  -1.301
REMARK UNBOUND:                -1.291
REMARK  7 active torsions:
REMARK  status: ('A' for Active; 'I' for Inactive)
REMARK    1  A    between atoms: O_2  and  C_3 
REMARK    2  A    between atoms: C_6  and  C_7 
REMARK    3  A    between atoms: C_9  and  N_10 
REMARK    4  A    between atoms: C_11  and  C_12 
REMARK       I    between atoms: C_12  and  N_14 
REMARK    5  A    between atoms: N_14  and  C_15 
REMARK    6  A    between atoms: C_25  and  N_26 
REMARK    7  A    between atoms: C_31  and  O_32 
ROOT
HETATM    1  C   UNL     1       5.419   7.010  20.795  0.00  0.00     0.013 C 
HETATM    2  C   UNL     1       5.437   8.426  21.082  0.00  0.00     0.035 C 
HETATM    3  C   UNL     1       5.965   9.290  22.141  0.00  0.00     0.043 C 
HETATM    4  C   UNL     1       5.419  10.565  22.129  0.00  0.00     0.097 C 
HETATM    5  S   UNL     1       4.578  10.840  20.663  0.00  0.00    -0.062 SA
HETATM    6  C   UNL     1       4.797   9.239  20.150  0.00  0.00     0.113 C 
HETATM    7  N   UNL     1       4.308   8.889  18.948  0.00  0.00    -0.227 NA
HETATM    8  C   UNL     1       4.354   7.586  18.661  0.00  0.00     0.123 C 
HETATM    9  C   UNL     1       4.811   6.622  19.556  0.00  0.00     0.096 C 
HETATM   10  C   UNL     1       4.613   5.249  19.177  0.00  0.00     0.103 C 
HETATM   11  N   UNL     1       4.505   4.141  18.830  0.00  0.00    -0.191 NA
ENDROOT
BRANCH   1  12
HETATM   12  C   UNL     1       5.931   6.007  21.775  0.00  0.00    -0.021 C 
HETATM   13  C   UNL     1       7.236   5.511  21.703  0.00  0.00     0.015 C 
HETATM   14  C   UNL     1       7.683   4.488  22.539  0.00  0.00     0.040 C 
HETATM   15  C   UNL     1       6.921   4.058  23.627  0.00  0.00     0.101 C 
HETATM   16  C   UNL     1       5.641   4.590  23.790  0.00  0.00     0.102 C 
HETATM   17  C   UNL     1       5.138   5.461  22.798  0.00  0.00     0.052 C 
BRANCH  15  18
HETATM   18  O   UNL     1       7.388   3.103  24.488  0.00  0.00    -0.353 OA
HETATM   19  C   UNL     1       7.983   1.954  23.887  0.00  0.00     0.210 C 
ENDBRANCH  15  18
BRANCH  16  20
HETATM   20  O   UNL     1       4.740   4.401  24.801  0.00  0.00    -0.353 OA
HETATM   21  C   UNL     1       3.523   5.128  24.872  0.00  0.00     0.210 C 
ENDBRANCH  16  20
ENDBRANCH   1  12
BRANCH   8  22
HETATM   22  N   UNL     1       3.822   7.254  17.413  0.00  0.00    -0.286 NA
HETATM   23  H   UNL     1       2.842   7.529  17.394  0.00  0.00     0.125 HD
HETATM   24  H   UNL     1       4.338   7.635  16.625  0.00  0.00     0.125 HD
ENDBRANCH   8  22
BRANCH   3  25
HETATM   25  N   UNL     1       6.854   8.906  23.103  0.00  0.00    -0.301 NA
HETATM   26  H   UNL     1       7.195   7.942  23.067  0.00  0.00     0.124 HD
HETATM   27  H   UNL     1       6.577   9.083  24.073  0.00  0.00     0.124 HD
ENDBRANCH   3  25
BRANCH   4  28
HETATM   28  C   UNL     1       5.467  11.666  23.096  0.00  0.00     0.265 C 
HETATM   29  O   UNL     1       6.459  11.876  23.786  0.00  0.00    -0.267 OA
HETATM   30  N   UNL     1       4.315  12.438  23.146  0.00  0.00    -0.322 N 
HETATM   31  H   UNL     1       3.548  12.108  22.571  0.00  0.00     0.169 HD
BRANCH  30  32
HETATM   32  C   UNL     1       4.087  13.598  23.928  0.00  0.00     0.035 A 
HETATM   33  C   UNL     1       4.561  14.873  23.596  0.00  0.00     0.032 A 
HETATM   34  C   UNL     1       4.289  15.974  24.417  0.00  0.00     0.044 A 
HETATM   35  C   UNL     1       3.544  15.804  25.571  0.00  0.00     0.116 A 
HETATM   36  F   UNL     1       3.283  16.859  26.356  0.00  0.00    -0.206 F 
HETATM   37  C   UNL     1       3.059  14.549  25.923  0.00  0.00     0.044 A 
HETATM   38  C   UNL     1       3.330  13.449  25.101  0.00  0.00     0.032 A 
ENDBRANCH  30  32
ENDBRANCH   4  28
TORSDOF 7
ENDMDL
MODEL 8
REMARK VINA RESULT:    -6.921      3.942      9.101
REMARK INTER + INTRA:         -10.640
REMARK INTER:                  -9.598
REMARK INTRA:                  -1.042
REMARK UNBOUND:                -1.291
REMARK  7 active torsions:
REMARK  status: ('A' for Active; 'I' for Inactive)
REMARK    1  A    between atoms: O_2  and  C_3 
REMARK    2  A    between atoms: C_6  and  C_7 
REMARK    3  A    between atoms: C_9  and  N_10 
REMARK    4  A    between atoms: C_11  and  C_12 
REMARK       I    between atoms: C_12  and  N_14 
REMARK    5  A    between atoms: N_14  and  C_15 
REMARK    6  A    between atoms: C_25  and  N_26 
REMARK    7  A    between atoms: C_31  and  O_32 
ROOT
HETATM    1  C   UNL     1       2.761  13.224  24.748  0.00  0.00     0.013 C 
HETATM    2  C   UNL     1       3.946  13.356  23.933  0.00  0.00     0.035 C 
HETATM    3  C   UNL     1       4.568  12.618  22.830  0.00  0.00     0.043 C 
HETATM    4  C   UNL     1       5.893  12.968  22.617  0.00  0.00     0.097 C 
HETATM    5  S   UNL     1       6.274  14.407  23.462  0.00  0.00    -0.062 SA
HETATM    6  C   UNL     1       4.760  14.450  24.224  0.00  0.00     0.113 C 
HETATM    7  N   UNL     1       4.498  15.474  25.053  0.00  0.00    -0.227 NA
HETATM    8  C   UNL     1       3.368  15.377  25.756  0.00  0.00     0.123 C 
HETATM    9  C   UNL     1       2.528  14.268  25.703  0.00  0.00     0.096 C 
HETATM   10  C   UNL     1       1.458  14.226  26.663  0.00  0.00     0.103 C 
HETATM   11  N   UNL     1       0.557  14.235  27.403  0.00  0.00    -0.191 NA
ENDROOT
BRANCH   1  12
HETATM   12  C   UNL     1       1.877  12.024  24.652  0.00  0.00    -0.021 C 
HETATM   13  C   UNL     1       2.290  10.771  25.114  0.00  0.00     0.015 C 
HETATM   14  C   UNL     1       1.520   9.624  24.919  0.00  0.00     0.040 C 
HETATM   15  C   UNL     1       0.209   9.703  24.445  0.00  0.00     0.101 C 
HETATM   16  C   UNL     1      -0.277  10.951  24.051  0.00  0.00     0.102 C 
HETATM   17  C   UNL     1       0.606  12.055  24.056  0.00  0.00     0.052 C 
BRANCH  15  18
HETATM   18  O   UNL     1      -0.570   8.587  24.319  0.00  0.00    -0.353 OA
HETATM   19  C   UNL     1      -0.002   7.369  24.800  0.00  0.00     0.210 C 
ENDBRANCH  15  18
BRANCH  16  20
HETATM   20  O   UNL     1      -1.529  11.308  23.637  0.00  0.00    -0.353 OA
HETATM   21  C   UNL     1      -2.531  11.738  24.547  0.00  0.00     0.210 C 
ENDBRANCH  16  20
ENDBRANCH   1  12
BRANCH   8  22
HETATM   22  N   UNL     1       3.136  16.448  26.621  0.00  0.00    -0.286 NA
HETATM   23  H   UNL     1       3.223  16.117  27.579  0.00  0.00     0.125 HD
HETATM   24  H   UNL     1       3.721  17.260  26.446  0.00  0.00     0.125 HD
ENDBRANCH   8  22
BRANCH   3  25
HETATM   25  N   UNL     1       3.966  11.632  22.103  0.00  0.00    -0.301 NA
HETATM   26  H   UNL     1       3.873  10.714  22.546  0.00  0.00     0.124 HD
HETATM   27  H   UNL     1       4.339  11.469  21.164  0.00  0.00     0.124 HD
ENDBRANCH   3  25
BRANCH   4  28
HETATM   28  C   UNL     1       6.953  12.362  21.805  0.00  0.00     0.265 C 
HETATM   29  O   UNL     1       6.699  11.633  20.851  0.00  0.00    -0.267 OA
HETATM   30  N   UNL     1       8.241  12.692  22.201  0.00  0.00    -0.322 N 
HETATM   31  H   UNL     1       8.303  13.246  23.048  0.00  0.00     0.169 HD
BRANCH  30  32
HETATM   32  C   UNL     1       9.458  12.315  21.581  0.00  0.00     0.035 A 
HETATM   33  C   UNL     1      10.477  11.602  22.222  0.00  0.00     0.032 A 
HETATM   34  C   UNL     1      11.651  11.260  21.540  0.00  0.00     0.044 A 
HETATM   35  C   UNL     1      11.810  11.631  20.216  0.00  0.00     0.116 A 
HETATM   36  F   UNL     1      12.933  11.302  19.564  0.00  0.00    -0.206 F 
HETATM   37  C   UNL     1      10.812  12.338  19.554  0.00  0.00     0.044 A 
HETATM   38  C   UNL     1       9.638  12.678  20.237  0.00  0.00     0.032 A 
ENDBRANCH  30  32
ENDBRANCH   4  28
TORSDOF 7
ENDMDL
MODEL 9
REMARK VINA RESULT:    -6.905      3.031      3.825
REMARK INTER + INTRA:         -10.618
REMARK INTER:                  -9.327
REMARK INTRA:                  -1.291
REMARK UNBOUND:                -1.291
REMARK  7 active torsions:
REMARK  status: ('A' for Active; 'I' for Inactive)
REMARK    1  A    between atoms: O_2  and  C_3 
REMARK    2  A    between atoms: C_6  and  C_7 
REMARK    3  A    between atoms: C_9  and  N_10 
REMARK    4  A    between atoms: C_11  and  C_12 
REMARK       I    between atoms: C_12  and  N_14 
REMARK    5  A    between atoms: N_14  and  C_15 
REMARK    6  A    between atoms: C_25  and  N_26 
REMARK    7  A    between atoms: C_31  and  O_32 
ROOT
HETATM    1  C   UNL     1       7.674  12.039  23.265  0.00  0.00     0.013 C 
HETATM    2  C   UNL     1       6.545  12.905  23.517  0.00  0.00     0.035 C 
HETATM    3  C   UNL     1       5.153  12.741  23.944  0.00  0.00     0.043 C 
HETATM    4  C   UNL     1       4.372  13.862  23.704  0.00  0.00     0.097 C 
HETATM    5  S   UNL     1       5.360  15.208  23.325  0.00  0.00    -0.062 SA
HETATM    6  C   UNL     1       6.770  14.265  23.313  0.00  0.00     0.113 C 
HETATM    7  N   UNL     1       7.939  14.879  23.068  0.00  0.00    -0.227 NA
HETATM    8  C   UNL     1       8.992  14.076  22.901  0.00  0.00     0.123 C 
HETATM    9  C   UNL     1       8.902  12.687  22.908  0.00  0.00     0.096 C 
HETATM   10  C   UNL     1      10.083  11.965  22.519  0.00  0.00     0.103 C 
HETATM   11  N   UNL     1      11.065  11.390  22.263  0.00  0.00    -0.191 NA
ENDROOT
BRANCH   1  12
HETATM   12  C   UNL     1       7.540  10.552  23.296  0.00  0.00    -0.021 C 
HETATM   13  C   UNL     1       8.092   9.788  24.328  0.00  0.00     0.015 C 
HETATM   14  C   UNL     1       8.075   8.393  24.302  0.00  0.00     0.040 C 
HETATM   15  C   UNL     1       7.323   7.696  23.354  0.00  0.00     0.101 C 
HETATM   16  C   UNL     1       6.683   8.425  22.351  0.00  0.00     0.102 C 
HETATM   17  C   UNL     1       6.902   9.820  22.281  0.00  0.00     0.052 C 
BRANCH  15  18
HETATM   18  O   UNL     1       7.251   6.330  23.369  0.00  0.00    -0.353 OA
HETATM   19  C   UNL     1       6.793   5.741  24.585  0.00  0.00     0.210 C 
ENDBRANCH  15  18
BRANCH  16  20
HETATM   20  O   UNL     1       5.833   7.998  21.370  0.00  0.00    -0.353 OA
HETATM   21  C   UNL     1       4.437   7.856  21.590  0.00  0.00     0.210 C 
ENDBRANCH  16  20
ENDBRANCH   1  12
BRANCH   8  22
HETATM   22  N   UNL     1      10.187  14.745  22.630  0.00  0.00    -0.286 NA
HETATM   23  H   UNL     1      10.638  14.977  23.513  0.00  0.00     0.125 HD
HETATM   24  H   UNL     1      10.813  14.245  22.005  0.00  0.00     0.125 HD
ENDBRANCH   8  22
BRANCH   3  25
HETATM   25  N   UNL     1       4.617  11.600  24.468  0.00  0.00    -0.301 NA
HETATM   26  H   UNL     1       4.140  11.678  25.370  0.00  0.00     0.124 HD
HETATM   27  H   UNL     1       5.245  10.795  24.537  0.00  0.00     0.124 HD
ENDBRANCH   3  25
BRANCH   4  28
HETATM   28  C   UNL     1       2.923  14.082  23.751  0.00  0.00     0.265 C 
HETATM   29  O   UNL     1       2.445  15.178  24.022  0.00  0.00    -0.267 OA
HETATM   30  N   UNL     1       2.162  12.960  23.455  0.00  0.00    -0.322 N 
HETATM   31  H   UNL     1       2.688  12.104  23.319  0.00  0.00     0.169 HD
BRANCH  30  32
HETATM   32  C   UNL     1       0.750  12.876  23.359  0.00  0.00     0.035 A 
HETATM   33  C   UNL     1      -0.099  12.673  24.453  0.00  0.00     0.032 A 
HETATM   34  C   UNL     1      -1.487  12.608  24.279  0.00  0.00     0.044 A 
HETATM   35  C   UNL     1      -2.029  12.744  23.013  0.00  0.00     0.116 A 
HETATM   36  F   UNL     1      -3.357  12.682  22.848  0.00  0.00    -0.206 F 
HETATM   37  C   UNL     1      -1.208  12.948  21.909  0.00  0.00     0.044 A 
HETATM   38  C   UNL     1       0.179  13.016  22.084  0.00  0.00     0.032 A 
ENDBRANCH  30  32
ENDBRANCH   4  28
TORSDOF 7
ENDMDL
