MODEL 1
REMARK minimizedAffinity -7.21475935
REMARK minimizedRMSD -1
REMARK  4 active torsions:
REMARK  status: ('A' for Active; 'I' for Inactive)
REMARK    1  A    between atoms: O_1  and  C_2 
REMARK    2  A    between atoms: C_4  and  O_5 
REMARK    3  A    between atoms: C_6  and  C_10 
REMARK    4  A    between atoms: N_16  and  C_17 
ROOT
HETATM    1  C   UNL     1      -0.947  10.250  26.502  0.00  0.00     0.172 A 
HETATM    2  N   UNL     1      -1.632  10.681  27.532  0.00  0.00    -0.151 NA
HETATM    3  N   UNL     1      -1.449   9.746  28.501  0.00  0.00    -0.226 N 
HETATM    4  H   UNL     1      -1.726   9.894  29.461  0.00  0.00     0.194 HD
HETATM    5  C   UNL     1      -0.609   8.739  28.059  0.00  0.00     0.349 A 
HETATM    6  O   UNL     1      -0.173   7.837  28.758  0.00  0.00    -0.245 OA
HETATM    7  N   UNL     1      -0.328   9.043  26.737  0.00  0.00    -0.241 N 
ENDROOT
BRANCH   1   8
HETATM    8  C   UNL     1      -0.922  10.994  25.208  0.00  0.00     0.047 A 
HETATM    9  C   UNL     1      -2.111  11.237  24.492  0.00  0.00     0.082 A 
HETATM   10  C   UNL     1      -2.111  12.003  23.321  0.00  0.00     0.075 A 
HETATM   11  C   UNL     1      -0.917  12.545  22.857  0.00  0.00     0.085 A 
HETATM   12  C   UNL     1       0.280  12.258  23.512  0.00  0.00     0.045 A 
HETATM   13  C   UNL     1       0.283  11.450  24.655  0.00  0.00     0.040 A 
HETATM   14 BR   UNL     1       1.930  12.985  22.920  0.00  0.00    -0.048 Br
BRANCH   9  15
HETATM   15  O   UNL     1      -3.312  10.756  24.935  0.00  0.00    -0.360 OA
HETATM   16  H   UNL     1      -3.964  10.757  24.215  0.00  0.00     0.217 HD
ENDBRANCH   9  15
BRANCH  11  17
HETATM   17  O   UNL     1      -0.923  13.362  21.761  0.00  0.00    -0.359 OA
HETATM   18  H   UNL     1      -1.839  13.576  21.517  0.00  0.00     0.217 HD
ENDBRANCH  11  17
ENDBRANCH   1   8
BRANCH   7  19
HETATM   19  C   UNL     1       0.636   8.303  26.023  0.00  0.00     0.084 A 
HETATM   20  C   UNL     1       0.297   7.346  25.064  0.00  0.00     0.143 A 
HETATM   21  F   UNL     1      -0.988   7.084  24.782  0.00  0.00    -0.204 F 
HETATM   22  C   UNL     1       1.282   6.685  24.330  0.00  0.00     0.044 A 
HETATM   23  C   UNL     1       2.631   6.973  24.558  0.00  0.00     0.003 A 
HETATM   24  C   UNL     1       2.985   7.916  25.514  0.00  0.00     0.002 A 
HETATM   25  C   UNL     1       1.996   8.585  26.237  0.00  0.00     0.033 A 
ENDBRANCH   7  19
TORSDOF 4
ENDMDL
MODEL 2
REMARK minimizedAffinity -7.1923871
REMARK minimizedRMSD -1
REMARK  4 active torsions:
REMARK  status: ('A' for Active; 'I' for Inactive)
REMARK    1  A    between atoms: O_1  and  C_2 
REMARK    2  A    between atoms: C_4  and  O_5 
REMARK    3  A    between atoms: C_6  and  C_10 
REMARK    4  A    between atoms: N_16  and  C_17 
ROOT
HETATM    1  C   UNL     1      -0.935  10.253  26.495  0.00  0.00     0.172 A 
HETATM    2  N   UNL     1      -1.545  10.725  27.554  0.00  0.00    -0.151 NA
HETATM    3  N   UNL     1      -1.396   9.769  28.508  0.00  0.00    -0.226 N 
HETATM    4  H   UNL     1      -1.623   9.928  29.480  0.00  0.00     0.194 HD
HETATM    5  C   UNL     1      -0.652   8.705  28.026  0.00  0.00     0.349 A 
HETATM    6  O   UNL     1      -0.259   7.767  28.701  0.00  0.00    -0.245 OA
HETATM    7  N   UNL     1      -0.401   9.000  26.696  0.00  0.00    -0.241 N 
ENDROOT
BRANCH   1   8
HETATM    8  C   UNL     1      -0.904  11.006  25.205  0.00  0.00     0.047 A 
HETATM    9  C   UNL     1      -2.091  11.268  24.494  0.00  0.00     0.082 A 
HETATM   10  C   UNL     1      -2.086  12.042  23.328  0.00  0.00     0.075 A 
HETATM   11  C   UNL     1      -0.886  12.573  22.866  0.00  0.00     0.085 A 
HETATM   12  C   UNL     1       0.309  12.266  23.515  0.00  0.00     0.045 A 
HETATM   13  C   UNL     1       0.305  11.451  24.652  0.00  0.00     0.040 A 
HETATM   14 BR   UNL     1       1.966  12.977  22.925  0.00  0.00    -0.048 Br
BRANCH   9  15
HETATM   15  O   UNL     1      -3.298  10.798  24.937  0.00  0.00    -0.360 OA
HETATM   16  H   UNL     1      -3.951  10.813  24.218  0.00  0.00     0.217 HD
ENDBRANCH   9  15
BRANCH  11  17
HETATM   17  O   UNL     1      -0.885  13.397  21.775  0.00  0.00    -0.359 OA
HETATM   18  H   UNL     1      -1.798  13.624  21.535  0.00  0.00     0.217 HD
ENDBRANCH  11  17
ENDBRANCH   1   8
BRANCH   7  19
HETATM   19  C   UNL     1       0.475   8.197  25.940  0.00  0.00     0.084 A 
HETATM   20  C   UNL     1       1.863   8.249  26.082  0.00  0.00     0.143 A 
HETATM   21  F   UNL     1       2.430   9.089  26.961  0.00  0.00    -0.204 F 
HETATM   22  C   UNL     1       2.693   7.388  25.363  0.00  0.00     0.044 A 
HETATM   23  C   UNL     1       2.133   6.460  24.479  0.00  0.00     0.003 A 
HETATM   24  C   UNL     1       0.755   6.401  24.319  0.00  0.00     0.002 A 
HETATM   25  C   UNL     1      -0.071   7.256  25.050  0.00  0.00     0.033 A 
ENDBRANCH   7  19
TORSDOF 4
ENDMDL
MODEL 3
REMARK minimizedAffinity -6.79001141
REMARK minimizedRMSD -1
REMARK  4 active torsions:
REMARK  status: ('A' for Active; 'I' for Inactive)
REMARK    1  A    between atoms: O_1  and  C_2 
REMARK    2  A    between atoms: C_4  and  O_5 
REMARK    3  A    between atoms: C_6  and  C_10 
REMARK    4  A    between atoms: N_16  and  C_17 
ROOT
HETATM    1  C   UNL     1      -1.483  10.689  24.645  0.00  0.00     0.172 A 
HETATM    2  N   UNL     1      -2.760  10.774  24.372  0.00  0.00    -0.151 NA
HETATM    3  N   UNL     1      -2.865  11.774  23.457  0.00  0.00    -0.226 N 
HETATM    4  H   UNL     1      -3.715  11.954  22.941  0.00  0.00     0.194 HD
HETATM    5  C   UNL     1      -1.618  12.286  23.144  0.00  0.00     0.349 A 
HETATM    6  O   UNL     1      -1.400  13.103  22.263  0.00  0.00    -0.245 OA
HETATM    7  N   UNL     1      -0.725  11.613  23.962  0.00  0.00    -0.241 N 
ENDROOT
BRANCH   1   8
HETATM    8  C   UNL     1      -0.956   9.715  25.648  0.00  0.00     0.047 A 
HETATM    9  C   UNL     1      -0.967  10.019  27.023  0.00  0.00     0.082 A 
HETATM   10  C   UNL     1      -0.554   9.084  27.979  0.00  0.00     0.075 A 
HETATM   11  C   UNL     1      -0.132   7.824  27.566  0.00  0.00     0.085 A 
HETATM   12  C   UNL     1      -0.047   7.529  26.206  0.00  0.00     0.045 A 
HETATM   13  C   UNL     1      -0.414   8.484  25.252  0.00  0.00     0.040 A 
HETATM   14 BR   UNL     1       0.513   5.821  25.598  0.00  0.00    -0.048 Br
BRANCH   9  15
HETATM   15  O   UNL     1      -1.412  11.231  27.475  0.00  0.00    -0.360 OA
HETATM   16  H   UNL     1      -1.100  11.391  28.380  0.00  0.00     0.217 HD
ENDBRANCH   9  15
BRANCH  11  17
HETATM   17  O   UNL     1       0.194   6.879  28.497  0.00  0.00    -0.359 OA
HETATM   18  H   UNL     1      -0.057   7.190  29.382  0.00  0.00     0.217 HD
ENDBRANCH  11  17
ENDBRANCH   1   8
BRANCH   7  19
HETATM   19  C   UNL     1       0.665  11.778  23.790  0.00  0.00     0.084 A 
HETATM   20  C   UNL     1       1.285  13.029  23.796  0.00  0.00     0.143 A 
HETATM   21  F   UNL     1       0.566  14.148  23.964  0.00  0.00    -0.204 F 
HETATM   22  C   UNL     1       2.672  13.144  23.692  0.00  0.00     0.044 A 
HETATM   23  C   UNL     1       3.458  11.994  23.571  0.00  0.00     0.003 A 
HETATM   24  C   UNL     1       2.856  10.743  23.555  0.00  0.00     0.002 A 
HETATM   25  C   UNL     1       1.470  10.632  23.673  0.00  0.00     0.033 A 
ENDBRANCH   7  19
TORSDOF 4
ENDMDL
MODEL 4
REMARK minimizedAffinity -6.68339682
REMARK minimizedRMSD -1
REMARK  4 active torsions:
REMARK  status: ('A' for Active; 'I' for Inactive)
REMARK    1  A    between atoms: O_1  and  C_2 
REMARK    2  A    between atoms: C_4  and  O_5 
REMARK    3  A    between atoms: C_6  and  C_10 
REMARK    4  A    between atoms: N_16  and  C_17 
ROOT
HETATM    1  C   UNL     1      -0.095   9.833  26.032  0.00  0.00     0.172 A 
HETATM    2  N   UNL     1      -0.666  10.128  27.173  0.00  0.00    -0.151 NA
HETATM    3  N   UNL     1      -0.696   8.962  27.871  0.00  0.00    -0.226 N 
HETATM    4  H   UNL     1      -0.932   8.919  28.852  0.00  0.00     0.194 HD
HETATM    5  C   UNL     1      -0.102   7.942  27.148  0.00  0.00     0.349 A 
HETATM    6  O   UNL     1       0.122   6.821  27.578  0.00  0.00    -0.245 OA
HETATM    7  N   UNL     1       0.239   8.501  25.927  0.00  0.00    -0.241 N 
ENDROOT
BRANCH   1   8
HETATM    8  C   UNL     1       0.095  10.855  24.960  0.00  0.00     0.047 A 
HETATM    9  C   UNL     1       1.384  11.303  24.612  0.00  0.00     0.082 A 
HETATM   10  C   UNL     1       1.582  12.198  23.554  0.00  0.00     0.075 A 
HETATM   11  C   UNL     1       0.487  12.649  22.825  0.00  0.00     0.085 A 
HETATM   12  C   UNL     1      -0.803  12.273  23.199  0.00  0.00     0.045 A 
HETATM   13  C   UNL     1      -1.000  11.417  24.288  0.00  0.00     0.040 A 
HETATM   14 BR   UNL     1      -2.325  12.856  22.227  0.00  0.00    -0.048 Br
BRANCH   9  15
HETATM   15  O   UNL     1       2.492  10.854  25.277  0.00  0.00    -0.360 OA
HETATM   16  H   UNL     1       3.244  11.447  25.121  0.00  0.00     0.217 HD
ENDBRANCH   9  15
BRANCH  11  17
HETATM   17  O   UNL     1       0.680  13.458  21.740  0.00  0.00    -0.359 OA
HETATM   18  H   UNL     1       1.627  13.504  21.530  0.00  0.00     0.217 HD
ENDBRANCH  11  17
ENDBRANCH   1   8
BRANCH   7  19
HETATM   19  C   UNL     1       1.013   7.775  25.000  0.00  0.00     0.084 A 
HETATM   20  C   UNL     1       2.386   7.573  25.154  0.00  0.00     0.143 A 
HETATM   21  F   UNL     1       3.037   8.078  26.212  0.00  0.00    -0.204 F 
HETATM   22  C   UNL     1       3.103   6.790  24.249  0.00  0.00     0.044 A 
HETATM   23  C   UNL     1       2.445   6.201  23.165  0.00  0.00     0.003 A 
HETATM   24  C   UNL     1       1.082   6.399  22.993  0.00  0.00     0.002 A 
HETATM   25  C   UNL     1       0.366   7.173  23.907  0.00  0.00     0.033 A 
ENDBRANCH   7  19
TORSDOF 4
ENDMDL
MODEL 5
REMARK minimizedAffinity -6.64271593
REMARK minimizedRMSD -1
REMARK  4 active torsions:
REMARK  status: ('A' for Active; 'I' for Inactive)
REMARK    1  A    between atoms: O_1  and  C_2 
REMARK    2  A    between atoms: C_4  and  O_5 
REMARK    3  A    between atoms: C_6  and  C_10 
REMARK    4  A    between atoms: N_16  and  C_17 
ROOT
HETATM    1  C   UNL     1       0.023   8.665  26.231  0.00  0.00     0.172 A 
HETATM    2  N   UNL     1      -0.107   8.097  27.404  0.00  0.00    -0.151 NA
HETATM    3  N   UNL     1      -0.731   9.020  28.182  0.00  0.00    -0.226 N 
HETATM    4  H   UNL     1      -1.110   8.799  29.092  0.00  0.00     0.194 HD
HETATM    5  C   UNL     1      -1.014  10.163  27.455  0.00  0.00     0.349 A 
HETATM    6  O   UNL     1      -1.679  11.102  27.864  0.00  0.00    -0.245 OA
HETATM    7  N   UNL     1      -0.471   9.949  26.199  0.00  0.00    -0.241 N 
ENDROOT
BRANCH   1   8
HETATM    8  C   UNL     1       0.701   7.974  25.093  0.00  0.00     0.047 A 
HETATM    9  C   UNL     1       0.201   6.760  24.585  0.00  0.00     0.082 A 
HETATM   10  C   UNL     1       0.777   6.146  23.467  0.00  0.00     0.075 A 
HETATM   11  C   UNL     1       1.861   6.749  22.838  0.00  0.00     0.085 A 
HETATM   12  C   UNL     1       2.416   7.914  23.369  0.00  0.00     0.045 A 
HETATM   13  C   UNL     1       1.866   8.498  24.515  0.00  0.00     0.040 A 
HETATM   14 BR   UNL     1       3.888   8.776  22.538  0.00  0.00    -0.048 Br
BRANCH   9  15
HETATM   15  O   UNL     1      -0.888   6.154  25.149  0.00  0.00    -0.360 OA
HETATM   16  H   UNL     1      -0.933   5.221  24.883  0.00  0.00     0.217 HD
ENDBRANCH   9  15
BRANCH  11  17
HETATM   17  O   UNL     1       2.378   6.198  21.699  0.00  0.00    -0.359 OA
HETATM   18  H   UNL     1       1.795   5.488  21.386  0.00  0.00     0.217 HD
ENDBRANCH  11  17
ENDBRANCH   1   8
BRANCH   7  19
HETATM   19  C   UNL     1      -0.718  10.858  25.150  0.00  0.00     0.084 A 
HETATM   20  C   UNL     1       0.289  11.628  24.564  0.00  0.00     0.143 A 
HETATM   21  F   UNL     1       1.557  11.534  24.988  0.00  0.00    -0.204 F 
HETATM   22  C   UNL     1       0.015  12.465  23.481  0.00  0.00     0.044 A 
HETATM   23  C   UNL     1      -1.286  12.545  22.976  0.00  0.00     0.003 A 
HETATM   24  C   UNL     1      -2.300  11.793  23.553  0.00  0.00     0.002 A 
HETATM   25  C   UNL     1      -2.019  10.947  24.627  0.00  0.00     0.033 A 
ENDBRANCH   7  19
TORSDOF 4
ENDMDL
MODEL 6
REMARK minimizedAffinity -6.63001156
REMARK minimizedRMSD -1
REMARK  4 active torsions:
REMARK  status: ('A' for Active; 'I' for Inactive)
REMARK    1  A    between atoms: O_1  and  C_2 
REMARK    2  A    between atoms: C_4  and  O_5 
REMARK    3  A    between atoms: C_6  and  C_10 
REMARK    4  A    between atoms: N_16  and  C_17 
ROOT
HETATM    1  C   UNL     1       2.688   8.553  23.977  0.00  0.00     0.172 A 
HETATM    2  N   UNL     1       3.422   8.110  22.988  0.00  0.00    -0.151 NA
HETATM    3  N   UNL     1       3.796   6.855  23.354  0.00  0.00    -0.226 N 
HETATM    4  H   UNL     1       4.233   6.208  22.713  0.00  0.00     0.194 HD
HETATM    5  C   UNL     1       3.249   6.518  24.580  0.00  0.00     0.349 A 
HETATM    6  O   UNL     1       3.315   5.412  25.092  0.00  0.00    -0.245 OA
HETATM    7  N   UNL     1       2.573   7.649  25.008  0.00  0.00    -0.241 N 
ENDROOT
BRANCH   1   8
HETATM    8  C   UNL     1       2.107   9.929  23.970  0.00  0.00     0.047 A 
HETATM    9  C   UNL     1       2.914  11.051  23.695  0.00  0.00     0.082 A 
HETATM   10  C   UNL     1       2.366  12.336  23.603  0.00  0.00     0.075 A 
HETATM   11  C   UNL     1       0.998  12.511  23.778  0.00  0.00     0.085 A 
HETATM   12  C   UNL     1       0.194  11.424  24.121  0.00  0.00     0.045 A 
HETATM   13  C   UNL     1       0.753  10.149  24.260  0.00  0.00     0.040 A 
HETATM   14 BR   UNL     1      -1.679  11.615  24.358  0.00  0.00    -0.048 Br
BRANCH   9  15
HETATM   15  O   UNL     1       4.258  10.918  23.477  0.00  0.00    -0.360 OA
HETATM   16  H   UNL     1       4.705  11.773  23.584  0.00  0.00     0.217 HD
ENDBRANCH   9  15
BRANCH  11  17
HETATM   17  O   UNL     1       0.445  13.749  23.609  0.00  0.00    -0.359 OA
HETATM   18  H   UNL     1       1.105  14.354  23.233  0.00  0.00     0.217 HD
ENDBRANCH  11  17
ENDBRANCH   1   8
BRANCH   7  19
HETATM   19  C   UNL     1       1.761   7.601  26.159  0.00  0.00     0.084 A 
HETATM   20  C   UNL     1       0.440   7.149  26.135  0.00  0.00     0.143 A 
HETATM   21  F   UNL     1      -0.122   6.737  24.989  0.00  0.00    -0.204 F 
HETATM   22  C   UNL     1      -0.308   7.053  27.309  0.00  0.00     0.044 A 
HETATM   23  C   UNL     1       0.264   7.421  28.530  0.00  0.00     0.003 A 
HETATM   24  C   UNL     1       1.573   7.882  28.570  0.00  0.00     0.002 A 
HETATM   25  C   UNL     1       2.322   7.963  27.396  0.00  0.00     0.033 A 
ENDBRANCH   7  19
TORSDOF 4
ENDMDL
MODEL 7
REMARK minimizedAffinity -6.10725164
REMARK minimizedRMSD -1
REMARK  4 active torsions:
REMARK  status: ('A' for Active; 'I' for Inactive)
REMARK    1  A    between atoms: O_1  and  C_2 
REMARK    2  A    between atoms: C_4  and  O_5 
REMARK    3  A    between atoms: C_6  and  C_10 
REMARK    4  A    between atoms: N_16  and  C_17 
ROOT
HETATM    1  C   UNL     1      -0.148   9.903  26.222  0.00  0.00     0.172 A 
HETATM    2  N   UNL     1      -0.779  10.289  27.302  0.00  0.00    -0.151 NA
HETATM    3  N   UNL     1      -0.839   9.187  28.095  0.00  0.00    -0.226 N 
HETATM    4  H   UNL     1      -1.125   9.226  29.063  0.00  0.00     0.194 HD
HETATM    5  C   UNL     1      -0.202   8.115  27.494  0.00  0.00     0.349 A 
HETATM    6  O   UNL     1       0.006   7.037  28.031  0.00  0.00    -0.245 OA
HETATM    7  N   UNL     1       0.198   8.571  26.249  0.00  0.00    -0.241 N 
ENDROOT
BRANCH   1   8
HETATM    8  C   UNL     1       0.092  10.832  25.077  0.00  0.00     0.047 A 
HETATM    9  C   UNL     1       1.401  11.191  24.701  0.00  0.00     0.082 A 
HETATM   10  C   UNL     1       1.642  11.993  23.580  0.00  0.00     0.075 A 
HETATM   11  C   UNL     1       0.570  12.439  22.815  0.00  0.00     0.085 A 
HETATM   12  C   UNL     1      -0.736  12.154  23.210  0.00  0.00     0.045 A 
HETATM   13  C   UNL     1      -0.974  11.392  24.360  0.00  0.00     0.040 A 
HETATM   14 BR   UNL     1      -2.227  12.733  22.190  0.00  0.00    -0.048 Br
BRANCH   9  15
HETATM   15  O   UNL     1       2.485  10.741  25.404  0.00  0.00    -0.360 OA
HETATM   16  H   UNL     1       3.265  11.284  25.207  0.00  0.00     0.217 HD
ENDBRANCH   9  15
BRANCH  11  17
HETATM   17  O   UNL     1       0.803  13.154  21.673  0.00  0.00    -0.359 OA
HETATM   18  H   UNL     1       1.752  13.139  21.465  0.00  0.00     0.217 HD
ENDBRANCH  11  17
ENDBRANCH   1   8
BRANCH   7  19
HETATM   19  C   UNL     1       1.024   7.776  25.429  0.00  0.00     0.084 A 
HETATM   20  C   UNL     1       0.534   7.045  24.344  0.00  0.00     0.143 A 
HETATM   21  F   UNL     1      -0.771   7.067  24.037  0.00  0.00    -0.204 F 
HETATM   22  C   UNL     1       1.395   6.325  23.516  0.00  0.00     0.044 A 
HETATM   23  C   UNL     1       2.769   6.324  23.773  0.00  0.00     0.003 A 
HETATM   24  C   UNL     1       3.271   7.039  24.852  0.00  0.00     0.002 A 
HETATM   25  C   UNL     1       2.408   7.768  25.671  0.00  0.00     0.033 A 
ENDBRANCH   7  19
TORSDOF 4
ENDMDL
MODEL 8
REMARK minimizedAffinity -6.02131033
REMARK minimizedRMSD -1
REMARK  4 active torsions:
REMARK  status: ('A' for Active; 'I' for Inactive)
REMARK    1  A    between atoms: O_1  and  C_2 
REMARK    2  A    between atoms: C_4  and  O_5 
REMARK    3  A    between atoms: C_6  and  C_10 
REMARK    4  A    between atoms: N_16  and  C_17 
ROOT
HETATM    1  C   UNL     1       0.497   9.176  25.760  0.00  0.00     0.172 A 
HETATM    2  N   UNL     1       0.432   8.550  26.908  0.00  0.00    -0.151 NA
HETATM    3  N   UNL     1      -0.463   9.254  27.650  0.00  0.00    -0.226 N 
HETATM    4  H   UNL     1      -0.838   8.911  28.523  0.00  0.00     0.194 HD
HETATM    5  C   UNL     1      -0.977  10.314  26.923  0.00  0.00     0.349 A 
HETATM    6  O   UNL     1      -1.888  11.037  27.294  0.00  0.00    -0.245 OA
HETATM    7  N   UNL     1      -0.307  10.292  25.711  0.00  0.00    -0.241 N 
ENDROOT
BRANCH   1   8
HETATM    8  C   UNL     1       1.411   8.723  24.668  0.00  0.00     0.047 A 
HETATM    9  C   UNL     1       2.513   9.508  24.279  0.00  0.00     0.082 A 
HETATM   10  C   UNL     1       3.423   9.058  23.316  0.00  0.00     0.075 A 
HETATM   11  C   UNL     1       3.243   7.806  22.737  0.00  0.00     0.085 A 
HETATM   12  C   UNL     1       2.120   7.045  23.056  0.00  0.00     0.045 A 
HETATM   13  C   UNL     1       1.186   7.521  23.984  0.00  0.00     0.040 A 
HETATM   14 BR   UNL     1       1.840   5.328  22.299  0.00  0.00    -0.048 Br
BRANCH   9  15
HETATM   15  O   UNL     1       2.749  10.728  24.852  0.00  0.00    -0.360 OA
HETATM   16  H   UNL     1       3.351  11.252  24.299  0.00  0.00     0.217 HD
ENDBRANCH   9  15
BRANCH  11  17
HETATM   17  O   UNL     1       4.173   7.326  21.857  0.00  0.00    -0.359 OA
HETATM   18  H   UNL     1       4.953   7.904  21.857  0.00  0.00     0.217 HD
ENDBRANCH  11  17
ENDBRANCH   1   8
BRANCH   7  19
HETATM   19  C   UNL     1      -0.701  11.147  24.661  0.00  0.00     0.084 A 
HETATM   20  C   UNL     1      -1.987  11.133  24.117  0.00  0.00     0.143 A 
HETATM   21  F   UNL     1      -2.916  10.283  24.578  0.00  0.00    -0.204 F 
HETATM   22  C   UNL     1      -2.357  12.042  23.126  0.00  0.00     0.044 A 
HETATM   23  C   UNL     1      -1.430  12.980  22.661  0.00  0.00     0.003 A 
HETATM   24  C   UNL     1      -0.145  13.001  23.185  0.00  0.00     0.002 A 
HETATM   25  C   UNL     1       0.217  12.098  24.186  0.00  0.00     0.033 A 
ENDBRANCH   7  19
TORSDOF 4
ENDMDL
MODEL 9
REMARK minimizedAffinity -5.91214085
REMARK minimizedRMSD -1
REMARK  4 active torsions:
REMARK  status: ('A' for Active; 'I' for Inactive)
REMARK    1  A    between atoms: O_1  and  C_2 
REMARK    2  A    between atoms: C_4  and  O_5 
REMARK    3  A    between atoms: C_6  and  C_10 
REMARK    4  A    between atoms: N_16  and  C_17 
ROOT
HETATM    1  C   UNL     1       1.678   7.545  24.509  0.00  0.00     0.172 A 
HETATM    2  N   UNL     1       1.926   6.822  23.447  0.00  0.00    -0.151 NA
HETATM    3  N   UNL     1       2.258   5.592  23.920  0.00  0.00    -0.226 N 
HETATM    4  H   UNL     1       2.341   4.781  23.322  0.00  0.00     0.194 HD
HETATM    5  C   UNL     1       2.178   5.559  25.301  0.00  0.00     0.349 A 
HETATM    6  O   UNL     1       2.299   4.553  25.983  0.00  0.00    -0.245 OA
HETATM    7  N   UNL     1       1.853   6.850  25.685  0.00  0.00    -0.241 N 
ENDROOT
BRANCH   1   8
HETATM    8  C   UNL     1       1.306   8.988  24.409  0.00  0.00     0.047 A 
HETATM    9  C   UNL     1       2.273   9.961  24.089  0.00  0.00     0.082 A 
HETATM   10  C   UNL     1       1.922  11.304  23.910  0.00  0.00     0.075 A 
HETATM   11  C   UNL     1       0.591  11.687  24.043  0.00  0.00     0.085 A 
HETATM   12  C   UNL     1      -0.368  10.753  24.430  0.00  0.00     0.045 A 
HETATM   13  C   UNL     1      -0.005   9.420  24.655  0.00  0.00     0.040 A 
HETATM   14 BR   UNL     1      -2.196  11.229  24.612  0.00  0.00    -0.048 Br
BRANCH   9  15
HETATM   15  O   UNL     1       3.585   9.620  23.910  0.00  0.00    -0.360 OA
HETATM   16  H   UNL     1       4.152  10.406  23.978  0.00  0.00     0.217 HD
ENDBRANCH   9  15
BRANCH  11  17
HETATM   17  O   UNL     1       0.229  12.981  23.790  0.00  0.00    -0.359 OA
HETATM   18  H   UNL     1       0.977  13.459  23.395  0.00  0.00     0.217 HD
ENDBRANCH  11  17
ENDBRANCH   1   8
BRANCH   7  19
HETATM   19  C   UNL     1       1.535   7.137  27.028  0.00  0.00     0.084 A 
HETATM   20  C   UNL     1       0.245   7.003  27.545  0.00  0.00     0.143 A 
HETATM   21  F   UNL     1      -0.766   6.591  26.766  0.00  0.00    -0.204 F 
HETATM   22  C   UNL     1      -0.015   7.231  28.897  0.00  0.00     0.044 A 
HETATM   23  C   UNL     1       1.026   7.608  29.751  0.00  0.00     0.003 A 
HETATM   24  C   UNL     1       2.313   7.755  29.250  0.00  0.00     0.002 A 
HETATM   25  C   UNL     1       2.571   7.513  27.900  0.00  0.00     0.033 A 
ENDBRANCH   7  19
TORSDOF 4
ENDMDL
