REMARK  4 active torsions:
REMARK  status: ('A' for Active; 'I' for Inactive)
REMARK    1  A    between atoms: O_1  and  C_2 
REMARK    2  A    between atoms: C_4  and  O_5 
REMARK    3  A    between atoms: C_6  and  C_10 
REMARK    4  A    between atoms: N_16  and  C_17 
ROOT
HETATM    1  C   UNL     1       6.626   0.038  -0.391  0.00  0.00     0.172 A 
HETATM    2  N   UNL     1       7.359   1.123  -0.381  0.00  0.00    -0.151 NA
HETATM    3  N   UNL     1       8.620   0.706  -0.669  0.00  0.00    -0.226 N 
HETATM    4  H   UNL     1       9.369   1.347  -0.891  0.00  0.00     0.194 HD
HETATM    5  C   UNL     1       8.647  -0.660  -0.890  0.00  0.00     0.349 A 
HETATM    6  O   UNL     1       9.619  -1.283  -1.288  0.00  0.00    -0.245 OA
HETATM    7  N   UNL     1       7.355  -1.100  -0.653  0.00  0.00    -0.241 N 
ENDROOT
BRANCH   1   8
HETATM    8  C   UNL     1       5.165   0.073  -0.082  0.00  0.00     0.047 A 
HETATM    9  C   UNL     1       4.404   1.233  -0.325  0.00  0.00     0.082 A 
HETATM   10  C   UNL     1       3.020   1.252  -0.118  0.00  0.00     0.075 A 
HETATM   11  C   UNL     1       2.379   0.101   0.328  0.00  0.00     0.085 A 
HETATM   12  C   UNL     1       3.124  -1.035   0.642  0.00  0.00     0.045 A 
HETATM   13  C   UNL     1       4.514  -1.034   0.480  0.00  0.00     0.040 A 
HETATM   14 BR   UNL     1       2.290  -2.630   1.243  0.00  0.00    -0.048 Br
BRANCH   9  15
HETATM   15  O   UNL     1       4.989   2.374  -0.802  0.00  0.00    -0.360 OA
HETATM   16  H   UNL     1       4.412   3.140  -0.649  0.00  0.00     0.217 HD
ENDBRANCH   9  15
BRANCH  11  17
HETATM   17  O   UNL     1       1.018   0.088   0.454  0.00  0.00    -0.359 OA
HETATM   18  H   UNL     1       0.645   0.894   0.061  0.00  0.00     0.217 HD
ENDBRANCH  11  17
ENDBRANCH   1   8
BRANCH   7  19
HETATM   19  C   UNL     1       6.989  -2.430  -0.943  0.00  0.00     0.084 A 
HETATM   20  C   UNL     1       5.934  -2.755  -1.798  0.00  0.00     0.143 A 
HETATM   21  F   UNL     1       5.208  -1.793  -2.386  0.00  0.00    -0.204 F 
HETATM   22  C   UNL     1       5.648  -4.084  -2.113  0.00  0.00     0.044 A 
HETATM   23  C   UNL     1       6.420  -5.111  -1.562  0.00  0.00     0.003 A 
HETATM   24  C   UNL     1       7.467  -4.805  -0.703  0.00  0.00     0.002 A 
HETATM   25  C   UNL     1       7.758  -3.474  -0.401  0.00  0.00     0.033 A 
ENDBRANCH   7  19
TORSDOF 4
