MODEL 1
REMARK VINA RESULT:    -7.579      0.000      0.000
REMARK INTER + INTRA:         -11.502
REMARK INTER:                 -10.079
REMARK INTRA:                  -1.423
REMARK UNBOUND:                -1.266
REMARK  7 active torsions:
REMARK  status: ('A' for Active; 'I' for Inactive)
REMARK    1  A    between atoms: O_2  and  C_3 
REMARK    2  A    between atoms: C_6  and  C_9 
REMARK    3  A    between atoms: C_10  and  C_11 
REMARK       I    between atoms: C_11  and  N_13 
REMARK    4  A    between atoms: N_13  and  C_14 
REMARK    5  A    between atoms: C_19  and  C_20 
REMARK    6  A    between atoms: C_24  and  O_25 
REMARK    7  A    between atoms: C_27  and  O_28 
ROOT
HETATM    1  C   UNL     1      -2.398  12.474  22.805  0.00  0.00     0.039 C 
HETATM    2  C   UNL     1      -3.593  13.028  22.339  0.00  0.00     0.131 C 
HETATM    3  N   UNL     1      -4.555  12.509  23.157  0.00  0.00    -0.271 N 
HETATM    4  H   UNL     1      -5.559  12.615  23.069  0.00  0.00     0.189 HD
HETATM    5  N   UNL     1      -4.100  11.788  24.180  0.00  0.00    -0.173 NA
HETATM    6  C   UNL     1      -2.782  11.671  23.954  0.00  0.00     0.103 C 
ENDROOT
BRANCH   6   7
HETATM    7  C   UNL     1      -1.936  10.835  24.830  0.00  0.00     0.030 A 
HETATM    8  C   UNL     1      -1.154   9.813  24.265  0.00  0.00     0.043 A 
HETATM    9  C   UNL     1      -0.530   8.864  25.074  0.00  0.00     0.068 A 
HETATM   10 CL   UNL     1       0.260   7.515  24.347  0.00  0.00    -0.081 Cl
HETATM   11  C   UNL     1      -0.594   8.979  26.461  0.00  0.00     0.090 A 
HETATM   12  C   UNL     1      -1.260  10.047  27.046  0.00  0.00     0.075 A 
HETATM   13  C   UNL     1      -1.950  10.956  26.236  0.00  0.00     0.081 A 
BRANCH  11  14
HETATM   14  O   UNL     1      -0.044   8.045  27.295  0.00  0.00    -0.359 OA
HETATM   15  H   UNL     1       0.235   7.292  26.741  0.00  0.00     0.217 HD
ENDBRANCH  11  14
BRANCH  13  16
HETATM   16  O   UNL     1      -2.689  11.932  26.849  0.00  0.00    -0.360 OA
HETATM   17  H   UNL     1      -2.176  12.329  27.569  0.00  0.00     0.217 HD
ENDBRANCH  13  16
ENDBRANCH   6   7
BRANCH   1  18
HETATM   18  C   UNL     1      -1.067  12.730  22.241  0.00  0.00    -0.021 A 
HETATM   19  C   UNL     1      -0.563  11.941  21.198  0.00  0.00     0.015 A 
HETATM   20  C   UNL     1       0.666  12.232  20.588  0.00  0.00     0.037 A 
HETATM   21  C   UNL     1       1.392  13.356  20.970  0.00  0.00     0.068 A 
HETATM   22  C   UNL     1       0.901  14.154  22.002  0.00  0.00     0.037 A 
HETATM   23  C   UNL     1      -0.297  13.826  22.655  0.00  0.00     0.015 A 
BRANCH  21  24
HETATM   24  O   UNL     1       2.569  13.777  20.414  0.00  0.00    -0.356 OA
HETATM   25  C   UNL     1       3.492  14.418  21.288  0.00  0.00     0.210 C 
ENDBRANCH  21  24
ENDBRANCH   1  18
BRANCH   2  26
HETATM   26  C   UNL     1      -3.889  13.899  21.222  0.00  0.00     0.270 C 
HETATM   27  O   UNL     1      -3.741  15.114  21.253  0.00  0.00    -0.266 OA
HETATM   28  N   UNL     1      -4.387  13.274  20.085  0.00  0.00    -0.356 N 
HETATM   29  H   UNL     1      -4.676  12.310  20.133  0.00  0.00     0.162 HD
BRANCH  28  30
HETATM   30  C   UNL     1      -4.935  14.094  19.017  0.00  0.00     0.118 C 
HETATM   31  C   UNL     1      -5.981  13.369  18.191  0.00  0.00     0.026 C 
ENDBRANCH  28  30
ENDBRANCH   2  26
TORSDOF 7
ENDMDL
MODEL 2
REMARK VINA RESULT:    -7.548      1.079      1.575
REMARK INTER + INTRA:         -11.461
REMARK INTER:                  -9.882
REMARK INTRA:                  -1.579
REMARK UNBOUND:                -1.266
REMARK  7 active torsions:
REMARK  status: ('A' for Active; 'I' for Inactive)
REMARK    1  A    between atoms: O_2  and  C_3 
REMARK    2  A    between atoms: C_6  and  C_9 
REMARK    3  A    between atoms: C_10  and  C_11 
REMARK       I    between atoms: C_11  and  N_13 
REMARK    4  A    between atoms: N_13  and  C_14 
REMARK    5  A    between atoms: C_19  and  C_20 
REMARK    6  A    between atoms: C_24  and  O_25 
REMARK    7  A    between atoms: C_27  and  O_28 
ROOT
HETATM    1  C   UNL     1      -2.563  12.675  22.691  0.00  0.00     0.039 C 
HETATM    2  C   UNL     1      -3.808  13.152  22.273  0.00  0.00     0.131 C 
HETATM    3  N   UNL     1      -4.707  12.526  23.088  0.00  0.00    -0.271 N 
HETATM    4  H   UNL     1      -5.719  12.556  23.024  0.00  0.00     0.189 HD
HETATM    5  N   UNL     1      -4.174  11.802  24.070  0.00  0.00    -0.173 NA
HETATM    6  C   UNL     1      -2.857  11.798  23.813  0.00  0.00     0.103 C 
ENDROOT
BRANCH   6   7
HETATM    7  C   UNL     1      -1.929  10.996  24.636  0.00  0.00     0.030 A 
HETATM    8  C   UNL     1      -1.139  10.008  24.023  0.00  0.00     0.043 A 
HETATM    9  C   UNL     1      -0.432   9.085  24.792  0.00  0.00     0.068 A 
HETATM   10 CL   UNL     1       0.369   7.770  24.016  0.00  0.00    -0.081 Cl
HETATM   11  C   UNL     1      -0.420   9.195  26.180  0.00  0.00     0.090 A 
HETATM   12  C   UNL     1      -1.094  10.234  26.807  0.00  0.00     0.075 A 
HETATM   13  C   UNL     1      -1.866  11.115  26.041  0.00  0.00     0.081 A 
BRANCH  11  14
HETATM   14  O   UNL     1       0.215   8.284  26.978  0.00  0.00    -0.359 OA
HETATM   15  H   UNL     1       0.547   7.574  26.397  0.00  0.00     0.217 HD
ENDBRANCH  11  14
BRANCH  13  16
HETATM   16  O   UNL     1      -2.608  12.060  26.699  0.00  0.00    -0.360 OA
HETATM   17  H   UNL     1      -2.159  12.316  27.519  0.00  0.00     0.217 HD
ENDBRANCH  13  16
ENDBRANCH   6   7
BRANCH   1  18
HETATM   18  C   UNL     1      -1.270  13.057  22.112  0.00  0.00    -0.021 A 
HETATM   19  C   UNL     1      -0.612  14.224  22.525  0.00  0.00     0.015 A 
HETATM   20  C   UNL     1       0.666  14.551  22.049  0.00  0.00     0.037 A 
HETATM   21  C   UNL     1       1.340  13.687  21.192  0.00  0.00     0.068 A 
HETATM   22  C   UNL     1       0.701  12.520  20.776  0.00  0.00     0.037 A 
HETATM   23  C   UNL     1      -0.602  12.224  21.203  0.00  0.00     0.015 A 
BRANCH  21  24
HETATM   24  O   UNL     1       2.607  13.865  20.706  0.00  0.00    -0.356 OA
HETATM   25  C   UNL     1       3.571  14.383  21.616  0.00  0.00     0.210 C 
ENDBRANCH  21  24
ENDBRANCH   1  18
BRANCH   2  26
HETATM   26  C   UNL     1      -4.197  14.041  21.200  0.00  0.00     0.270 C 
HETATM   27  O   UNL     1      -4.637  13.652  20.126  0.00  0.00    -0.266 OA
HETATM   28  N   UNL     1      -4.017  15.397  21.444  0.00  0.00    -0.356 N 
HETATM   29  H   UNL     1      -3.488  15.692  22.249  0.00  0.00     0.162 HD
BRANCH  28  30
HETATM   30  C   UNL     1      -4.150  16.332  20.339  0.00  0.00     0.118 C 
HETATM   31  C   UNL     1      -2.818  16.701  19.713  0.00  0.00     0.026 C 
ENDBRANCH  28  30
ENDBRANCH   2  26
TORSDOF 7
ENDMDL
MODEL 3
REMARK VINA RESULT:    -7.482      1.598      1.891
REMARK INTER + INTRA:         -11.372
REMARK INTER:                  -9.932
REMARK INTRA:                  -1.439
REMARK UNBOUND:                -1.266
REMARK  7 active torsions:
REMARK  status: ('A' for Active; 'I' for Inactive)
REMARK    1  A    between atoms: O_2  and  C_3 
REMARK    2  A    between atoms: C_6  and  C_9 
REMARK    3  A    between atoms: C_10  and  C_11 
REMARK       I    between atoms: C_11  and  N_13 
REMARK    4  A    between atoms: N_13  and  C_14 
REMARK    5  A    between atoms: C_19  and  C_20 
REMARK    6  A    between atoms: C_24  and  O_25 
REMARK    7  A    between atoms: C_27  and  O_28 
ROOT
HETATM    1  C   UNL     1      -2.950  12.839  23.808  0.00  0.00     0.039 C 
HETATM    2  C   UNL     1      -4.099  12.991  23.028  0.00  0.00     0.131 C 
HETATM    3  N   UNL     1      -4.926  11.984  23.434  0.00  0.00    -0.271 N 
HETATM    4  H   UNL     1      -5.819  11.723  23.031  0.00  0.00     0.189 HD
HETATM    5  N   UNL     1      -4.494  11.282  24.479  0.00  0.00    -0.173 NA
HETATM    6  C   UNL     1      -3.243  11.720  24.689  0.00  0.00     0.103 C 
ENDROOT
BRANCH   6   7
HETATM    7  C   UNL     1      -2.385  11.092  25.714  0.00  0.00     0.030 A 
HETATM    8  C   UNL     1      -1.254  10.358  25.314  0.00  0.00     0.043 A 
HETATM    9  C   UNL     1      -0.560   9.566  26.228  0.00  0.00     0.068 A 
HETATM   10 CL   UNL     1       0.699   8.530  25.669  0.00  0.00    -0.081 Cl
HETATM   11  C   UNL     1      -0.921   9.573  27.574  0.00  0.00     0.090 A 
HETATM   12  C   UNL     1      -1.959  10.382  28.017  0.00  0.00     0.075 A 
HETATM   13  C   UNL     1      -2.703  11.117  27.088  0.00  0.00     0.081 A 
BRANCH  11  14
HETATM   14  O   UNL     1      -0.305   8.774  28.497  0.00  0.00    -0.359 OA
HETATM   15  H   UNL     1      -0.790   7.927  28.515  0.00  0.00     0.217 HD
ENDBRANCH  11  14
BRANCH  13  16
HETATM   16  O   UNL     1      -3.790  11.817  27.544  0.00  0.00    -0.360 OA
HETATM   17  H   UNL     1      -4.463  11.867  26.848  0.00  0.00     0.217 HD
ENDBRANCH  13  16
ENDBRANCH   6   7
BRANCH   1  18
HETATM   18  C   UNL     1      -1.757  13.691  23.739  0.00  0.00    -0.021 A 
HETATM   19  C   UNL     1      -0.670  13.344  22.926  0.00  0.00     0.015 A 
HETATM   20  C   UNL     1       0.435  14.194  22.777  0.00  0.00     0.037 A 
HETATM   21  C   UNL     1       0.451  15.441  23.396  0.00  0.00     0.068 A 
HETATM   22  C   UNL     1      -0.625  15.803  24.204  0.00  0.00     0.037 A 
HETATM   23  C   UNL     1      -1.701  14.926  24.402  0.00  0.00     0.015 A 
BRANCH  21  24
HETATM   24  O   UNL     1       1.440  16.379  23.283  0.00  0.00    -0.356 OA
HETATM   25  C   UNL     1       1.462  17.141  22.081  0.00  0.00     0.210 C 
ENDBRANCH  21  24
ENDBRANCH   1  18
BRANCH   2  26
HETATM   26  C   UNL     1      -4.432  13.909  21.960  0.00  0.00     0.270 C 
HETATM   27  O   UNL     1      -4.915  15.018  22.148  0.00  0.00    -0.266 OA
HETATM   28  N   UNL     1      -4.194  13.447  20.672  0.00  0.00    -0.356 N 
HETATM   29  H   UNL     1      -3.973  12.475  20.523  0.00  0.00     0.162 HD
BRANCH  28  30
HETATM   30  C   UNL     1      -4.724  14.202  19.548  0.00  0.00     0.118 C 
HETATM   31  C   UNL     1      -5.676  13.392  18.687  0.00  0.00     0.026 C 
ENDBRANCH  28  30
ENDBRANCH   2  26
TORSDOF 7
ENDMDL
MODEL 4
REMARK VINA RESULT:    -7.311      3.392      7.099
REMARK INTER + INTRA:         -11.142
REMARK INTER:                  -9.909
REMARK INTRA:                  -1.232
REMARK UNBOUND:                -1.266
REMARK  7 active torsions:
REMARK  status: ('A' for Active; 'I' for Inactive)
REMARK    1  A    between atoms: O_2  and  C_3 
REMARK    2  A    between atoms: C_6  and  C_9 
REMARK    3  A    between atoms: C_10  and  C_11 
REMARK       I    between atoms: C_11  and  N_13 
REMARK    4  A    between atoms: N_13  and  C_14 
REMARK    5  A    between atoms: C_19  and  C_20 
REMARK    6  A    between atoms: C_24  and  O_25 
REMARK    7  A    between atoms: C_27  and  O_28 
ROOT
HETATM    1  C   UNL     1       0.671  14.799  21.410  0.00  0.00     0.039 C 
HETATM    2  C   UNL     1       1.817  15.442  20.937  0.00  0.00     0.131 C 
HETATM    3  N   UNL     1       1.374  16.653  20.492  0.00  0.00    -0.271 N 
HETATM    4  H   UNL     1       1.908  17.361  20.000  0.00  0.00     0.189 HD
HETATM    5  N   UNL     1       0.093  16.916  20.746  0.00  0.00    -0.173 NA
HETATM    6  C   UNL     1      -0.399  15.768  21.235  0.00  0.00     0.103 C 
ENDROOT
BRANCH   6   7
HETATM    7  C   UNL     1      -1.838  15.631  21.539  0.00  0.00     0.030 A 
HETATM    8  C   UNL     1      -2.237  14.939  22.697  0.00  0.00     0.043 A 
HETATM    9  C   UNL     1      -3.573  14.592  22.893  0.00  0.00     0.068 A 
HETATM   10 CL   UNL     1      -4.001  13.580  24.221  0.00  0.00    -0.081 Cl
HETATM   11  C   UNL     1      -4.545  15.016  21.988  0.00  0.00     0.090 A 
HETATM   12  C   UNL     1      -4.194  15.802  20.899  0.00  0.00     0.075 A 
HETATM   13  C   UNL     1      -2.845  16.086  20.661  0.00  0.00     0.081 A 
BRANCH  11  14
HETATM   14  O   UNL     1      -5.859  14.656  22.109  0.00  0.00    -0.359 OA
HETATM   15  H   UNL     1      -5.901  13.685  22.024  0.00  0.00     0.217 HD
ENDBRANCH  11  14
BRANCH  13  16
HETATM   16  O   UNL     1      -2.523  16.768  19.518  0.00  0.00    -0.360 OA
HETATM   17  H   UNL     1      -3.332  17.069  19.076  0.00  0.00     0.217 HD
ENDBRANCH  13  16
ENDBRANCH   6   7
BRANCH   1  18
HETATM   18  C   UNL     1       0.632  13.452  21.992  0.00  0.00    -0.021 A 
HETATM   19  C   UNL     1       1.025  13.229  23.319  0.00  0.00     0.015 A 
HETATM   20  C   UNL     1       0.904  11.966  23.916  0.00  0.00     0.037 A 
HETATM   21  C   UNL     1       0.332  10.909  23.216  0.00  0.00     0.068 A 
HETATM   22  C   UNL     1      -0.070  11.116  21.897  0.00  0.00     0.037 A 
HETATM   23  C   UNL     1       0.110  12.363  21.280  0.00  0.00     0.015 A 
BRANCH  21  24
HETATM   24  O   UNL     1       0.107   9.651  23.705  0.00  0.00    -0.356 OA
HETATM   25  C   UNL     1      -0.747   9.551  24.839  0.00  0.00     0.210 C 
ENDBRANCH  21  24
ENDBRANCH   1  18
BRANCH   2  26
HETATM   26  C   UNL     1       3.194  15.011  20.821  0.00  0.00     0.270 C 
HETATM   27  O   UNL     1       3.523  13.884  20.473  0.00  0.00    -0.266 OA
HETATM   28  N   UNL     1       4.153  15.958  21.158  0.00  0.00    -0.356 N 
HETATM   29  H   UNL     1       3.873  16.811  21.615  0.00  0.00     0.162 HD
BRANCH  28  30
HETATM   30  C   UNL     1       5.536  15.533  21.303  0.00  0.00     0.118 C 
HETATM   31  C   UNL     1       5.836  14.954  22.673  0.00  0.00     0.026 C 
ENDBRANCH  28  30
ENDBRANCH   2  26
TORSDOF 7
ENDMDL
MODEL 5
REMARK VINA RESULT:    -7.279      3.301      6.040
REMARK INTER + INTRA:         -11.098
REMARK INTER:                  -9.873
REMARK INTRA:                  -1.226
REMARK UNBOUND:                -1.266
REMARK  7 active torsions:
REMARK  status: ('A' for Active; 'I' for Inactive)
REMARK    1  A    between atoms: O_2  and  C_3 
REMARK    2  A    between atoms: C_6  and  C_9 
REMARK    3  A    between atoms: C_10  and  C_11 
REMARK       I    between atoms: C_11  and  N_13 
REMARK    4  A    between atoms: N_13  and  C_14 
REMARK    5  A    between atoms: C_19  and  C_20 
REMARK    6  A    between atoms: C_24  and  O_25 
REMARK    7  A    between atoms: C_27  and  O_28 
ROOT
HETATM    1  C   UNL     1      -2.259  14.946  20.780  0.00  0.00     0.039 C 
HETATM    2  C   UNL     1      -3.488  15.181  20.160  0.00  0.00     0.131 C 
HETATM    3  N   UNL     1      -3.389  16.450  19.669  0.00  0.00    -0.271 N 
HETATM    4  H   UNL     1      -4.120  16.998  19.230  0.00  0.00     0.189 HD
HETATM    5  N   UNL     1      -2.187  17.011  19.786  0.00  0.00    -0.173 NA
HETATM    6  C   UNL     1      -1.483  16.151  20.539  0.00  0.00     0.103 C 
ENDROOT
BRANCH   6   7
HETATM    7  C   UNL     1      -0.113  16.481  20.982  0.00  0.00     0.030 A 
HETATM    8  C   UNL     1       0.943  16.433  20.056  0.00  0.00     0.043 A 
HETATM    9  C   UNL     1       2.268  16.510  20.484  0.00  0.00     0.068 A 
HETATM   10 CL   UNL     1       3.542  16.254  19.350  0.00  0.00    -0.081 Cl
HETATM   11  C   UNL     1       2.556  16.736  21.828  0.00  0.00     0.090 A 
HETATM   12  C   UNL     1       1.529  16.907  22.746  0.00  0.00     0.075 A 
HETATM   13  C   UNL     1       0.202  16.754  22.331  0.00  0.00     0.081 A 
BRANCH  11  14
HETATM   14  O   UNL     1       3.839  16.766  22.303  0.00  0.00    -0.359 OA
HETATM   15  H   UNL     1       3.997  15.918  22.759  0.00  0.00     0.217 HD
ENDBRANCH  11  14
BRANCH  13  16
HETATM   16  O   UNL     1      -0.781  16.818  23.282  0.00  0.00    -0.360 OA
HETATM   17  H   UNL     1      -1.567  16.341  22.975  0.00  0.00     0.217 HD
ENDBRANCH  13  16
ENDBRANCH   6   7
BRANCH   1  18
HETATM   18  C   UNL     1      -1.877  13.706  21.466  0.00  0.00    -0.021 A 
HETATM   19  C   UNL     1      -1.867  13.631  22.866  0.00  0.00     0.015 A 
HETATM   20  C   UNL     1      -1.595  12.427  23.533  0.00  0.00     0.037 A 
HETATM   21  C   UNL     1      -1.384  11.256  22.812  0.00  0.00     0.068 A 
HETATM   22  C   UNL     1      -1.396  11.313  21.419  0.00  0.00     0.037 A 
HETATM   23  C   UNL     1      -1.605  12.529  20.753  0.00  0.00     0.015 A 
BRANCH  21  24
HETATM   24  O   UNL     1      -1.168  10.014  23.345  0.00  0.00    -0.356 OA
HETATM   25  C   UNL     1      -0.993   9.948  24.755  0.00  0.00     0.210 C 
ENDBRANCH  21  24
ENDBRANCH   1  18
BRANCH   2  26
HETATM   26  C   UNL     1      -4.691  14.383  20.056  0.00  0.00     0.270 C 
HETATM   27  O   UNL     1      -5.191  13.787  21.001  0.00  0.00    -0.266 OA
HETATM   28  N   UNL     1      -5.253  14.302  18.788  0.00  0.00    -0.356 N 
HETATM   29  H   UNL     1      -4.737  14.639  17.991  0.00  0.00     0.162 HD
BRANCH  28  30
HETATM   30  C   UNL     1      -6.310  13.332  18.551  0.00  0.00     0.118 C 
HETATM   31  C   UNL     1      -6.801  13.332  17.115  0.00  0.00     0.026 C 
ENDBRANCH  28  30
ENDBRANCH   2  26
TORSDOF 7
ENDMDL
MODEL 6
REMARK VINA RESULT:    -7.241      3.057      6.396
REMARK INTER + INTRA:         -11.047
REMARK INTER:                  -9.967
REMARK INTRA:                  -1.079
REMARK UNBOUND:                -1.266
REMARK  7 active torsions:
REMARK  status: ('A' for Active; 'I' for Inactive)
REMARK    1  A    between atoms: O_2  and  C_3 
REMARK    2  A    between atoms: C_6  and  C_9 
REMARK    3  A    between atoms: C_10  and  C_11 
REMARK       I    between atoms: C_11  and  N_13 
REMARK    4  A    between atoms: N_13  and  C_14 
REMARK    5  A    between atoms: C_19  and  C_20 
REMARK    6  A    between atoms: C_24  and  O_25 
REMARK    7  A    between atoms: C_27  and  O_28 
ROOT
HETATM    1  C   UNL     1      -0.800  12.123  22.789  0.00  0.00     0.039 C 
HETATM    2  C   UNL     1      -0.755  10.820  23.290  0.00  0.00     0.131 C 
HETATM    3  N   UNL     1      -2.015  10.333  23.094  0.00  0.00    -0.271 N 
HETATM    4  H   UNL     1      -2.386   9.445  23.412  0.00  0.00     0.189 HD
HETATM    5  N   UNL     1      -2.830  11.129  22.404  0.00  0.00    -0.173 NA
HETATM    6  C   UNL     1      -2.148  12.277  22.268  0.00  0.00     0.103 C 
ENDROOT
BRANCH   6   7
HETATM    7  C   UNL     1      -2.775  13.458  21.640  0.00  0.00     0.030 A 
HETATM    8  C   UNL     1      -1.978  14.358  20.911  0.00  0.00     0.043 A 
HETATM    9  C   UNL     1      -2.486  15.591  20.506  0.00  0.00     0.068 A 
HETATM   10 CL   UNL     1      -1.431  16.749  19.786  0.00  0.00    -0.081 Cl
HETATM   11  C   UNL     1      -3.825  15.904  20.734  0.00  0.00     0.090 A 
HETATM   12  C   UNL     1      -4.665  14.984  21.346  0.00  0.00     0.075 A 
HETATM   13  C   UNL     1      -4.137  13.778  21.820  0.00  0.00     0.081 A 
BRANCH  11  14
HETATM   14  O   UNL     1      -4.355  17.120  20.403  0.00  0.00    -0.359 OA
HETATM   15  H   UNL     1      -4.586  17.086  19.455  0.00  0.00     0.217 HD
ENDBRANCH  11  14
BRANCH  13  16
HETATM   16  O   UNL     1      -4.969  12.942  22.518  0.00  0.00    -0.360 OA
HETATM   17  H   UNL     1      -5.654  13.461  22.968  0.00  0.00     0.217 HD
ENDBRANCH  13  16
ENDBRANCH   6   7
BRANCH   1  18
HETATM   18  C   UNL     1       0.324  13.067  22.776  0.00  0.00    -0.021 A 
HETATM   19  C   UNL     1       0.713  13.741  23.942  0.00  0.00     0.015 A 
HETATM   20  C   UNL     1       1.842  14.573  23.966  0.00  0.00     0.037 A 
HETATM   21  C   UNL     1       2.642  14.704  22.835  0.00  0.00     0.068 A 
HETATM   22  C   UNL     1       2.272  14.036  21.669  0.00  0.00     0.037 A 
HETATM   23  C   UNL     1       1.108  13.255  21.628  0.00  0.00     0.015 A 
BRANCH  21  24
HETATM   24  O   UNL     1       3.795  15.436  22.749  0.00  0.00    -0.356 OA
HETATM   25  C   UNL     1       4.942  14.762  22.243  0.00  0.00     0.210 C 
ENDBRANCH  21  24
ENDBRANCH   1  18
BRANCH   2  26
HETATM   26  C   UNL     1       0.291  10.069  23.950  0.00  0.00     0.270 C 
HETATM   27  O   UNL     1       1.015   9.267  23.374  0.00  0.00    -0.266 OA
HETATM   28  N   UNL     1       0.423  10.290  25.316  0.00  0.00    -0.356 N 
HETATM   29  H   UNL     1      -0.289  10.806  25.808  0.00  0.00     0.162 HD
BRANCH  28  30
HETATM   30  C   UNL     1       1.276   9.405  26.090  0.00  0.00     0.118 C 
HETATM   31  C   UNL     1       0.508   8.586  27.112  0.00  0.00     0.026 C 
ENDBRANCH  28  30
ENDBRANCH   2  26
TORSDOF 7
ENDMDL
MODEL 7
REMARK VINA RESULT:    -7.231      3.155      6.364
REMARK INTER + INTRA:         -11.032
REMARK INTER:                  -9.915
REMARK INTRA:                  -1.118
REMARK UNBOUND:                -1.266
REMARK  7 active torsions:
REMARK  status: ('A' for Active; 'I' for Inactive)
REMARK    1  A    between atoms: O_2  and  C_3 
REMARK    2  A    between atoms: C_6  and  C_9 
REMARK    3  A    between atoms: C_10  and  C_11 
REMARK       I    between atoms: C_11  and  N_13 
REMARK    4  A    between atoms: N_13  and  C_14 
REMARK    5  A    between atoms: C_19  and  C_20 
REMARK    6  A    between atoms: C_24  and  O_25 
REMARK    7  A    between atoms: C_27  and  O_28 
ROOT
HETATM    1  C   UNL     1      -1.949  13.677  23.576  0.00  0.00     0.039 C 
HETATM    2  C   UNL     1      -2.269  13.121  24.818  0.00  0.00     0.131 C 
HETATM    3  N   UNL     1      -1.122  13.230  25.549  0.00  0.00    -0.271 N 
HETATM    4  H   UNL     1      -0.946  12.855  26.474  0.00  0.00     0.189 HD
HETATM    5  N   UNL     1      -0.139  13.913  24.965  0.00  0.00    -0.173 NA
HETATM    6  C   UNL     1      -0.576  14.134  23.715  0.00  0.00     0.103 C 
ENDROOT
BRANCH   6   7
HETATM    7  C   UNL     1       0.296  14.781  22.714  0.00  0.00     0.030 A 
HETATM    8  C   UNL     1       1.487  14.145  22.320  0.00  0.00     0.043 A 
HETATM    9  C   UNL     1       2.439  14.824  21.562  0.00  0.00     0.068 A 
HETATM   10 CL   UNL     1       3.968  14.087  21.260  0.00  0.00    -0.081 Cl
HETATM   11  C   UNL     1       2.175  16.112  21.099  0.00  0.00     0.090 A 
HETATM   12  C   UNL     1       0.956  16.719  21.373  0.00  0.00     0.075 A 
HETATM   13  C   UNL     1       0.033  16.067  22.197  0.00  0.00     0.081 A 
BRANCH  11  14
HETATM   14  O   UNL     1       3.097  16.837  20.398  0.00  0.00    -0.359 OA
HETATM   15  H   UNL     1       3.051  16.541  19.469  0.00  0.00     0.217 HD
ENDBRANCH  11  14
BRANCH  13  16
HETATM   16  O   UNL     1      -1.111  16.740  22.539  0.00  0.00    -0.360 OA
HETATM   17  H   UNL     1      -1.670  16.855  21.756  0.00  0.00     0.217 HD
ENDBRANCH  13  16
ENDBRANCH   6   7
BRANCH   1  18
HETATM   18  C   UNL     1      -2.864  13.789  22.434  0.00  0.00    -0.021 A 
HETATM   19  C   UNL     1      -4.019  14.580  22.512  0.00  0.00     0.015 A 
HETATM   20  C   UNL     1      -4.852  14.771  21.399  0.00  0.00     0.037 A 
HETATM   21  C   UNL     1      -4.516  14.220  20.167  0.00  0.00     0.068 A 
HETATM   22  C   UNL     1      -3.368  13.435  20.072  0.00  0.00     0.037 A 
HETATM   23  C   UNL     1      -2.569  13.192  21.200  0.00  0.00     0.015 A 
BRANCH  21  24
HETATM   24  O   UNL     1      -5.212  14.380  19.000  0.00  0.00    -0.356 OA
HETATM   25  C   UNL     1      -5.926  13.246  18.523  0.00  0.00     0.210 C 
ENDBRANCH  21  24
ENDBRANCH   1  18
BRANCH   2  26
HETATM   26  C   UNL     1      -3.469  12.483  25.315  0.00  0.00     0.270 C 
HETATM   27  O   UNL     1      -4.099  12.887  26.283  0.00  0.00    -0.266 OA
HETATM   28  N   UNL     1      -3.870  11.340  24.635  0.00  0.00    -0.356 N 
HETATM   29  H   UNL     1      -3.250  10.915  23.963  0.00  0.00     0.162 HD
BRANCH  28  30
HETATM   30  C   UNL     1      -4.913  10.509  25.214  0.00  0.00     0.118 C 
HETATM   31  C   UNL     1      -5.999  10.144  24.219  0.00  0.00     0.026 C 
ENDBRANCH  28  30
ENDBRANCH   2  26
TORSDOF 7
ENDMDL
MODEL 8
REMARK VINA RESULT:    -7.096      3.106      5.445
REMARK INTER + INTRA:         -10.851
REMARK INTER:                  -9.460
REMARK INTRA:                  -1.391
REMARK UNBOUND:                -1.266
REMARK  7 active torsions:
REMARK  status: ('A' for Active; 'I' for Inactive)
REMARK    1  A    between atoms: O_2  and  C_3 
REMARK    2  A    between atoms: C_6  and  C_9 
REMARK    3  A    between atoms: C_10  and  C_11 
REMARK       I    between atoms: C_11  and  N_13 
REMARK    4  A    between atoms: N_13  and  C_14 
REMARK    5  A    between atoms: C_19  and  C_20 
REMARK    6  A    between atoms: C_24  and  O_25 
REMARK    7  A    between atoms: C_27  and  O_28 
ROOT
HETATM    1  C   UNL     1      -0.108  13.426  22.867  0.00  0.00     0.039 C 
HETATM    2  C   UNL     1       1.270  13.520  22.663  0.00  0.00     0.131 C 
HETATM    3  N   UNL     1       1.822  13.029  23.810  0.00  0.00    -0.271 N 
HETATM    4  H   UNL     1       2.804  13.019  24.064  0.00  0.00     0.189 HD
HETATM    5  N   UNL     1       0.957  12.506  24.677  0.00  0.00    -0.173 NA
HETATM    6  C   UNL     1      -0.250  12.805  24.174  0.00  0.00     0.103 C 
ENDROOT
BRANCH   6   7
HETATM    7  C   UNL     1      -1.482  12.480  24.922  0.00  0.00     0.030 A 
HETATM    8  C   UNL     1      -2.366  11.514  24.410  0.00  0.00     0.043 A 
HETATM    9  C   UNL     1      -3.637  11.350  24.960  0.00  0.00     0.068 A 
HETATM   10 CL   UNL     1      -4.765  10.297  24.192  0.00  0.00    -0.081 Cl
HETATM   11  C   UNL     1      -4.007  12.075  26.091  0.00  0.00     0.090 A 
HETATM   12  C   UNL     1      -3.109  12.949  26.689  0.00  0.00     0.075 A 
HETATM   13  C   UNL     1      -1.863  13.170  26.092  0.00  0.00     0.081 A 
BRANCH  11  14
HETATM   14  O   UNL     1      -5.259  11.987  26.634  0.00  0.00    -0.359 OA
HETATM   15  H   UNL     1      -5.424  12.822  27.114  0.00  0.00     0.217 HD
ENDBRANCH  11  14
BRANCH  13  16
HETATM   16  O   UNL     1      -1.045  14.120  26.644  0.00  0.00    -0.360 OA
HETATM   17  H   UNL     1      -1.536  14.632  27.304  0.00  0.00     0.217 HD
ENDBRANCH  13  16
ENDBRANCH   6   7
BRANCH   1  18
HETATM   18  C   UNL     1      -1.140  13.838  21.907  0.00  0.00    -0.021 A 
HETATM   19  C   UNL     1      -1.881  12.887  21.194  0.00  0.00     0.015 A 
HETATM   20  C   UNL     1      -2.932  13.264  20.345  0.00  0.00     0.037 A 
HETATM   21  C   UNL     1      -3.302  14.600  20.234  0.00  0.00     0.068 A 
HETATM   22  C   UNL     1      -2.577  15.558  20.941  0.00  0.00     0.037 A 
HETATM   23  C   UNL     1      -1.486  15.187  21.741  0.00  0.00     0.015 A 
BRANCH  21  24
HETATM   24  O   UNL     1      -4.340  15.086  19.487  0.00  0.00    -0.356 OA
HETATM   25  C   UNL     1      -5.219  14.124  18.916  0.00  0.00     0.210 C 
ENDBRANCH  21  24
ENDBRANCH   1  18
BRANCH   2  26
HETATM   26  C   UNL     1       2.055  14.057  21.572  0.00  0.00     0.270 C 
HETATM   27  O   UNL     1       1.988  13.643  20.422  0.00  0.00    -0.266 OA
HETATM   28  N   UNL     1       2.934  15.080  21.908  0.00  0.00    -0.356 N 
HETATM   29  H   UNL     1       3.114  15.284  22.878  0.00  0.00     0.162 HD
BRANCH  28  30
HETATM   30  C   UNL     1       3.924  15.502  20.931  0.00  0.00     0.118 C 
HETATM   31  C   UNL     1       5.338  15.106  21.313  0.00  0.00     0.026 C 
ENDBRANCH  28  30
ENDBRANCH   2  26
TORSDOF 7
ENDMDL
MODEL 9
REMARK VINA RESULT:    -7.062      2.848      3.319
REMARK INTER + INTRA:         -10.804
REMARK INTER:                  -9.539
REMARK INTRA:                  -1.266
REMARK UNBOUND:                -1.266
REMARK  7 active torsions:
REMARK  status: ('A' for Active; 'I' for Inactive)
REMARK    1  A    between atoms: O_2  and  C_3 
REMARK    2  A    between atoms: C_6  and  C_9 
REMARK    3  A    between atoms: C_10  and  C_11 
REMARK       I    between atoms: C_11  and  N_13 
REMARK    4  A    between atoms: N_13  and  C_14 
REMARK    5  A    between atoms: C_19  and  C_20 
REMARK    6  A    between atoms: C_24  and  O_25 
REMARK    7  A    between atoms: C_27  and  O_28 
ROOT
HETATM    1  C   UNL     1       0.118  13.512  23.115  0.00  0.00     0.039 C 
HETATM    2  C   UNL     1      -0.958  14.390  22.958  0.00  0.00     0.131 C 
HETATM    3  N   UNL     1      -2.009  13.755  23.554  0.00  0.00    -0.271 N 
HETATM    4  H   UNL     1      -2.979  14.049  23.562  0.00  0.00     0.189 HD
HETATM    5  N   UNL     1      -1.703  12.628  24.193  0.00  0.00    -0.173 NA
HETATM    6  C   UNL     1      -0.419  12.396  23.877  0.00  0.00     0.103 C 
ENDROOT
BRANCH   6   7
HETATM    7  C   UNL     1       0.256  11.159  24.318  0.00  0.00     0.030 A 
HETATM    8  C   UNL     1       1.456  11.248  25.047  0.00  0.00     0.043 A 
HETATM    9  C   UNL     1       2.235  10.115  25.276  0.00  0.00     0.068 A 
HETATM   10 CL   UNL     1       3.789  10.286  26.002  0.00  0.00    -0.081 Cl
HETATM   11  C   UNL     1       1.781   8.862  24.870  0.00  0.00     0.090 A 
HETATM   12  C   UNL     1       0.544   8.729  24.253  0.00  0.00     0.075 A 
HETATM   13  C   UNL     1      -0.202   9.875  23.956  0.00  0.00     0.081 A 
BRANCH  11  14
HETATM   14  O   UNL     1       2.533   7.730  25.025  0.00  0.00    -0.359 OA
HETATM   15  H   UNL     1       2.460   7.219  24.196  0.00  0.00     0.217 HD
ENDBRANCH  11  14
BRANCH  13  16
HETATM   16  O   UNL     1      -1.365   9.719  23.248  0.00  0.00    -0.360 OA
HETATM   17  H   UNL     1      -2.100  10.128  23.730  0.00  0.00     0.217 HD
ENDBRANCH  13  16
ENDBRANCH   6   7
BRANCH   1  18
HETATM   18  C   UNL     1       1.484  13.748  22.632  0.00  0.00    -0.021 A 
HETATM   19  C   UNL     1       1.778  13.728  21.262  0.00  0.00     0.015 A 
HETATM   20  C   UNL     1       3.057  14.044  20.783  0.00  0.00     0.037 A 
HETATM   21  C   UNL     1       4.059  14.444  21.662  0.00  0.00     0.068 A 
HETATM   22  C   UNL     1       3.781  14.473  23.028  0.00  0.00     0.037 A 
HETATM   23  C   UNL     1       2.519  14.096  23.512  0.00  0.00     0.015 A 
BRANCH  21  24
HETATM   24  O   UNL     1       5.324  14.830  21.314  0.00  0.00    -0.356 OA
HETATM   25  C   UNL     1       6.277  14.915  22.368  0.00  0.00     0.210 C 
ENDBRANCH  21  24
ENDBRANCH   1  18
BRANCH   2  26
HETATM   26  C   UNL     1      -1.080  15.663  22.283  0.00  0.00     0.270 C 
HETATM   27  O   UNL     1      -0.799  16.735  22.804  0.00  0.00    -0.266 OA
HETATM   28  N   UNL     1      -1.571  15.613  20.984  0.00  0.00    -0.356 N 
HETATM   29  H   UNL     1      -1.970  14.756  20.635  0.00  0.00     0.162 HD
BRANCH  28  30
HETATM   30  C   UNL     1      -1.952  16.855  20.331  0.00  0.00     0.118 C 
HETATM   31  C   UNL     1      -3.410  16.879  19.911  0.00  0.00     0.026 C 
ENDBRANCH  28  30
ENDBRANCH   2  26
TORSDOF 7
ENDMDL
