MODEL 1
REMARK VINA RESULT:    -9.260      0.000      0.000
REMARK INTER + INTRA:         -15.030
REMARK INTER:                 -13.104
REMARK INTRA:                  -1.926
REMARK UNBOUND:                -1.710
REMARK  8 active torsions:
REMARK  status: ('A' for Active; 'I' for Inactive)
REMARK    1  A    between atoms: C_7  and  C_8 
REMARK    2  A    between atoms: C_8  and  C_9 
REMARK    3  A    between atoms: C_16  and  C_20 
REMARK    4  A    between atoms: C_17  and  O_19 
REMARK       I    between atoms: C_20  and  N_22 
REMARK    5  A    between atoms: N_22  and  C_24 
REMARK    6  A    between atoms: C_27  and  C_30 
REMARK    7  A    between atoms: C_30  and  N_31 
REMARK    8  A    between atoms: N_31  and  S_32 
ROOT
HETATM    1  C   UNL     1       0.742  14.661  23.114  0.00  0.00     0.071 A 
HETATM    2  N   UNL     1       1.756  15.341  23.683  0.00  0.00    -0.178 NA
HETATM    3  N   UNL     1       1.374  15.477  24.961  0.00  0.00    -0.277 N 
HETATM    4  H   UNL     1       1.973  16.007  25.585  0.00  0.00     0.189 HD
HETATM    5  C   UNL     1      -0.255  14.314  24.070  0.00  0.00     0.020 A 
HETATM    6  C   UNL     1       0.144  14.945  25.239  0.00  0.00     0.065 A 
HETATM    7  C   UNL     1      -1.488  13.625  24.056  0.00  0.00     0.035 C 
HETATM    8  C   UNL     1      -2.285  13.621  25.216  0.00  0.00     0.066 C 
HETATM    9  C   UNL     1      -1.900  14.394  26.321  0.00  0.00     0.083 C 
HETATM   10  C   UNL     1      -0.655  15.021  26.385  0.00  0.00     0.069 C 
ENDROOT
BRANCH   8  11
HETATM   11  C   UNL     1      -3.559  12.845  25.267  0.00  0.00     0.260 C 
HETATM   12  O   UNL     1      -4.591  13.521  25.238  0.00  0.00    -0.267 OA
HETATM   13  N   UNL     1      -3.551  11.435  25.291  0.00  0.00    -0.318 N 
HETATM   14  C   UNL     1      -4.809  10.741  25.021  0.00  0.00     0.159 C 
BRANCH  13  15
HETATM   15  C   UNL     1      -2.441  10.624  25.692  0.00  0.00     0.037 A 
HETATM   16  C   UNL     1      -1.607  10.028  24.740  0.00  0.00     0.030 A 
HETATM   17  C   UNL     1      -0.624   9.112  25.119  0.00  0.00     0.011 A 
HETATM   18  C   UNL     1      -0.426   8.796  26.467  0.00  0.00    -0.044 A 
HETATM   19  C   UNL     1      -1.178   9.476  27.431  0.00  0.00     0.011 A 
HETATM   20  C   UNL     1      -2.169  10.392  27.047  0.00  0.00     0.030 A 
BRANCH  18  21
HETATM   21  C   UNL     1       0.505   7.671  26.855  0.00  0.00     0.142 C 
BRANCH  21  22
HETATM   22  N   UNL     1       1.098   7.010  25.689  0.00  0.00    -0.216 NA
HETATM   23  H   UNL     1       2.119   6.975  25.698  0.00  0.00     0.139 HD
BRANCH  22  24
HETATM   24  S   UNL     1       0.473   5.500  25.290  0.00  0.00     0.205 S 
HETATM   25  O   UNL     1       0.258   4.820  26.546  0.00  0.00    -0.212 OA
HETATM   26  O   UNL     1      -0.610   5.719  24.353  0.00  0.00    -0.212 OA
HETATM   27  C   UNL     1       1.836   4.722  24.441  0.00  0.00     0.179 C 
ENDBRANCH  22  24
ENDBRANCH  21  22
ENDBRANCH  18  21
ENDBRANCH  13  15
ENDBRANCH   8  11
BRANCH   9  28
HETATM   28  O   UNL     1      -2.731  14.613  27.392  0.00  0.00    -0.360 OA
HETATM   29  H   UNL     1      -3.634  14.754  27.030  0.00  0.00     0.217 HD
ENDBRANCH   9  28
BRANCH   1  30
HETATM   30  C   UNL     1       0.632  14.603  21.630  0.00  0.00     0.100 C 
BRANCH  30  31
HETATM   31  C   UNL     1      -0.180  15.752  21.092  0.00  0.00    -0.052 A 
HETATM   32  C   UNL     1      -1.580  15.644  21.027  0.00  0.00     0.014 A 
HETATM   33  C   UNL     1      -2.335  16.530  20.245  0.00  0.00    -0.061 A 
HETATM   34  C   UNL     1      -3.793  16.279  19.996  0.00  0.00     0.048 C 
HETATM   35  C   UNL     1      -1.686  17.583  19.589  0.00  0.00     0.007 A 
HETATM   36  C   UNL     1      -0.306  17.745  19.711  0.00  0.00     0.001 A 
HETATM   37  C   UNL     1       0.445  16.832  20.453  0.00  0.00     0.007 A 
ENDBRANCH  30  31
ENDBRANCH   1  30
TORSDOF 8
ENDMDL
MODEL 2
REMARK VINA RESULT:    -9.070      1.481      1.753
REMARK INTER + INTRA:         -14.757
REMARK INTER:                 -12.635
REMARK INTRA:                  -2.121
REMARK UNBOUND:                -1.710
REMARK  8 active torsions:
REMARK  status: ('A' for Active; 'I' for Inactive)
REMARK    1  A    between atoms: C_7  and  C_8 
REMARK    2  A    between atoms: C_8  and  C_9 
REMARK    3  A    between atoms: C_16  and  C_20 
REMARK    4  A    between atoms: C_17  and  O_19 
REMARK       I    between atoms: C_20  and  N_22 
REMARK    5  A    between atoms: N_22  and  C_24 
REMARK    6  A    between atoms: C_27  and  C_30 
REMARK    7  A    between atoms: C_30  and  N_31 
REMARK    8  A    between atoms: N_31  and  S_32 
ROOT
HETATM    1  C   UNL     1       0.806  14.621  23.090  0.00  0.00     0.071 A 
HETATM    2  N   UNL     1       1.829  15.251  23.699  0.00  0.00    -0.178 NA
HETATM    3  N   UNL     1       1.435  15.341  24.978  0.00  0.00    -0.277 N 
HETATM    4  H   UNL     1       2.038  15.829  25.631  0.00  0.00     0.189 HD
HETATM    5  C   UNL     1      -0.211  14.256  24.020  0.00  0.00     0.020 A 
HETATM    6  C   UNL     1       0.190  14.827  25.220  0.00  0.00     0.065 A 
HETATM    7  C   UNL     1      -1.459  13.598  23.963  0.00  0.00     0.035 C 
HETATM    8  C   UNL     1      -2.269  13.564  25.113  0.00  0.00     0.066 C 
HETATM    9  C   UNL     1      -1.880  14.279  26.255  0.00  0.00     0.083 C 
HETATM   10  C   UNL     1      -0.621  14.872  26.359  0.00  0.00     0.069 C 
ENDROOT
BRANCH   8  11
HETATM   11  C   UNL     1      -3.561  12.817  25.117  0.00  0.00     0.260 C 
HETATM   12  O   UNL     1      -4.575  13.513  25.005  0.00  0.00    -0.267 OA
HETATM   13  N   UNL     1      -3.588  11.408  25.189  0.00  0.00    -0.318 N 
HETATM   14  C   UNL     1      -4.844  10.732  24.870  0.00  0.00     0.159 C 
BRANCH  13  15
HETATM   15  C   UNL     1      -2.522  10.589  25.681  0.00  0.00     0.037 A 
HETATM   16  C   UNL     1      -2.363  10.366  27.054  0.00  0.00     0.030 A 
HETATM   17  C   UNL     1      -1.239   9.702  27.548  0.00  0.00     0.011 A 
HETATM   18  C   UNL     1      -0.259   9.213  26.678  0.00  0.00    -0.044 A 
HETATM   19  C   UNL     1      -0.470   9.331  25.299  0.00  0.00     0.011 A 
HETATM   20  C   UNL     1      -1.598  10.003  24.805  0.00  0.00     0.030 A 
BRANCH  18  21
HETATM   21  C   UNL     1       1.038   8.666  27.224  0.00  0.00     0.142 C 
BRANCH  21  22
HETATM   22  N   UNL     1       1.590   7.599  26.384  0.00  0.00    -0.216 NA
HETATM   23  H   UNL     1       0.927   7.202  25.716  0.00  0.00     0.139 HD
BRANCH  22  24
HETATM   24  S   UNL     1       3.050   7.932  25.617  0.00  0.00     0.205 S 
HETATM   25  O   UNL     1       3.299   9.337  25.842  0.00  0.00    -0.212 OA
HETATM   26  O   UNL     1       3.997   6.920  26.039  0.00  0.00    -0.212 OA
HETATM   27  C   UNL     1       2.657   7.686  23.895  0.00  0.00     0.179 C 
ENDBRANCH  22  24
ENDBRANCH  21  22
ENDBRANCH  18  21
ENDBRANCH  13  15
ENDBRANCH   8  11
BRANCH   9  28
HETATM   28  O   UNL     1      -2.717  14.471  27.325  0.00  0.00    -0.360 OA
HETATM   29  H   UNL     1      -3.531  13.947  27.151  0.00  0.00     0.217 HD
ENDBRANCH   9  28
BRANCH   1  30
HETATM   30  C   UNL     1       0.712  14.629  21.604  0.00  0.00     0.100 C 
BRANCH  30  31
HETATM   31  C   UNL     1      -0.182  15.738  21.114  0.00  0.00    -0.052 A 
HETATM   32  C   UNL     1      -1.568  15.522  21.015  0.00  0.00     0.014 A 
HETATM   33  C   UNL     1      -2.380  16.388  20.269  0.00  0.00    -0.061 A 
HETATM   34  C   UNL     1      -3.809  16.035  19.976  0.00  0.00     0.048 C 
HETATM   35  C   UNL     1      -1.808  17.525  19.686  0.00  0.00     0.007 A 
HETATM   36  C   UNL     1      -0.448  17.790  19.845  0.00  0.00     0.001 A 
HETATM   37  C   UNL     1       0.363  16.899  20.550  0.00  0.00     0.007 A 
ENDBRANCH  30  31
ENDBRANCH   1  30
TORSDOF 8
ENDMDL
MODEL 3
REMARK VINA RESULT:    -9.056      3.707      6.397
REMARK INTER + INTRA:         -14.736
REMARK INTER:                 -13.125
REMARK INTRA:                  -1.611
REMARK UNBOUND:                -1.710
REMARK  8 active torsions:
REMARK  status: ('A' for Active; 'I' for Inactive)
REMARK    1  A    between atoms: C_7  and  C_8 
REMARK    2  A    between atoms: C_8  and  C_9 
REMARK    3  A    between atoms: C_16  and  C_20 
REMARK    4  A    between atoms: C_17  and  O_19 
REMARK       I    between atoms: C_20  and  N_22 
REMARK    5  A    between atoms: N_22  and  C_24 
REMARK    6  A    between atoms: C_27  and  C_30 
REMARK    7  A    between atoms: C_30  and  N_31 
REMARK    8  A    between atoms: N_31  and  S_32 
ROOT
HETATM    1  C   UNL     1      -2.499  12.119  22.464  0.00  0.00     0.071 A 
HETATM    2  N   UNL     1      -3.082  10.960  22.104  0.00  0.00    -0.178 NA
HETATM    3  N   UNL     1      -3.482  10.426  23.268  0.00  0.00    -0.277 N 
HETATM    4  H   UNL     1      -3.918   9.511  23.249  0.00  0.00     0.189 HD
HETATM    5  C   UNL     1      -2.597  12.338  23.869  0.00  0.00     0.020 A 
HETATM    6  C   UNL     1      -3.156  11.171  24.368  0.00  0.00     0.065 A 
HETATM    7  C   UNL     1      -2.191  13.341  24.777  0.00  0.00     0.035 C 
HETATM    8  C   UNL     1      -2.341  13.117  26.158  0.00  0.00     0.066 C 
HETATM    9  C   UNL     1      -2.779  11.864  26.612  0.00  0.00     0.083 C 
HETATM   10  C   UNL     1      -3.254  10.888  25.735  0.00  0.00     0.069 C 
ENDROOT
BRANCH   8  11
HETATM   11  C   UNL     1      -1.994  14.178  27.148  0.00  0.00     0.260 C 
HETATM   12  O   UNL     1      -2.696  14.206  28.163  0.00  0.00    -0.267 OA
HETATM   13  N   UNL     1      -0.898  15.041  26.936  0.00  0.00    -0.318 N 
HETATM   14  C   UNL     1      -0.422  15.832  28.070  0.00  0.00     0.159 C 
BRANCH  13  15
HETATM   15  C   UNL     1      -0.295  15.308  25.665  0.00  0.00     0.037 A 
HETATM   16  C   UNL     1       1.017  14.903  25.394  0.00  0.00     0.030 A 
HETATM   17  C   UNL     1       1.662  15.299  24.221  0.00  0.00     0.011 A 
HETATM   18  C   UNL     1       0.999  16.081  23.270  0.00  0.00    -0.044 A 
HETATM   19  C   UNL     1      -0.349  16.391  23.482  0.00  0.00     0.011 A 
HETATM   20  C   UNL     1      -0.994  15.997  24.664  0.00  0.00     0.030 A 
BRANCH  18  21
HETATM   21  C   UNL     1       1.756  16.660  22.099  0.00  0.00     0.142 C 
BRANCH  21  22
HETATM   22  N   UNL     1       3.189  16.356  22.156  0.00  0.00    -0.216 NA
HETATM   23  H   UNL     1       3.501  15.960  23.044  0.00  0.00     0.139 HD
BRANCH  22  24
HETATM   24  S   UNL     1       3.814  15.463  20.875  0.00  0.00     0.205 S 
HETATM   25  O   UNL     1       3.158  14.177  20.937  0.00  0.00    -0.212 OA
HETATM   26  O   UNL     1       3.734  16.295  19.692  0.00  0.00    -0.212 OA
HETATM   27  C   UNL     1       5.526  15.258  21.334  0.00  0.00     0.179 C 
ENDBRANCH  22  24
ENDBRANCH  21  22
ENDBRANCH  18  21
ENDBRANCH  13  15
ENDBRANCH   8  11
BRANCH   9  28
HETATM   28  O   UNL     1      -2.737  11.504  27.936  0.00  0.00    -0.360 OA
HETATM   29  H   UNL     1      -1.792  11.521  28.208  0.00  0.00     0.217 HD
ENDBRANCH   9  28
BRANCH   1  30
HETATM   30  C   UNL     1      -1.633  12.844  21.493  0.00  0.00     0.100 C 
BRANCH  30  31
HETATM   31  C   UNL     1      -2.338  14.044  20.916  0.00  0.00    -0.052 A 
HETATM   32  C   UNL     1      -1.585  15.143  20.467  0.00  0.00     0.014 A 
HETATM   33  C   UNL     1      -2.192  16.385  20.236  0.00  0.00    -0.061 A 
HETATM   34  C   UNL     1      -1.360  17.607  19.977  0.00  0.00     0.048 C 
HETATM   35  C   UNL     1      -3.580  16.503  20.380  0.00  0.00     0.007 A 
HETATM   36  C   UNL     1      -4.346  15.397  20.750  0.00  0.00     0.001 A 
HETATM   37  C   UNL     1      -3.729  14.175  21.022  0.00  0.00     0.007 A 
ENDBRANCH  30  31
ENDBRANCH   1  30
TORSDOF 8
ENDMDL
MODEL 4
REMARK VINA RESULT:    -9.029      1.014      1.426
REMARK INTER + INTRA:         -14.698
REMARK INTER:                 -12.672
REMARK INTRA:                  -2.025
REMARK UNBOUND:                -1.710
REMARK  8 active torsions:
REMARK  status: ('A' for Active; 'I' for Inactive)
REMARK    1  A    between atoms: C_7  and  C_8 
REMARK    2  A    between atoms: C_8  and  C_9 
REMARK    3  A    between atoms: C_16  and  C_20 
REMARK    4  A    between atoms: C_17  and  O_19 
REMARK       I    between atoms: C_20  and  N_22 
REMARK    5  A    between atoms: N_22  and  C_24 
REMARK    6  A    between atoms: C_27  and  C_30 
REMARK    7  A    between atoms: C_30  and  N_31 
REMARK    8  A    between atoms: N_31  and  S_32 
ROOT
HETATM    1  C   UNL     1       0.819  14.611  23.095  0.00  0.00     0.071 A 
HETATM    2  N   UNL     1       1.856  15.235  23.687  0.00  0.00    -0.178 NA
HETATM    3  N   UNL     1       1.475  15.344  24.969  0.00  0.00    -0.277 N 
HETATM    4  H   UNL     1       2.090  15.832  25.611  0.00  0.00     0.189 HD
HETATM    5  C   UNL     1      -0.193  14.269  24.038  0.00  0.00     0.020 A 
HETATM    6  C   UNL     1       0.226  14.848  25.228  0.00  0.00     0.065 A 
HETATM    7  C   UNL     1      -1.449  13.626  24.000  0.00  0.00     0.035 C 
HETATM    8  C   UNL     1      -2.249  13.614  25.158  0.00  0.00     0.066 C 
HETATM    9  C   UNL     1      -1.840  14.337  26.288  0.00  0.00     0.083 C 
HETATM   10  C   UNL     1      -0.574  14.916  26.374  0.00  0.00     0.069 C 
ENDROOT
BRANCH   8  11
HETATM   11  C   UNL     1      -3.550  12.883  25.182  0.00  0.00     0.260 C 
HETATM   12  O   UNL     1      -4.556  13.590  25.070  0.00  0.00    -0.267 OA
HETATM   13  N   UNL     1      -3.593  11.476  25.272  0.00  0.00    -0.318 N 
HETATM   14  C   UNL     1      -4.860  10.811  24.972  0.00  0.00     0.159 C 
BRANCH  13  15
HETATM   15  C   UNL     1      -2.533  10.650  25.765  0.00  0.00     0.037 A 
HETATM   16  C   UNL     1      -2.346  10.468  27.141  0.00  0.00     0.030 A 
HETATM   17  C   UNL     1      -1.224   9.796  27.629  0.00  0.00     0.011 A 
HETATM   18  C   UNL     1      -0.276   9.258  26.753  0.00  0.00    -0.044 A 
HETATM   19  C   UNL     1      -0.518   9.335  25.377  0.00  0.00     0.011 A 
HETATM   20  C   UNL     1      -1.643  10.015  24.888  0.00  0.00     0.030 A 
BRANCH  18  21
HETATM   21  C   UNL     1       1.023   8.700  27.286  0.00  0.00     0.142 C 
BRANCH  21  22
HETATM   22  N   UNL     1       0.843   7.406  27.949  0.00  0.00    -0.216 NA
HETATM   23  H   UNL     1      -0.051   7.299  28.431  0.00  0.00     0.139 HD
BRANCH  22  24
HETATM   24  S   UNL     1       1.163   6.040  27.019  0.00  0.00     0.205 S 
HETATM   25  O   UNL     1       1.919   6.510  25.881  0.00  0.00    -0.212 OA
HETATM   26  O   UNL     1       1.691   5.029  27.911  0.00  0.00    -0.212 OA
HETATM   27  C   UNL     1      -0.461   5.548  26.468  0.00  0.00     0.179 C 
ENDBRANCH  22  24
ENDBRANCH  21  22
ENDBRANCH  18  21
ENDBRANCH  13  15
ENDBRANCH   8  11
BRANCH   9  28
HETATM   28  O   UNL     1      -2.666  14.552  27.364  0.00  0.00    -0.360 OA
HETATM   29  H   UNL     1      -3.589  14.529  27.025  0.00  0.00     0.217 HD
ENDBRANCH   9  28
BRANCH   1  30
HETATM   30  C   UNL     1       0.712  14.603  21.610  0.00  0.00     0.100 C 
BRANCH  30  31
HETATM   31  C   UNL     1      -0.163  15.726  21.115  0.00  0.00    -0.052 A 
HETATM   32  C   UNL     1      -1.556  15.545  21.050  0.00  0.00     0.014 A 
HETATM   33  C   UNL     1      -2.360  16.417  20.303  0.00  0.00    -0.061 A 
HETATM   34  C   UNL     1      -3.805  16.097  20.050  0.00  0.00     0.048 C 
HETATM   35  C   UNL     1      -1.771  17.525  19.682  0.00  0.00     0.007 A 
HETATM   36  C   UNL     1      -0.402  17.756  19.806  0.00  0.00     0.001 A 
HETATM   37  C   UNL     1       0.401  16.859  20.513  0.00  0.00     0.007 A 
ENDBRANCH  30  31
ENDBRANCH   1  30
TORSDOF 8
ENDMDL
MODEL 5
REMARK VINA RESULT:    -8.976      3.845      6.165
REMARK INTER + INTRA:         -14.621
REMARK INTER:                 -13.220
REMARK INTRA:                  -1.402
REMARK UNBOUND:                -1.710
REMARK  8 active torsions:
REMARK  status: ('A' for Active; 'I' for Inactive)
REMARK    1  A    between atoms: C_7  and  C_8 
REMARK    2  A    between atoms: C_8  and  C_9 
REMARK    3  A    between atoms: C_16  and  C_20 
REMARK    4  A    between atoms: C_17  and  O_19 
REMARK       I    between atoms: C_20  and  N_22 
REMARK    5  A    between atoms: N_22  and  C_24 
REMARK    6  A    between atoms: C_27  and  C_30 
REMARK    7  A    between atoms: C_30  and  N_31 
REMARK    8  A    between atoms: N_31  and  S_32 
ROOT
HETATM    1  C   UNL     1      -3.880  13.861  22.554  0.00  0.00     0.071 A 
HETATM    2  N   UNL     1      -4.829  14.638  23.110  0.00  0.00    -0.178 NA
HETATM    3  N   UNL     1      -4.883  14.219  24.383  0.00  0.00    -0.277 N 
HETATM    4  H   UNL     1      -5.573  14.639  24.996  0.00  0.00     0.189 HD
HETATM    5  C   UNL     1      -3.289  12.990  23.515  0.00  0.00     0.020 A 
HETATM    6  C   UNL     1      -4.034  13.184  24.669  0.00  0.00     0.065 A 
HETATM    7  C   UNL     1      -2.282  12.000  23.513  0.00  0.00     0.035 C 
HETATM    8  C   UNL     1      -2.083  11.223  24.670  0.00  0.00     0.066 C 
HETATM    9  C   UNL     1      -2.958  11.364  25.757  0.00  0.00     0.083 C 
HETATM   10  C   UNL     1      -3.909  12.383  25.810  0.00  0.00     0.069 C 
ENDROOT
BRANCH   8  11
HETATM   11  C   UNL     1      -0.983  10.217  24.735  0.00  0.00     0.260 C 
HETATM   12  O   UNL     1      -1.103   9.358  25.614  0.00  0.00    -0.267 OA
HETATM   13  N   UNL     1       0.080  10.239  23.809  0.00  0.00    -0.318 N 
HETATM   14  C   UNL     1       0.939   9.059  23.726  0.00  0.00     0.159 C 
BRANCH  13  15
HETATM   15  C   UNL     1       0.473  11.377  23.033  0.00  0.00     0.037 A 
HETATM   16  C   UNL     1       0.225  11.428  21.657  0.00  0.00     0.030 A 
HETATM   17  C   UNL     1       0.743  12.458  20.871  0.00  0.00     0.011 A 
HETATM   18  C   UNL     1       1.496  13.486  21.449  0.00  0.00    -0.044 A 
HETATM   19  C   UNL     1       1.648  13.503  22.840  0.00  0.00     0.011 A 
HETATM   20  C   UNL     1       1.130  12.464  23.626  0.00  0.00     0.030 A 
BRANCH  18  21
HETATM   21  C   UNL     1       2.209  14.491  20.575  0.00  0.00     0.142 C 
BRANCH  21  22
HETATM   22  N   UNL     1       3.664  14.320  20.603  0.00  0.00    -0.216 NA
HETATM   23  H   UNL     1       4.090  14.176  19.685  0.00  0.00     0.139 HD
BRANCH  22  24
HETATM   24  S   UNL     1       4.534  15.471  21.468  0.00  0.00     0.205 S 
HETATM   25  O   UNL     1       5.729  15.721  20.695  0.00  0.00    -0.212 OA
HETATM   26  O   UNL     1       3.615  16.539  21.805  0.00  0.00    -0.212 OA
HETATM   27  C   UNL     1       4.984  14.592  22.954  0.00  0.00     0.179 C 
ENDBRANCH  22  24
ENDBRANCH  21  22
ENDBRANCH  18  21
ENDBRANCH  13  15
ENDBRANCH   8  11
BRANCH   9  28
HETATM   28  O   UNL     1      -2.961  10.493  26.818  0.00  0.00    -0.360 OA
HETATM   29  H   UNL     1      -2.024  10.376  27.095  0.00  0.00     0.217 HD
ENDBRANCH   9  28
BRANCH   1  30
HETATM   30  C   UNL     1      -3.758  13.788  21.071  0.00  0.00     0.100 C 
BRANCH  30  31
HETATM   31  C   UNL     1      -3.016  14.978  20.520  0.00  0.00    -0.052 A 
HETATM   32  C   UNL     1      -1.780  15.346  21.079  0.00  0.00     0.014 A 
HETATM   33  C   UNL     1      -1.225  16.609  20.829  0.00  0.00    -0.061 A 
HETATM   34  C   UNL     1      -0.028  17.085  21.599  0.00  0.00     0.048 C 
HETATM   35  C   UNL     1      -1.878  17.478  19.947  0.00  0.00     0.007 A 
HETATM   36  C   UNL     1      -3.065  17.091  19.326  0.00  0.00     0.001 A 
HETATM   37  C   UNL     1      -3.636  15.850  19.615  0.00  0.00     0.007 A 
ENDBRANCH  30  31
ENDBRANCH   1  30
TORSDOF 8
ENDMDL
MODEL 6
REMARK VINA RESULT:    -8.560      3.491      6.623
REMARK INTER + INTRA:         -14.022
REMARK INTER:                 -12.326
REMARK INTRA:                  -1.696
REMARK UNBOUND:                -1.710
REMARK  8 active torsions:
REMARK  status: ('A' for Active; 'I' for Inactive)
REMARK    1  A    between atoms: C_7  and  C_8 
REMARK    2  A    between atoms: C_8  and  C_9 
REMARK    3  A    between atoms: C_16  and  C_20 
REMARK    4  A    between atoms: C_17  and  O_19 
REMARK       I    between atoms: C_20  and  N_22 
REMARK    5  A    between atoms: N_22  and  C_24 
REMARK    6  A    between atoms: C_27  and  C_30 
REMARK    7  A    between atoms: C_30  and  N_31 
REMARK    8  A    between atoms: N_31  and  S_32 
ROOT
HETATM    1  C   UNL     1      -2.556  15.819  20.874  0.00  0.00     0.071 A 
HETATM    2  N   UNL     1      -3.233  16.754  20.179  0.00  0.00    -0.178 NA
HETATM    3  N   UNL     1      -2.268  17.525  19.655  0.00  0.00    -0.277 N 
HETATM    4  H   UNL     1      -2.546  18.338  19.117  0.00  0.00     0.189 HD
HETATM    5  C   UNL     1      -1.148  15.975  20.726  0.00  0.00     0.020 A 
HETATM    6  C   UNL     1      -0.999  17.153  20.006  0.00  0.00     0.065 A 
HETATM    7  C   UNL     1       0.008  15.315  21.196  0.00  0.00     0.035 C 
HETATM    8  C   UNL     1       1.272  15.882  20.945  0.00  0.00     0.066 C 
HETATM    9  C   UNL     1       1.356  17.143  20.338  0.00  0.00     0.083 C 
HETATM   10  C   UNL     1       0.236  17.778  19.800  0.00  0.00     0.069 C 
ENDROOT
BRANCH   8  11
HETATM   11  C   UNL     1       2.522  15.180  21.360  0.00  0.00     0.260 C 
HETATM   12  O   UNL     1       3.358  15.016  20.467  0.00  0.00    -0.267 OA
HETATM   13  N   UNL     1       2.727  14.791  22.700  0.00  0.00    -0.318 N 
HETATM   14  C   UNL     1       4.080  14.404  23.099  0.00  0.00     0.159 C 
BRANCH  13  15
HETATM   15  C   UNL     1       1.693  14.613  23.673  0.00  0.00     0.037 A 
HETATM   16  C   UNL     1       0.957  13.423  23.730  0.00  0.00     0.030 A 
HETATM   17  C   UNL     1      -0.153  13.304  24.567  0.00  0.00     0.011 A 
HETATM   18  C   UNL     1      -0.536  14.361  25.398  0.00  0.00    -0.044 A 
HETATM   19  C   UNL     1       0.263  15.509  25.432  0.00  0.00     0.011 A 
HETATM   20  C   UNL     1       1.375  15.628  24.585  0.00  0.00     0.030 A 
BRANCH  18  21
HETATM   21  C   UNL     1      -1.840  14.297  26.159  0.00  0.00     0.142 C 
BRANCH  21  22
HETATM   22  N   UNL     1      -2.569  13.050  25.911  0.00  0.00    -0.216 NA
HETATM   23  H   UNL     1      -2.069  12.378  25.327  0.00  0.00     0.139 HD
BRANCH  22  24
HETATM   24  S   UNL     1      -3.207  12.277  27.262  0.00  0.00     0.205 S 
HETATM   25  O   UNL     1      -2.995  13.182  28.368  0.00  0.00    -0.212 OA
HETATM   26  O   UNL     1      -4.533  11.817  26.906  0.00  0.00    -0.212 OA
HETATM   27  C   UNL     1      -2.129  10.869  27.457  0.00  0.00     0.179 C 
ENDBRANCH  22  24
ENDBRANCH  21  22
ENDBRANCH  18  21
ENDBRANCH  13  15
ENDBRANCH   8  11
BRANCH   9  28
HETATM   28  O   UNL     1       2.531  17.849  20.265  0.00  0.00    -0.360 OA
HETATM   29  H   UNL     1       3.240  17.262  20.612  0.00  0.00     0.217 HD
ENDBRANCH   9  28
BRANCH   1  30
HETATM   30  C   UNL     1      -3.273  14.977  21.871  0.00  0.00     0.100 C 
BRANCH  30  31
HETATM   31  C   UNL     1      -2.922  13.520  21.715  0.00  0.00    -0.052 A 
HETATM   32  C   UNL     1      -3.375  12.590  22.668  0.00  0.00     0.014 A 
HETATM   33  C   UNL     1      -2.810  11.309  22.747  0.00  0.00    -0.061 A 
HETATM   34  C   UNL     1      -3.131  10.402  23.899  0.00  0.00     0.048 C 
HETATM   35  C   UNL     1      -1.841  10.932  21.810  0.00  0.00     0.007 A 
HETATM   36  C   UNL     1      -1.442  11.821  20.812  0.00  0.00     0.001 A 
HETATM   37  C   UNL     1      -1.975  13.111  20.767  0.00  0.00     0.007 A 
ENDBRANCH  30  31
ENDBRANCH   1  30
TORSDOF 8
ENDMDL
MODEL 7
REMARK VINA RESULT:    -8.463      2.286      3.702
REMARK INTER + INTRA:         -13.883
REMARK INTER:                 -12.444
REMARK INTRA:                  -1.439
REMARK UNBOUND:                -1.710
REMARK  8 active torsions:
REMARK  status: ('A' for Active; 'I' for Inactive)
REMARK    1  A    between atoms: C_7  and  C_8 
REMARK    2  A    between atoms: C_8  and  C_9 
REMARK    3  A    between atoms: C_16  and  C_20 
REMARK    4  A    between atoms: C_17  and  O_19 
REMARK       I    between atoms: C_20  and  N_22 
REMARK    5  A    between atoms: N_22  and  C_24 
REMARK    6  A    between atoms: C_27  and  C_30 
REMARK    7  A    between atoms: C_30  and  N_31 
REMARK    8  A    between atoms: N_31  and  S_32 
ROOT
HETATM    1  C   UNL     1      -0.290  16.579  22.400  0.00  0.00     0.071 A 
HETATM    2  N   UNL     1      -0.771  16.887  21.180  0.00  0.00    -0.178 NA
HETATM    3  N   UNL     1      -1.944  16.239  21.124  0.00  0.00    -0.277 N 
HETATM    4  H   UNL     1      -2.477  16.288  20.263  0.00  0.00     0.189 HD
HETATM    5  C   UNL     1      -1.210  15.780  23.138  0.00  0.00     0.020 A 
HETATM    6  C   UNL     1      -2.230  15.499  22.239  0.00  0.00     0.065 A 
HETATM    7  C   UNL     1      -1.250  15.187  24.419  0.00  0.00     0.035 C 
HETATM    8  C   UNL     1      -2.305  14.311  24.736  0.00  0.00     0.066 C 
HETATM    9  C   UNL     1      -3.228  13.952  23.744  0.00  0.00     0.083 C 
HETATM   10  C   UNL     1      -3.252  14.579  22.498  0.00  0.00     0.069 C 
ENDROOT
BRANCH   8  11
HETATM   11  C   UNL     1      -2.424  13.720  26.102  0.00  0.00     0.260 C 
HETATM   12  O   UNL     1      -2.814  14.495  26.981  0.00  0.00    -0.267 OA
HETATM   13  N   UNL     1      -2.155  12.355  26.331  0.00  0.00    -0.318 N 
HETATM   14  C   UNL     1      -2.593  11.776  27.600  0.00  0.00     0.159 C 
BRANCH  13  15
HETATM   15  C   UNL     1      -1.368  11.517  25.478  0.00  0.00     0.037 A 
HETATM   16  C   UNL     1      -1.944  10.429  24.811  0.00  0.00     0.030 A 
HETATM   17  C   UNL     1      -1.154   9.518  24.108  0.00  0.00     0.011 A 
HETATM   18  C   UNL     1       0.231   9.692  24.023  0.00  0.00    -0.044 A 
HETATM   19  C   UNL     1       0.797  10.839  24.588  0.00  0.00     0.011 A 
HETATM   20  C   UNL     1       0.002  11.751  25.299  0.00  0.00     0.030 A 
BRANCH  18  21
HETATM   21  C   UNL     1       1.098   8.609  23.424  0.00  0.00     0.142 C 
BRANCH  21  22
HETATM   22  N   UNL     1       0.390   7.332  23.301  0.00  0.00    -0.216 NA
HETATM   23  H   UNL     1       0.469   6.893  22.382  0.00  0.00     0.139 HD
BRANCH  22  24
HETATM   24  S   UNL     1       0.683   6.197  24.508  0.00  0.00     0.205 S 
HETATM   25  O   UNL     1       1.640   6.811  25.399  0.00  0.00    -0.212 OA
HETATM   26  O   UNL     1      -0.605   5.736  24.984  0.00  0.00    -0.212 OA
HETATM   27  C   UNL     1       1.489   4.876  23.621  0.00  0.00     0.179 C 
ENDBRANCH  22  24
ENDBRANCH  21  22
ENDBRANCH  18  21
ENDBRANCH  13  15
ENDBRANCH   8  11
BRANCH   9  28
HETATM   28  O   UNL     1      -4.141  12.942  23.918  0.00  0.00    -0.360 OA
HETATM   29  H   UNL     1      -4.935  13.342  24.340  0.00  0.00     0.217 HD
ENDBRANCH   9  28
BRANCH   1  30
HETATM   30  C   UNL     1       1.143  16.833  22.715  0.00  0.00     0.100 C 
BRANCH  30  31
HETATM   31  C   UNL     1       2.026  15.727  22.199  0.00  0.00    -0.052 A 
HETATM   32  C   UNL     1       3.332  15.588  22.700  0.00  0.00     0.014 A 
HETATM   33  C   UNL     1       4.280  14.803  22.028  0.00  0.00    -0.061 A 
HETATM   34  C   UNL     1       5.725  14.835  22.434  0.00  0.00     0.048 C 
HETATM   35  C   UNL     1       3.890  14.088  20.890  0.00  0.00     0.007 A 
HETATM   36  C   UNL     1       2.575  14.158  20.430  0.00  0.00     0.001 A 
HETATM   37  C   UNL     1       1.648  14.977  21.077  0.00  0.00     0.007 A 
ENDBRANCH  30  31
ENDBRANCH   1  30
TORSDOF 8
ENDMDL
MODEL 8
REMARK VINA RESULT:    -8.448      3.582      7.927
REMARK INTER + INTRA:         -13.862
REMARK INTER:                 -12.153
REMARK INTRA:                  -1.710
REMARK UNBOUND:                -1.710
REMARK  8 active torsions:
REMARK  status: ('A' for Active; 'I' for Inactive)
REMARK    1  A    between atoms: C_7  and  C_8 
REMARK    2  A    between atoms: C_8  and  C_9 
REMARK    3  A    between atoms: C_16  and  C_20 
REMARK    4  A    between atoms: C_17  and  O_19 
REMARK       I    between atoms: C_20  and  N_22 
REMARK    5  A    between atoms: N_22  and  C_24 
REMARK    6  A    between atoms: C_27  and  C_30 
REMARK    7  A    between atoms: C_30  and  N_31 
REMARK    8  A    between atoms: N_31  and  S_32 
ROOT
HETATM    1  C   UNL     1       0.000   9.911  26.073  0.00  0.00     0.071 A 
HETATM    2  N   UNL     1       0.123   9.443  27.330  0.00  0.00    -0.178 NA
HETATM    3  N   UNL     1      -1.070   9.698  27.886  0.00  0.00    -0.277 N 
HETATM    4  H   UNL     1      -1.201   9.468  28.865  0.00  0.00     0.189 HD
HETATM    5  C   UNL     1      -1.313  10.405  25.826  0.00  0.00     0.020 A 
HETATM    6  C   UNL     1      -1.950  10.339  27.057  0.00  0.00     0.065 A 
HETATM    7  C   UNL     1      -1.998  10.986  24.736  0.00  0.00     0.035 C 
HETATM    8  C   UNL     1      -3.292  11.502  24.936  0.00  0.00     0.066 C 
HETATM    9  C   UNL     1      -3.830  11.538  26.230  0.00  0.00     0.083 C 
HETATM   10  C   UNL     1      -3.205  10.906  27.305  0.00  0.00     0.069 C 
ENDROOT
BRANCH   8  11
HETATM   11  C   UNL     1      -4.078  12.058  23.795  0.00  0.00     0.260 C 
HETATM   12  O   UNL     1      -5.057  11.389  23.452  0.00  0.00    -0.267 OA
HETATM   13  N   UNL     1      -3.734  13.293  23.206  0.00  0.00    -0.318 N 
HETATM   14  C   UNL     1      -4.714  13.925  22.325  0.00  0.00     0.159 C 
BRANCH  13  15
HETATM   15  C   UNL     1      -2.448  13.916  23.293  0.00  0.00     0.037 A 
HETATM   16  C   UNL     1      -2.162  14.832  24.311  0.00  0.00     0.030 A 
HETATM   17  C   UNL     1      -0.970  15.559  24.308  0.00  0.00     0.011 A 
HETATM   18  C   UNL     1      -0.016  15.362  23.305  0.00  0.00    -0.044 A 
HETATM   19  C   UNL     1      -0.246  14.364  22.351  0.00  0.00     0.011 A 
HETATM   20  C   UNL     1      -1.447  13.639  22.352  0.00  0.00     0.030 A 
BRANCH  18  21
HETATM   21  C   UNL     1       1.180  16.279  23.201  0.00  0.00     0.142 C 
BRANCH  21  22
HETATM   22  N   UNL     1       2.386  15.573  22.760  0.00  0.00    -0.216 NA
HETATM   23  H   UNL     1       2.271  14.564  22.657  0.00  0.00     0.139 HD
BRANCH  22  24
HETATM   24  S   UNL     1       3.167  16.204  21.410  0.00  0.00     0.205 S 
HETATM   25  O   UNL     1       2.608  17.521  21.213  0.00  0.00    -0.212 OA
HETATM   26  O   UNL     1       4.589  16.008  21.607  0.00  0.00    -0.212 OA
HETATM   27  C   UNL     1       2.605  15.138  20.094  0.00  0.00     0.179 C 
ENDBRANCH  22  24
ENDBRANCH  21  22
ENDBRANCH  18  21
ENDBRANCH  13  15
ENDBRANCH   8  11
BRANCH   9  28
HETATM   28  O   UNL     1      -4.981  12.223  26.531  0.00  0.00    -0.360 OA
HETATM   29  H   UNL     1      -5.160  12.076  27.487  0.00  0.00     0.217 HD
ENDBRANCH   9  28
BRANCH   1  30
HETATM   30  C   UNL     1       1.216  10.116  25.238  0.00  0.00     0.100 C 
BRANCH  30  31
HETATM   31  C   UNL     1       1.766   8.808  24.733  0.00  0.00    -0.052 A 
HETATM   32  C   UNL     1       0.912   7.900  24.082  0.00  0.00     0.014 A 
HETATM   33  C   UNL     1       1.290   6.563  23.895  0.00  0.00    -0.061 A 
HETATM   34  C   UNL     1       0.298   5.548  23.408  0.00  0.00     0.048 C 
HETATM   35  C   UNL     1       2.569   6.155  24.294  0.00  0.00     0.007 A 
HETATM   36  C   UNL     1       3.452   7.067  24.869  0.00  0.00     0.001 A 
HETATM   37  C   UNL     1       3.052   8.386  25.094  0.00  0.00     0.007 A 
ENDBRANCH  30  31
ENDBRANCH   1  30
TORSDOF 8
ENDMDL
MODEL 9
REMARK VINA RESULT:    -8.384      2.785      5.330
REMARK INTER + INTRA:         -13.770
REMARK INTER:                 -11.307
REMARK INTRA:                  -2.463
REMARK UNBOUND:                -1.710
REMARK  8 active torsions:
REMARK  status: ('A' for Active; 'I' for Inactive)
REMARK    1  A    between atoms: C_7  and  C_8 
REMARK    2  A    between atoms: C_8  and  C_9 
REMARK    3  A    between atoms: C_16  and  C_20 
REMARK    4  A    between atoms: C_17  and  O_19 
REMARK       I    between atoms: C_20  and  N_22 
REMARK    5  A    between atoms: N_22  and  C_24 
REMARK    6  A    between atoms: C_27  and  C_30 
REMARK    7  A    between atoms: C_30  and  N_31 
REMARK    8  A    between atoms: N_31  and  S_32 
ROOT
HETATM    1  C   UNL     1       0.985  15.483  23.250  0.00  0.00     0.071 A 
HETATM    2  N   UNL     1       2.078  16.262  23.141  0.00  0.00    -0.178 NA
HETATM    3  N   UNL     1       1.768  17.115  22.154  0.00  0.00    -0.277 N 
HETATM    4  H   UNL     1       2.472  17.782  21.859  0.00  0.00     0.189 HD
HETATM    5  C   UNL     1      -0.046  15.902  22.360  0.00  0.00     0.020 A 
HETATM    6  C   UNL     1       0.536  16.904  21.597  0.00  0.00     0.065 A 
HETATM    7  C   UNL     1      -1.360  15.487  22.051  0.00  0.00     0.035 C 
HETATM    8  C   UNL     1      -2.028  16.080  20.964  0.00  0.00     0.066 C 
HETATM    9  C   UNL     1      -1.342  16.984  20.140  0.00  0.00     0.083 C 
HETATM   10  C   UNL     1      -0.074  17.464  20.468  0.00  0.00     0.069 C 
ENDROOT
BRANCH   8  11
HETATM   11  C   UNL     1      -3.443  15.723  20.648  0.00  0.00     0.260 C 
HETATM   12  O   UNL     1      -4.199  16.679  20.455  0.00  0.00    -0.267 OA
HETATM   13  N   UNL     1      -3.845  14.376  20.531  0.00  0.00    -0.318 N 
HETATM   14  C   UNL     1      -5.142  14.102  19.916  0.00  0.00     0.159 C 
BRANCH  13  15
HETATM   15  C   UNL     1      -3.146  13.258  21.089  0.00  0.00     0.037 A 
HETATM   16  C   UNL     1      -3.574  12.668  22.284  0.00  0.00     0.030 A 
HETATM   17  C   UNL     1      -2.809  11.684  22.912  0.00  0.00     0.011 A 
HETATM   18  C   UNL     1      -1.613  11.237  22.342  0.00  0.00    -0.044 A 
HETATM   19  C   UNL     1      -1.240  11.739  21.090  0.00  0.00     0.011 A 
HETATM   20  C   UNL     1      -2.007  12.732  20.463  0.00  0.00     0.030 A 
BRANCH  18  21
HETATM   21  C   UNL     1      -0.700  10.314  23.115  0.00  0.00     0.142 C 
BRANCH  21  22
HETATM   22  N   UNL     1      -1.395   9.628  24.206  0.00  0.00    -0.216 NA
HETATM   23  H   UNL     1      -2.007   8.867  23.905  0.00  0.00     0.139 HD
BRANCH  22  24
HETATM   24  S   UNL     1      -0.443   9.123  25.498  0.00  0.00     0.205 S 
HETATM   25  O   UNL     1      -1.091   9.629  26.685  0.00  0.00    -0.212 OA
HETATM   26  O   UNL     1      -0.193   7.707  25.319  0.00  0.00    -0.212 OA
HETATM   27  C   UNL     1       1.076  10.023  25.244  0.00  0.00     0.179 C 
ENDBRANCH  22  24
ENDBRANCH  21  22
ENDBRANCH  18  21
ENDBRANCH  13  15
ENDBRANCH   8  11
BRANCH   9  28
HETATM   28  O   UNL     1      -1.854  17.428  18.946  0.00  0.00    -0.360 OA
HETATM   29  H   UNL     1      -2.090  18.375  19.069  0.00  0.00     0.217 HD
ENDBRANCH   9  28
BRANCH   1  30
HETATM   30  C   UNL     1       1.062  14.202  24.007  0.00  0.00     0.100 C 
BRANCH  30  31
HETATM   31  C   UNL     1       0.163  14.221  25.216  0.00  0.00    -0.052 A 
HETATM   32  C   UNL     1      -0.849  13.254  25.345  0.00  0.00     0.014 A 
HETATM   33  C   UNL     1      -1.896  13.427  26.261  0.00  0.00    -0.061 A 
HETATM   34  C   UNL     1      -3.089  12.515  26.240  0.00  0.00     0.048 C 
HETATM   35  C   UNL     1      -1.883  14.540  27.109  0.00  0.00     0.007 A 
HETATM   36  C   UNL     1      -0.841  15.465  27.043  0.00  0.00     0.001 A 
HETATM   37  C   UNL     1       0.175  15.310  26.097  0.00  0.00     0.007 A 
ENDBRANCH  30  31
ENDBRANCH   1  30
TORSDOF 8
ENDMDL
