REMARK  8 active torsions:
REMARK  status: ('A' for Active; 'I' for Inactive)
REMARK    1  A    between atoms: C_7  and  C_8 
REMARK    2  A    between atoms: C_8  and  C_9 
REMARK    3  A    between atoms: C_16  and  C_20 
REMARK    4  A    between atoms: C_17  and  O_19 
REMARK       I    between atoms: C_20  and  N_22 
REMARK    5  A    between atoms: N_22  and  C_24 
REMARK    6  A    between atoms: C_27  and  C_30 
REMARK    7  A    between atoms: C_30  and  N_31 
REMARK    8  A    between atoms: N_31  and  S_32 
ROOT
HETATM    1  C   UNL     1      -3.402   1.235  -0.430  0.00  0.00     0.071 A 
HETATM    2  N   UNL     1      -4.728   1.372  -0.237  0.00  0.00    -0.178 NA
HETATM    3  N   UNL     1      -4.909   2.700  -0.183  0.00  0.00    -0.277 N 
HETATM    4  H   UNL     1      -5.843   3.048   0.004  0.00  0.00     0.189 HD
HETATM    5  C   UNL     1      -2.760   2.500  -0.563  0.00  0.00     0.020 A 
HETATM    6  C   UNL     1      -3.757   3.429  -0.300  0.00  0.00     0.065 A 
HETATM    7  C   UNL     1      -1.442   2.959  -0.778  0.00  0.00     0.035 C 
HETATM    8  C   UNL     1      -1.174   4.338  -0.693  0.00  0.00     0.066 C 
HETATM    9  C   UNL     1      -2.188   5.216  -0.284  0.00  0.00     0.083 C 
HETATM   10  C   UNL     1      -3.511   4.797  -0.139  0.00  0.00     0.069 C 
ENDROOT
BRANCH   8  11
HETATM   11  C   UNL     1       0.189   4.872  -0.985  0.00  0.00     0.260 C 
HETATM   12  O   UNL     1       0.609   5.715  -0.187  0.00  0.00    -0.267 OA
HETATM   13  N   UNL     1       0.943   4.387  -2.074  0.00  0.00    -0.318 N 
HETATM   14  C   UNL     1       2.368   4.711  -2.116  0.00  0.00     0.159 C 
BRANCH  13  15
HETATM   15  C   UNL     1       0.401   3.715  -3.216  0.00  0.00     0.037 A 
HETATM   16  C   UNL     1      -0.872   4.037  -3.701  0.00  0.00     0.030 A 
HETATM   17  C   UNL     1      -1.468   3.280  -4.711  0.00  0.00     0.011 A 
HETATM   18  C   UNL     1      -0.791   2.201  -5.288  0.00  0.00    -0.044 A 
HETATM   19  C   UNL     1       0.526   1.947  -4.889  0.00  0.00     0.011 A 
HETATM   20  C   UNL     1       1.121   2.706  -3.870  0.00  0.00     0.030 A 
BRANCH  18  21
HETATM   21  C   UNL     1      -1.508   1.275  -6.242  0.00  0.00     0.142 C 
BRANCH  21  22
HETATM   22  N   UNL     1      -2.163   1.999  -7.335  0.00  0.00    -0.216 NA
HETATM   23  H   UNL     1      -1.540   2.603  -7.874  0.00  0.00     0.139 HD
BRANCH  22  24
HETATM   24  S   UNL     1      -3.115   1.080  -8.374  0.00  0.00     0.205 S 
HETATM   25  O   UNL     1      -3.503   1.972  -9.442  0.00  0.00    -0.212 OA
HETATM   26  O   UNL     1      -2.396  -0.149  -8.640  0.00  0.00    -0.212 OA
HETATM   27  C   UNL     1      -4.550   0.717  -7.378  0.00  0.00     0.179 C 
ENDBRANCH  22  24
ENDBRANCH  21  22
ENDBRANCH  18  21
ENDBRANCH  13  15
ENDBRANCH   8  11
BRANCH   9  28
HETATM   28  O   UNL     1      -1.943   6.529   0.033  0.00  0.00    -0.360 OA
HETATM   29  H   UNL     1      -0.995   6.590   0.288  0.00  0.00     0.217 HD
ENDBRANCH   9  28
BRANCH   1  30
HETATM   30  C   UNL     1      -2.756  -0.089  -0.211  0.00  0.00     0.100 C 
BRANCH  30  31
HETATM   31  C   UNL     1      -2.733  -0.907  -1.476  0.00  0.00    -0.052 A 
HETATM   32  C   UNL     1      -3.726  -1.878  -1.694  0.00  0.00     0.014 A 
HETATM   33  C   UNL     1      -3.561  -2.868  -2.673  0.00  0.00    -0.061 A 
HETATM   34  C   UNL     1      -4.508  -4.030  -2.753  0.00  0.00     0.048 C 
HETATM   35  C   UNL     1      -2.427  -2.834  -3.493  0.00  0.00     0.007 A 
HETATM   36  C   UNL     1      -1.474  -1.828  -3.336  0.00  0.00     0.001 A 
HETATM   37  C   UNL     1      -1.622  -0.872  -2.329  0.00  0.00     0.007 A 
ENDBRANCH  30  31
ENDBRANCH   1  30
TORSDOF 8
