MODEL 1
REMARK VINA RESULT:    -9.155      0.000      0.000
REMARK INTER + INTRA:         -12.863
REMARK INTER:                 -11.399
REMARK INTRA:                  -1.464
REMARK UNBOUND:                -1.300
REMARK  5 active torsions:
REMARK  status: ('A' for Active; 'I' for Inactive)
REMARK    1  A    between atoms: C_7  and  N_8 
REMARK       I    between atoms: N_8  and  C_10 
REMARK    2  A    between atoms: C_10  and  C_12 
REMARK    3  A    between atoms: C_14  and  O_15 
REMARK    4  A    between atoms: C_22  and  C_23 
REMARK    5  A    between atoms: C_23  and  C_24 
ROOT
HETATM    1  C   UNL     1      -2.849  13.395  21.670  0.00  0.00     0.066 C 
HETATM    2  C   UNL     1      -2.040  14.240  20.885  0.00  0.00     0.035 C 
HETATM    3  C   UNL     1      -4.203  13.751  21.840  0.00  0.00     0.083 C 
HETATM    4  C   UNL     1      -4.727  14.955  21.346  0.00  0.00     0.069 C 
HETATM    5  C   UNL     1      -3.826  15.836  20.738  0.00  0.00     0.065 A 
HETATM    6  C   UNL     1      -2.491  15.532  20.527  0.00  0.00     0.020 A 
HETATM    7  N   UNL     1      -3.999  17.089  20.222  0.00  0.00    -0.277 N 
HETATM    8  H   UNL     1      -4.861  17.614  20.151  0.00  0.00     0.189 HD
HETATM    9  N   UNL     1      -2.857  17.672  19.804  0.00  0.00    -0.178 NA
HETATM   10  C   UNL     1      -1.907  16.742  20.012  0.00  0.00     0.071 A 
ENDROOT
BRANCH   1  11
HETATM   11  C   UNL     1      -2.344  12.119  22.322  0.00  0.00     0.260 C 
HETATM   12  N   UNL     1      -1.442  12.159  23.442  0.00  0.00    -0.318 N 
HETATM   13  C   UNL     1      -1.026  13.418  24.044  0.00  0.00     0.159 C 
HETATM   14  O   UNL     1      -2.816  11.081  21.839  0.00  0.00    -0.267 OA
BRANCH  12  15
HETATM   15  C   UNL     1      -0.854  10.948  24.023  0.00  0.00     0.037 A 
HETATM   16  C   UNL     1       0.253  10.324  23.395  0.00  0.00     0.033 A 
HETATM   17  C   UNL     1       0.848   9.157  23.893  0.00  0.00     0.044 A 
HETATM   18  C   UNL     1       0.335   8.572  25.034  0.00  0.00     0.116 A 
HETATM   19  F   UNL     1       0.877   7.444  25.507  0.00  0.00    -0.206 F 
HETATM   20  C   UNL     1      -0.734   9.157  25.694  0.00  0.00     0.044 A 
HETATM   21  C   UNL     1      -1.318  10.334  25.197  0.00  0.00     0.033 A 
ENDBRANCH  12  15
ENDBRANCH   1  11
BRANCH   3  22
HETATM   22  O   UNL     1      -5.117  12.961  22.496  0.00  0.00    -0.360 OA
HETATM   23  H   UNL     1      -4.831  12.024  22.392  0.00  0.00     0.217 HD
ENDBRANCH   3  22
BRANCH  10  24
HETATM   24  C   UNL     1      -0.469  17.096  19.718  0.00  0.00     0.100 C 
BRANCH  24  25
HETATM   25  C   UNL     1       0.476  16.623  20.820  0.00  0.00    -0.052 A 
HETATM   26  C   UNL     1       0.454  17.138  22.127  0.00  0.00     0.007 A 
HETATM   27  C   UNL     1       1.322  16.658  23.111  0.00  0.00     0.001 A 
HETATM   28  C   UNL     1       2.299  15.720  22.793  0.00  0.00     0.007 A 
HETATM   29  C   UNL     1       2.449  15.286  21.474  0.00  0.00    -0.061 A 
HETATM   30  C   UNL     1       1.510  15.706  20.508  0.00  0.00     0.014 A 
HETATM   31  C   UNL     1       3.607  14.393  21.131  0.00  0.00     0.048 C 
ENDBRANCH  24  25
ENDBRANCH  10  24
TORSDOF 5
ENDMDL
MODEL 2
REMARK VINA RESULT:    -9.061      2.676      3.430
REMARK INTER + INTRA:         -12.744
REMARK INTER:                 -11.587
REMARK INTRA:                  -1.157
REMARK UNBOUND:                -1.300
REMARK  5 active torsions:
REMARK  status: ('A' for Active; 'I' for Inactive)
REMARK    1  A    between atoms: C_7  and  N_8 
REMARK       I    between atoms: N_8  and  C_10 
REMARK    2  A    between atoms: C_10  and  C_12 
REMARK    3  A    between atoms: C_14  and  O_15 
REMARK    4  A    between atoms: C_22  and  C_23 
REMARK    5  A    between atoms: C_23  and  C_24 
ROOT
HETATM    1  C   UNL     1      -3.015  14.767  22.142  0.00  0.00     0.066 C 
HETATM    2  C   UNL     1      -1.709  15.269  22.312  0.00  0.00     0.035 C 
HETATM    3  C   UNL     1      -3.685  15.070  20.940  0.00  0.00     0.083 C 
HETATM    4  C   UNL     1      -3.137  15.928  19.973  0.00  0.00     0.069 C 
HETATM    5  C   UNL     1      -1.919  16.540  20.288  0.00  0.00     0.065 A 
HETATM    6  C   UNL     1      -1.207  16.266  21.445  0.00  0.00     0.020 A 
HETATM    7  N   UNL     1      -1.168  17.455  19.607  0.00  0.00    -0.277 N 
HETATM    8  H   UNL     1      -1.351  17.846  18.692  0.00  0.00     0.189 HD
HETATM    9  N   UNL     1      -0.087  17.892  20.286  0.00  0.00    -0.178 NA
HETATM   10  C   UNL     1      -0.108  17.195  21.437  0.00  0.00     0.071 A 
ENDROOT
BRANCH   1  11
HETATM   11  C   UNL     1      -3.724  13.908  23.176  0.00  0.00     0.260 C 
HETATM   12  N   UNL     1      -3.398  12.517  23.342  0.00  0.00    -0.318 N 
HETATM   13  C   UNL     1      -2.331  11.886  22.579  0.00  0.00     0.159 C 
HETATM   14  O   UNL     1      -4.544  14.524  23.870  0.00  0.00    -0.267 OA
BRANCH  12  15
HETATM   15  C   UNL     1      -4.138  11.639  24.254  0.00  0.00     0.037 A 
HETATM   16  C   UNL     1      -5.175  10.810  23.757  0.00  0.00     0.033 A 
HETATM   17  C   UNL     1      -5.927   9.962  24.581  0.00  0.00     0.044 A 
HETATM   18  C   UNL     1      -5.667   9.934  25.937  0.00  0.00     0.116 A 
HETATM   19  F   UNL     1      -6.394   9.147  26.739  0.00  0.00    -0.206 F 
HETATM   20  C   UNL     1      -4.650  10.712  26.466  0.00  0.00     0.044 A 
HETATM   21  C   UNL     1      -3.890  11.550  25.632  0.00  0.00     0.033 A 
ENDBRANCH  12  15
ENDBRANCH   1  11
BRANCH   3  22
HETATM   22  O   UNL     1      -4.918  14.559  20.610  0.00  0.00    -0.360 OA
HETATM   23  H   UNL     1      -5.577  14.945  21.233  0.00  0.00     0.217 HD
ENDBRANCH   3  22
BRANCH  10  24
HETATM   24  C   UNL     1       0.939  17.493  22.484  0.00  0.00     0.100 C 
BRANCH  24  25
HETATM   25  C   UNL     1       1.879  16.310  22.709  0.00  0.00    -0.052 A 
HETATM   26  C   UNL     1       1.670  15.339  23.702  0.00  0.00     0.007 A 
HETATM   27  C   UNL     1       2.543  14.260  23.856  0.00  0.00     0.001 A 
HETATM   28  C   UNL     1       3.700  14.173  23.087  0.00  0.00     0.007 A 
HETATM   29  C   UNL     1       4.019  15.191  22.186  0.00  0.00    -0.061 A 
HETATM   30  C   UNL     1       3.086  16.228  21.972  0.00  0.00     0.014 A 
HETATM   31  C   UNL     1       5.346  15.149  21.484  0.00  0.00     0.048 C 
ENDBRANCH  24  25
ENDBRANCH  10  24
TORSDOF 5
ENDMDL
MODEL 3
REMARK VINA RESULT:    -8.886      3.381      6.925
REMARK INTER + INTRA:         -12.523
REMARK INTER:                 -11.370
REMARK INTRA:                  -1.153
REMARK UNBOUND:                -1.300
REMARK  5 active torsions:
REMARK  status: ('A' for Active; 'I' for Inactive)
REMARK    1  A    between atoms: C_7  and  N_8 
REMARK       I    between atoms: N_8  and  C_10 
REMARK    2  A    between atoms: C_10  and  C_12 
REMARK    3  A    between atoms: C_14  and  O_15 
REMARK    4  A    between atoms: C_22  and  C_23 
REMARK    5  A    between atoms: C_23  and  C_24 
ROOT
HETATM    1  C   UNL     1      -1.414  14.457  23.927  0.00  0.00     0.066 C 
HETATM    2  C   UNL     1      -1.561  13.866  25.198  0.00  0.00     0.035 C 
HETATM    3  C   UNL     1      -2.571  14.622  23.140  0.00  0.00     0.083 C 
HETATM    4  C   UNL     1      -3.823  14.128  23.538  0.00  0.00     0.069 C 
HETATM    5  C   UNL     1      -3.864  13.388  24.723  0.00  0.00     0.065 A 
HETATM    6  C   UNL     1      -2.763  13.209  25.547  0.00  0.00     0.020 A 
HETATM    7  N   UNL     1      -4.889  12.730  25.341  0.00  0.00    -0.277 N 
HETATM    8  H   UNL     1      -5.859  12.690  25.055  0.00  0.00     0.189 HD
HETATM    9  N   UNL     1      -4.515  12.034  26.434  0.00  0.00    -0.178 NA
HETATM   10  C   UNL     1      -3.201  12.288  26.562  0.00  0.00     0.071 A 
ENDROOT
BRANCH   1  11
HETATM   11  C   UNL     1      -0.082  14.937  23.374  0.00  0.00     0.260 C 
HETATM   12  N   UNL     1       0.854  14.021  22.779  0.00  0.00    -0.318 N 
HETATM   13  C   UNL     1       0.542  12.608  22.617  0.00  0.00     0.159 C 
HETATM   14  O   UNL     1       0.082  16.163  23.440  0.00  0.00    -0.267 OA
BRANCH  12  15
HETATM   15  C   UNL     1       2.189  14.436  22.336  0.00  0.00     0.037 A 
HETATM   16  C   UNL     1       2.380  14.923  21.019  0.00  0.00     0.033 A 
HETATM   17  C   UNL     1       3.633  15.320  20.533  0.00  0.00     0.044 A 
HETATM   18  C   UNL     1       4.738  15.224  21.356  0.00  0.00     0.116 A 
HETATM   19  F   UNL     1       5.944  15.577  20.898  0.00  0.00    -0.206 F 
HETATM   20  C   UNL     1       4.596  14.773  22.659  0.00  0.00     0.044 A 
HETATM   21  C   UNL     1       3.335  14.389  23.145  0.00  0.00     0.033 A 
ENDBRANCH  12  15
ENDBRANCH   1  11
BRANCH   3  22
HETATM   22  O   UNL     1      -2.578  15.275  21.929  0.00  0.00    -0.360 OA
HETATM   23  H   UNL     1      -2.966  16.169  22.074  0.00  0.00     0.217 HD
ENDBRANCH   3  22
BRANCH  10  24
HETATM   24  C   UNL     1      -2.432  11.596  27.663  0.00  0.00     0.100 C 
BRANCH  24  25
HETATM   25  C   UNL     1      -1.667  10.377  27.150  0.00  0.00    -0.052 A 
HETATM   26  C   UNL     1      -1.193   9.356  27.991  0.00  0.00     0.007 A 
HETATM   27  C   UNL     1      -0.519   8.247  27.475  0.00  0.00     0.001 A 
HETATM   28  C   UNL     1      -0.216   8.174  26.119  0.00  0.00     0.007 A 
HETATM   29  C   UNL     1      -0.544   9.232  25.270  0.00  0.00    -0.061 A 
HETATM   30  C   UNL     1      -1.305  10.305  25.782  0.00  0.00     0.014 A 
HETATM   31  C   UNL     1      -0.069   9.195  23.845  0.00  0.00     0.048 C 
ENDBRANCH  24  25
ENDBRANCH  10  24
TORSDOF 5
ENDMDL
MODEL 4
REMARK VINA RESULT:    -8.796      3.264      6.108
REMARK INTER + INTRA:         -12.410
REMARK INTER:                 -11.066
REMARK INTRA:                  -1.344
REMARK UNBOUND:                -1.300
REMARK  5 active torsions:
REMARK  status: ('A' for Active; 'I' for Inactive)
REMARK    1  A    between atoms: C_7  and  N_8 
REMARK       I    between atoms: N_8  and  C_10 
REMARK    2  A    between atoms: C_10  and  C_12 
REMARK    3  A    between atoms: C_14  and  O_15 
REMARK    4  A    between atoms: C_22  and  C_23 
REMARK    5  A    between atoms: C_23  and  C_24 
ROOT
HETATM    1  C   UNL     1      -0.207  16.479  21.247  0.00  0.00     0.066 C 
HETATM    2  C   UNL     1      -1.202  15.886  22.049  0.00  0.00     0.035 C 
HETATM    3  C   UNL     1      -0.621  17.185  20.099  0.00  0.00     0.083 C 
HETATM    4  C   UNL     1      -1.962  17.221  19.686  0.00  0.00     0.069 C 
HETATM    5  C   UNL     1      -2.872  16.456  20.423  0.00  0.00     0.065 A 
HETATM    6  C   UNL     1      -2.527  15.759  21.570  0.00  0.00     0.020 A 
HETATM    7  N   UNL     1      -4.208  16.230  20.250  0.00  0.00    -0.277 N 
HETATM    8  H   UNL     1      -4.815  16.624  19.543  0.00  0.00     0.189 HD
HETATM    9  N   UNL     1      -4.731  15.342  21.120  0.00  0.00    -0.178 NA
HETATM   10  C   UNL     1      -3.704  15.012  21.924  0.00  0.00     0.071 A 
ENDROOT
BRANCH   1  11
HETATM   11  C   UNL     1       1.277  16.412  21.565  0.00  0.00     0.260 C 
HETATM   12  N   UNL     1       2.041  15.218  21.315  0.00  0.00    -0.318 N 
HETATM   13  C   UNL     1       1.446  14.048  20.686  0.00  0.00     0.159 C 
HETATM   14  O   UNL     1       1.753  17.471  21.996  0.00  0.00    -0.267 OA
BRANCH  12  15
HETATM   15  C   UNL     1       3.447  15.087  21.710  0.00  0.00     0.037 A 
HETATM   16  C   UNL     1       3.781  14.614  23.004  0.00  0.00     0.033 A 
HETATM   17  C   UNL     1       5.104  14.482  23.444  0.00  0.00     0.044 A 
HETATM   18  C   UNL     1       6.136  14.837  22.598  0.00  0.00     0.116 A 
HETATM   19  F   UNL     1       7.403  14.739  23.014  0.00  0.00    -0.206 F 
HETATM   20  C   UNL     1       5.860  15.286  21.316  0.00  0.00     0.044 A 
HETATM   21  C   UNL     1       4.530  15.404  20.876  0.00  0.00     0.033 A 
ENDBRANCH  12  15
ENDBRANCH   1  11
BRANCH   3  22
HETATM   22  O   UNL     1       0.240  17.891  19.293  0.00  0.00    -0.360 OA
HETATM   23  H   UNL     1       0.064  18.850  19.437  0.00  0.00     0.217 HD
ENDBRANCH   3  22
BRANCH  10  24
HETATM   24  C   UNL     1      -3.924  13.963  22.988  0.00  0.00     0.100 C 
BRANCH  24  25
HETATM   25  C   UNL     1      -2.933  12.807  22.867  0.00  0.00    -0.052 A 
HETATM   26  C   UNL     1      -2.462  12.322  21.636  0.00  0.00     0.007 A 
HETATM   27  C   UNL     1      -1.536  11.277  21.574  0.00  0.00     0.001 A 
HETATM   28  C   UNL     1      -1.129  10.626  22.734  0.00  0.00     0.007 A 
HETATM   29  C   UNL     1      -1.680  10.982  23.967  0.00  0.00    -0.061 A 
HETATM   30  C   UNL     1      -2.543  12.097  24.030  0.00  0.00     0.014 A 
HETATM   31  C   UNL     1      -1.340  10.163  25.179  0.00  0.00     0.048 C 
ENDBRANCH  24  25
ENDBRANCH  10  24
TORSDOF 5
ENDMDL
MODEL 5
REMARK VINA RESULT:    -8.548      2.750      4.600
REMARK INTER + INTRA:         -12.097
REMARK INTER:                 -11.062
REMARK INTRA:                  -1.035
REMARK UNBOUND:                -1.300
REMARK  5 active torsions:
REMARK  status: ('A' for Active; 'I' for Inactive)
REMARK    1  A    between atoms: C_7  and  N_8 
REMARK       I    between atoms: N_8  and  C_10 
REMARK    2  A    between atoms: C_10  and  C_12 
REMARK    3  A    between atoms: C_14  and  O_15 
REMARK    4  A    between atoms: C_22  and  C_23 
REMARK    5  A    between atoms: C_23  and  C_24 
ROOT
HETATM    1  C   UNL     1      -1.813  10.699  24.862  0.00  0.00     0.066 C 
HETATM    2  C   UNL     1      -2.335  11.135  23.628  0.00  0.00     0.035 C 
HETATM    3  C   UNL     1      -2.391  11.215  26.040  0.00  0.00     0.083 C 
HETATM    4  C   UNL     1      -3.381  12.209  26.014  0.00  0.00     0.069 C 
HETATM    5  C   UNL     1      -3.720  12.732  24.762  0.00  0.00     0.065 A 
HETATM    6  C   UNL     1      -3.200  12.252  23.570  0.00  0.00     0.020 A 
HETATM    7  N   UNL     1      -4.580  13.731  24.405  0.00  0.00    -0.277 N 
HETATM    8  H   UNL     1      -5.182  14.274  25.011  0.00  0.00     0.189 HD
HETATM    9  N   UNL     1      -4.567  14.022  23.088  0.00  0.00    -0.178 NA
HETATM   10  C   UNL     1      -3.697  13.144  22.557  0.00  0.00     0.071 A 
ENDROOT
BRANCH   1  11
HETATM   11  C   UNL     1      -0.678   9.696  24.986  0.00  0.00     0.260 C 
HETATM   12  N   UNL     1       0.692  10.089  24.789  0.00  0.00    -0.318 N 
HETATM   13  C   UNL     1       1.060  11.474  24.531  0.00  0.00     0.159 C 
HETATM   14  O   UNL     1      -1.041   8.558  25.315  0.00  0.00    -0.267 OA
BRANCH  12  15
HETATM   15  C   UNL     1       1.796   9.124  24.796  0.00  0.00     0.037 A 
HETATM   16  C   UNL     1       2.722   9.111  25.868  0.00  0.00     0.033 A 
HETATM   17  C   UNL     1       3.805   8.225  25.923  0.00  0.00     0.044 A 
HETATM   18  C   UNL     1       3.999   7.330  24.889  0.00  0.00     0.116 A 
HETATM   19  F   UNL     1       5.043   6.494  24.917  0.00  0.00    -0.206 F 
HETATM   20  C   UNL     1       3.108   7.292  23.828  0.00  0.00     0.044 A 
HETATM   21  C   UNL     1       2.016   8.175  23.785  0.00  0.00     0.033 A 
ENDBRANCH  12  15
ENDBRANCH   1  11
BRANCH   3  22
HETATM   22  O   UNL     1      -2.042  10.795  27.302  0.00  0.00    -0.360 OA
HETATM   23  H   UNL     1      -1.059  10.813  27.361  0.00  0.00     0.217 HD
ENDBRANCH   3  22
BRANCH  10  24
HETATM   24  C   UNL     1      -3.380  13.238  21.083  0.00  0.00     0.100 C 
BRANCH  24  25
HETATM   25  C   UNL     1      -3.056  14.667  20.655  0.00  0.00    -0.052 A 
HETATM   26  C   UNL     1      -3.862  15.410  19.776  0.00  0.00     0.007 A 
HETATM   27  C   UNL     1      -3.539  16.724  19.431  0.00  0.00     0.001 A 
HETATM   28  C   UNL     1      -2.354  17.300  19.878  0.00  0.00     0.007 A 
HETATM   29  C   UNL     1      -1.455  16.550  20.638  0.00  0.00    -0.061 A 
HETATM   30  C   UNL     1      -1.831  15.256  21.058  0.00  0.00     0.014 A 
HETATM   31  C   UNL     1      -0.117  17.144  20.976  0.00  0.00     0.048 C 
ENDBRANCH  24  25
ENDBRANCH  10  24
TORSDOF 5
ENDMDL
MODEL 6
REMARK VINA RESULT:    -8.546      3.519      6.418
REMARK INTER + INTRA:         -12.094
REMARK INTER:                 -11.525
REMARK INTRA:                  -0.569
REMARK UNBOUND:                -1.300
REMARK  5 active torsions:
REMARK  status: ('A' for Active; 'I' for Inactive)
REMARK    1  A    between atoms: C_7  and  N_8 
REMARK       I    between atoms: N_8  and  C_10 
REMARK    2  A    between atoms: C_10  and  C_12 
REMARK    3  A    between atoms: C_14  and  O_15 
REMARK    4  A    between atoms: C_22  and  C_23 
REMARK    5  A    between atoms: C_23  and  C_24 
ROOT
HETATM    1  C   UNL     1       0.060  12.335  23.400  0.00  0.00     0.066 C 
HETATM    2  C   UNL     1      -1.160  12.940  23.036  0.00  0.00     0.035 C 
HETATM    3  C   UNL     1       0.033  10.980  23.787  0.00  0.00     0.083 C 
HETATM    4  C   UNL     1      -1.166  10.263  23.918  0.00  0.00     0.069 C 
HETATM    5  C   UNL     1      -2.354  10.975  23.723  0.00  0.00     0.065 A 
HETATM    6  C   UNL     1      -2.389  12.302  23.324  0.00  0.00     0.020 A 
HETATM    7  N   UNL     1      -3.661  10.597  23.837  0.00  0.00    -0.277 N 
HETATM    8  H   UNL     1      -4.021   9.678  24.058  0.00  0.00     0.189 HD
HETATM    9  N   UNL     1      -4.541  11.604  23.664  0.00  0.00    -0.178 NA
HETATM   10  C   UNL     1      -3.777  12.674  23.378  0.00  0.00     0.071 A 
ENDROOT
BRANCH   1  11
HETATM   11  C   UNL     1       1.395  13.061  23.379  0.00  0.00     0.260 C 
HETATM   12  N   UNL     1       1.886  13.687  22.180  0.00  0.00    -0.318 N 
HETATM   13  C   UNL     1       1.100  13.714  20.955  0.00  0.00     0.159 C 
HETATM   14  O   UNL     1       1.969  13.101  24.476  0.00  0.00    -0.267 OA
BRANCH  12  15
HETATM   15  C   UNL     1       3.216  14.301  22.100  0.00  0.00     0.037 A 
HETATM   16  C   UNL     1       3.646  14.910  20.896  0.00  0.00     0.033 A 
HETATM   17  C   UNL     1       4.910  15.498  20.753  0.00  0.00     0.044 A 
HETATM   18  C   UNL     1       5.788  15.477  21.819  0.00  0.00     0.116 A 
HETATM   19  F   UNL     1       7.007  16.013  21.690  0.00  0.00    -0.206 F 
HETATM   20  C   UNL     1       5.404  14.910  23.024  0.00  0.00     0.044 A 
HETATM   21  C   UNL     1       4.130  14.334  23.164  0.00  0.00     0.033 A 
ENDBRANCH  12  15
ENDBRANCH   1  11
BRANCH   3  22
HETATM   22  O   UNL     1       1.164  10.250  24.066  0.00  0.00    -0.360 OA
HETATM   23  H   UNL     1       1.930  10.718  23.659  0.00  0.00     0.217 HD
ENDBRANCH   3  22
BRANCH  10  24
HETATM   24  C   UNL     1      -4.447  14.016  23.195  0.00  0.00     0.100 C 
BRANCH  24  25
HETATM   25  C   UNL     1      -4.241  14.573  21.788  0.00  0.00    -0.052 A 
HETATM   26  C   UNL     1      -4.881  14.050  20.652  0.00  0.00     0.007 A 
HETATM   27  C   UNL     1      -4.681  14.607  19.387  0.00  0.00     0.001 A 
HETATM   28  C   UNL     1      -3.765  15.640  19.207  0.00  0.00     0.007 A 
HETATM   29  C   UNL     1      -3.004  16.095  20.285  0.00  0.00    -0.061 A 
HETATM   30  C   UNL     1      -3.278  15.590  21.574  0.00  0.00     0.014 A 
HETATM   31  C   UNL     1      -1.916  17.100  20.033  0.00  0.00     0.048 C 
ENDBRANCH  24  25
ENDBRANCH  10  24
TORSDOF 5
ENDMDL
MODEL 7
REMARK VINA RESULT:    -8.522      1.401      2.038
REMARK INTER + INTRA:         -12.064
REMARK INTER:                 -10.918
REMARK INTRA:                  -1.146
REMARK UNBOUND:                -1.300
REMARK  5 active torsions:
REMARK  status: ('A' for Active; 'I' for Inactive)
REMARK    1  A    between atoms: C_7  and  N_8 
REMARK       I    between atoms: N_8  and  C_10 
REMARK    2  A    between atoms: C_10  and  C_12 
REMARK    3  A    between atoms: C_14  and  O_15 
REMARK    4  A    between atoms: C_22  and  C_23 
REMARK    5  A    between atoms: C_23  and  C_24 
ROOT
HETATM    1  C   UNL     1      -2.884  13.746  22.072  0.00  0.00     0.066 C 
HETATM    2  C   UNL     1      -1.814  14.469  21.507  0.00  0.00     0.035 C 
HETATM    3  C   UNL     1      -4.193  14.091  21.677  0.00  0.00     0.083 C 
HETATM    4  C   UNL     1      -4.457  15.182  20.835  0.00  0.00     0.069 C 
HETATM    5  C   UNL     1      -3.365  15.972  20.461  0.00  0.00     0.065 A 
HETATM    6  C   UNL     1      -2.055  15.671  20.803  0.00  0.00     0.020 A 
HETATM    7  N   UNL     1      -3.291  17.116  19.718  0.00  0.00    -0.277 N 
HETATM    8  H   UNL     1      -4.048  17.600  19.253  0.00  0.00     0.189 HD
HETATM    9  N   UNL     1      -2.055  17.650  19.655  0.00  0.00    -0.178 NA
HETATM   10  C   UNL     1      -1.281  16.793  20.344  0.00  0.00     0.071 A 
ENDROOT
BRANCH   1  11
HETATM   11  C   UNL     1      -2.698  12.610  23.064  0.00  0.00     0.260 C 
HETATM   12  N   UNL     1      -2.403  12.868  24.448  0.00  0.00    -0.318 N 
HETATM   13  C   UNL     1      -2.338  14.223  24.976  0.00  0.00     0.159 C 
HETATM   14  O   UNL     1      -2.873  11.482  22.582  0.00  0.00    -0.267 OA
BRANCH  12  15
HETATM   15  C   UNL     1      -2.112  11.794  25.404  0.00  0.00     0.037 A 
HETATM   16  C   UNL     1      -0.931  11.024  25.269  0.00  0.00     0.033 A 
HETATM   17  C   UNL     1      -0.606   9.976  26.141  0.00  0.00     0.044 A 
HETATM   18  C   UNL     1      -1.472   9.661  27.170  0.00  0.00     0.116 A 
HETATM   19  F   UNL     1      -1.186   8.647  27.995  0.00  0.00    -0.206 F 
HETATM   20  C   UNL     1      -2.630  10.399  27.353  0.00  0.00     0.044 A 
HETATM   21  C   UNL     1      -2.943  11.457  26.484  0.00  0.00     0.033 A 
ENDBRANCH  12  15
ENDBRANCH   1  11
BRANCH   3  22
HETATM   22  O   UNL     1      -5.311  13.398  22.075  0.00  0.00    -0.360 OA
HETATM   23  H   UNL     1      -5.506  12.723  21.384  0.00  0.00     0.217 HD
ENDBRANCH   3  22
BRANCH  10  24
HETATM   24  C   UNL     1       0.179  17.129  20.539  0.00  0.00     0.100 C 
BRANCH  24  25
HETATM   25  C   UNL     1       0.882  16.128  21.454  0.00  0.00    -0.052 A 
HETATM   26  C   UNL     1       1.582  15.008  20.976  0.00  0.00     0.007 A 
HETATM   27  C   UNL     1       2.230  14.131  21.849  0.00  0.00     0.001 A 
HETATM   28  C   UNL     1       2.117  14.295  23.226  0.00  0.00     0.007 A 
HETATM   29  C   UNL     1       1.315  15.312  23.746  0.00  0.00    -0.061 A 
HETATM   30  C   UNL     1       0.739  16.247  22.859  0.00  0.00     0.014 A 
HETATM   31  C   UNL     1       1.087  15.371  25.230  0.00  0.00     0.048 C 
ENDBRANCH  24  25
ENDBRANCH  10  24
TORSDOF 5
ENDMDL
MODEL 8
REMARK VINA RESULT:    -8.489      2.960      4.914
REMARK INTER + INTRA:         -12.022
REMARK INTER:                 -11.269
REMARK INTRA:                  -0.754
REMARK UNBOUND:                -1.300
REMARK  5 active torsions:
REMARK  status: ('A' for Active; 'I' for Inactive)
REMARK    1  A    between atoms: C_7  and  N_8 
REMARK       I    between atoms: N_8  and  C_10 
REMARK    2  A    between atoms: C_10  and  C_12 
REMARK    3  A    between atoms: C_14  and  O_15 
REMARK    4  A    between atoms: C_22  and  C_23 
REMARK    5  A    between atoms: C_23  and  C_24 
ROOT
HETATM    1  C   UNL     1      -0.057  15.491  23.799  0.00  0.00     0.066 C 
HETATM    2  C   UNL     1      -0.472  16.300  22.721  0.00  0.00     0.035 C 
HETATM    3  C   UNL     1       1.324  15.418  24.073  0.00  0.00     0.083 C 
HETATM    4  C   UNL     1       2.283  16.033  23.254  0.00  0.00     0.069 C 
HETATM    5  C   UNL     1       1.816  16.663  22.095  0.00  0.00     0.065 A 
HETATM    6  C   UNL     1       0.471  16.782  21.783  0.00  0.00     0.020 A 
HETATM    7  N   UNL     1       2.480  17.286  21.077  0.00  0.00    -0.277 N 
HETATM    8  H   UNL     1       3.476  17.441  20.994  0.00  0.00     0.189 HD
HETATM    9  N   UNL     1       1.682  17.690  20.068  0.00  0.00    -0.178 NA
HETATM   10  C   UNL     1       0.440  17.361  20.467  0.00  0.00     0.071 A 
ENDROOT
BRANCH   1  11
HETATM   11  C   UNL     1      -1.018  14.715  24.683  0.00  0.00     0.260 C 
HETATM   12  N   UNL     1      -1.235  13.305  24.493  0.00  0.00    -0.318 N 
HETATM   13  C   UNL     1      -0.495  12.546  23.495  0.00  0.00     0.159 C 
HETATM   14  O   UNL     1      -1.536  15.389  25.584  0.00  0.00    -0.267 OA
BRANCH  12  15
HETATM   15  C   UNL     1      -2.233  12.552  25.259  0.00  0.00     0.037 A 
HETATM   16  C   UNL     1      -3.555  12.422  24.767  0.00  0.00     0.033 A 
HETATM   17  C   UNL     1      -4.557  11.729  25.459  0.00  0.00     0.044 A 
HETATM   18  C   UNL     1      -4.261  11.157  26.681  0.00  0.00     0.116 A 
HETATM   19  F   UNL     1      -5.214  10.513  27.364  0.00  0.00    -0.206 F 
HETATM   20  C   UNL     1      -2.976  11.241  27.194  0.00  0.00     0.044 A 
HETATM   21  C   UNL     1      -1.973  11.926  26.488  0.00  0.00     0.033 A 
ENDBRANCH  12  15
ENDBRANCH   1  11
BRANCH   3  22
HETATM   22  O   UNL     1       1.846  14.749  25.155  0.00  0.00    -0.360 OA
HETATM   23  H   UNL     1       2.565  15.308  25.532  0.00  0.00     0.217 HD
ENDBRANCH   3  22
BRANCH  10  24
HETATM   24  C   UNL     1      -0.714  17.609  19.525  0.00  0.00     0.100 C 
BRANCH  24  25
HETATM   25  C   UNL     1      -1.938  16.767  19.881  0.00  0.00    -0.052 A 
HETATM   26  C   UNL     1      -3.197  17.321  20.166  0.00  0.00     0.007 A 
HETATM   27  C   UNL     1      -4.295  16.510  20.464  0.00  0.00     0.001 A 
HETATM   28  C   UNL     1      -4.143  15.132  20.580  0.00  0.00     0.007 A 
HETATM   29  C   UNL     1      -2.880  14.553  20.444  0.00  0.00    -0.061 A 
HETATM   30  C   UNL     1      -1.796  15.368  20.053  0.00  0.00     0.014 A 
HETATM   31  C   UNL     1      -2.719  13.087  20.726  0.00  0.00     0.048 C 
ENDBRANCH  24  25
ENDBRANCH  10  24
TORSDOF 5
ENDMDL
MODEL 9
REMARK VINA RESULT:    -8.297      1.522      2.244
REMARK INTER + INTRA:         -11.780
REMARK INTER:                 -10.480
REMARK INTRA:                  -1.300
REMARK UNBOUND:                -1.300
REMARK  5 active torsions:
REMARK  status: ('A' for Active; 'I' for Inactive)
REMARK    1  A    between atoms: C_7  and  N_8 
REMARK       I    between atoms: N_8  and  C_10 
REMARK    2  A    between atoms: C_10  and  C_12 
REMARK    3  A    between atoms: C_14  and  O_15 
REMARK    4  A    between atoms: C_22  and  C_23 
REMARK    5  A    between atoms: C_23  and  C_24 
ROOT
HETATM    1  C   UNL     1      -1.102  12.544  22.082  0.00  0.00     0.066 C 
HETATM    2  C   UNL     1      -0.475  13.789  21.873  0.00  0.00     0.035 C 
HETATM    3  C   UNL     1      -2.364  12.336  21.491  0.00  0.00     0.083 C 
HETATM    4  C   UNL     1      -3.045  13.352  20.802  0.00  0.00     0.069 C 
HETATM    5  C   UNL     1      -2.450  14.617  20.792  0.00  0.00     0.065 A 
HETATM    6  C   UNL     1      -1.203  14.877  21.340  0.00  0.00     0.020 A 
HETATM    7  N   UNL     1      -2.874  15.809  20.277  0.00  0.00    -0.277 N 
HETATM    8  H   UNL     1      -3.720  15.989  19.753  0.00  0.00     0.189 HD
HETATM    9  N   UNL     1      -2.060  16.848  20.555  0.00  0.00    -0.178 NA
HETATM   10  C   UNL     1      -1.038  16.302  21.238  0.00  0.00     0.071 A 
ENDROOT
BRANCH   1  11
HETATM   11  C   UNL     1      -0.482  11.418  22.893  0.00  0.00     0.260 C 
HETATM   12  N   UNL     1      -0.610  11.370  24.325  0.00  0.00    -0.318 N 
HETATM   13  C   UNL     1      -1.393  12.356  25.055  0.00  0.00     0.159 C 
HETATM   14  O   UNL     1       0.078  10.550  22.209  0.00  0.00    -0.267 OA
BRANCH  12  15
HETATM   15  C   UNL     1       0.067  10.357  25.142  0.00  0.00     0.037 A 
HETATM   16  C   UNL     1      -0.693   9.414  25.877  0.00  0.00     0.033 A 
HETATM   17  C   UNL     1      -0.105   8.434  26.687  0.00  0.00     0.044 A 
HETATM   18  C   UNL     1       1.271   8.382  26.793  0.00  0.00     0.116 A 
HETATM   19  F   UNL     1       1.845   7.467  27.582  0.00  0.00    -0.206 F 
HETATM   20  C   UNL     1       2.057   9.271  26.077  0.00  0.00     0.044 A 
HETATM   21  C   UNL     1       1.461  10.244  25.256  0.00  0.00     0.033 A 
ENDBRANCH  12  15
ENDBRANCH   1  11
BRANCH   3  22
HETATM   22  O   UNL     1      -3.032  11.134  21.534  0.00  0.00    -0.360 OA
HETATM   23  H   UNL     1      -3.435  10.985  20.647  0.00  0.00     0.217 HD
ENDBRANCH   3  22
BRANCH  10  24
HETATM   24  C   UNL     1       0.041  17.211  21.779  0.00  0.00     0.100 C 
BRANCH  24  25
HETATM   25  C   UNL     1       1.441  16.697  21.453  0.00  0.00    -0.052 A 
HETATM   26  C   UNL     1       2.012  16.777  20.172  0.00  0.00     0.007 A 
HETATM   27  C   UNL     1       3.307  16.315  19.925  0.00  0.00     0.001 A 
HETATM   28  C   UNL     1       4.031  15.675  20.927  0.00  0.00     0.007 A 
HETATM   29  C   UNL     1       3.448  15.448  22.175  0.00  0.00    -0.061 A 
HETATM   30  C   UNL     1       2.176  15.998  22.443  0.00  0.00     0.014 A 
HETATM   31  C   UNL     1       4.192  14.621  23.184  0.00  0.00     0.048 C 
ENDBRANCH  24  25
ENDBRANCH  10  24
TORSDOF 5
ENDMDL
