MODEL 1
REMARK VINA RESULT:    -9.109      0.000      0.000
REMARK INTER + INTRA:         -12.424
REMARK INTER:                 -11.370
REMARK INTRA:                  -1.054
REMARK UNBOUND:                -0.919
REMARK  5 active torsions:
REMARK  status: ('A' for Active; 'I' for Inactive)
REMARK    1  A    between atoms: C_7  and  N_8 
REMARK       I    between atoms: N_8  and  C_10 
REMARK    2  A    between atoms: C_10  and  C_12 
REMARK    3  A    between atoms: C_14  and  O_15 
REMARK    4  A    between atoms: C_22  and  C_23 
REMARK    5  A    between atoms: C_23  and  C_24 
ROOT
HETATM    1  C   UNL     1       1.631   8.289  25.822  0.00  0.00     0.066 C 
HETATM    2  C   UNL     1       0.331   8.734  25.509  0.00  0.00     0.035 C 
HETATM    3  C   UNL     1       2.037   8.339  27.171  0.00  0.00     0.083 C 
HETATM    4  C   UNL     1       1.234   8.906  28.173  0.00  0.00     0.069 C 
HETATM    5  C   UNL     1       0.035   9.497  27.764  0.00  0.00     0.065 A 
HETATM    6  C   UNL     1      -0.424   9.463  26.456  0.00  0.00     0.020 A 
HETATM    7  N   UNL     1      -0.921  10.176  28.465  0.00  0.00    -0.277 N 
HETATM    8  H   UNL     1      -0.950  10.349  29.461  0.00  0.00     0.189 HD
HETATM    9  N   UNL     1      -1.902  10.692  27.697  0.00  0.00    -0.178 NA
HETATM   10  C   UNL     1      -1.599  10.293  26.448  0.00  0.00     0.071 A 
ENDROOT
BRANCH   1  11
HETATM   11  C   UNL     1       2.604   7.747  24.788  0.00  0.00     0.260 C 
HETATM   12  N   UNL     1       3.421   8.629  23.996  0.00  0.00    -0.318 N 
HETATM   13  C   UNL     1       3.405  10.071  24.196  0.00  0.00     0.159 C 
HETATM   14  O   UNL     1       2.656   6.511  24.739  0.00  0.00    -0.267 OA
BRANCH  12  15
HETATM   15  C   UNL     1       4.288   8.142  22.919  0.00  0.00     0.037 A 
HETATM   16  C   UNL     1       4.246   8.753  21.641  0.00  0.00     0.033 A 
HETATM   17  C   UNL     1       5.038   8.323  20.569  0.00  0.00     0.044 A 
HETATM   18  C   UNL     1       5.889   7.250  20.746  0.00  0.00     0.116 A 
HETATM   19  F   UNL     1       6.633   6.813  19.723  0.00  0.00    -0.206 F 
HETATM   20  C   UNL     1       5.979   6.632  21.982  0.00  0.00     0.044 A 
HETATM   21  C   UNL     1       5.192   7.077  23.058  0.00  0.00     0.033 A 
ENDBRANCH  12  15
ENDBRANCH   1  11
BRANCH   3  22
HETATM   22  O   UNL     1       3.238   7.842  27.619  0.00  0.00    -0.360 OA
HETATM   23  H   UNL     1       3.330   6.925  27.271  0.00  0.00     0.217 HD
ENDBRANCH   3  22
BRANCH  10  24
HETATM   24  C   UNL     1      -2.465  10.765  25.305  0.00  0.00     0.100 C 
BRANCH  24  25
HETATM   25  C   UNL     1      -1.705  11.684  24.350  0.00  0.00    -0.052 A 
HETATM   26  C   UNL     1      -0.620  12.482  24.749  0.00  0.00     0.007 A 
HETATM   27  C   UNL     1       0.061  13.289  23.835  0.00  0.00     0.001 A 
HETATM   28  C   UNL     1      -0.382  13.395  22.521  0.00  0.00     0.007 A 
HETATM   29  C   UNL     1      -1.541  12.729  22.117  0.00  0.00    -0.061 A 
HETATM   30  C   UNL     1      -2.168  11.845  23.021  0.00  0.00     0.014 A 
HETATM   31  C   UNL     1      -2.082  12.984  20.739  0.00  0.00     0.048 C 
ENDBRANCH  24  25
ENDBRANCH  10  24
TORSDOF 5
ENDMDL
MODEL 2
REMARK VINA RESULT:    -8.917      1.166      1.367
REMARK INTER + INTRA:         -12.182
REMARK INTER:                 -11.115
REMARK INTRA:                  -1.067
REMARK UNBOUND:                -0.919
REMARK  5 active torsions:
REMARK  status: ('A' for Active; 'I' for Inactive)
REMARK    1  A    between atoms: C_7  and  N_8 
REMARK       I    between atoms: N_8  and  C_10 
REMARK    2  A    between atoms: C_10  and  C_12 
REMARK    3  A    between atoms: C_14  and  O_15 
REMARK    4  A    between atoms: C_22  and  C_23 
REMARK    5  A    between atoms: C_23  and  C_24 
ROOT
HETATM    1  C   UNL     1       2.206   8.699  25.226  0.00  0.00     0.066 C 
HETATM    2  C   UNL     1       0.855   9.098  25.167  0.00  0.00     0.035 C 
HETATM    3  C   UNL     1       2.677   8.151  26.437  0.00  0.00     0.083 C 
HETATM    4  C   UNL     1       1.881   8.090  27.591  0.00  0.00     0.069 C 
HETATM    5  C   UNL     1       0.612   8.674  27.516  0.00  0.00     0.065 A 
HETATM    6  C   UNL     1       0.089   9.210  26.350  0.00  0.00     0.020 A 
HETATM    7  N   UNL     1      -0.362   8.837  28.459  0.00  0.00    -0.277 N 
HETATM    8  H   UNL     1      -0.353   8.516  29.418  0.00  0.00     0.189 HD
HETATM    9  N   UNL     1      -1.426   9.547  28.031  0.00  0.00    -0.178 NA
HETATM   10  C   UNL     1      -1.156   9.816  26.741  0.00  0.00     0.071 A 
ENDROOT
BRANCH   1  11
HETATM   11  C   UNL     1       3.167   8.814  24.055  0.00  0.00     0.260 C 
HETATM   12  N   UNL     1       3.422   7.696  23.185  0.00  0.00    -0.318 N 
HETATM   13  C   UNL     1       2.723   6.429  23.345  0.00  0.00     0.159 C 
HETATM   14  O   UNL     1       3.647   9.945  23.902  0.00  0.00    -0.267 OA
BRANCH  12  15
HETATM   15  C   UNL     1       4.422   7.745  22.114  0.00  0.00     0.037 A 
HETATM   16  C   UNL     1       4.210   8.568  20.981  0.00  0.00     0.033 A 
HETATM   17  C   UNL     1       5.121   8.645  19.919  0.00  0.00     0.044 A 
HETATM   18  C   UNL     1       6.271   7.881  19.959  0.00  0.00     0.116 A 
HETATM   19  F   UNL     1       7.137   7.926  18.941  0.00  0.00    -0.206 F 
HETATM   20  C   UNL     1       6.531   7.075  21.056  0.00  0.00     0.044 A 
HETATM   21  C   UNL     1       5.620   7.013  22.124  0.00  0.00     0.033 A 
ENDBRANCH  12  15
ENDBRANCH   1  11
BRANCH   3  22
HETATM   22  O   UNL     1       3.941   7.632  26.591  0.00  0.00    -0.360 OA
HETATM   23  H   UNL     1       4.210   7.240  25.728  0.00  0.00     0.217 HD
ENDBRANCH   3  22
BRANCH  10  24
HETATM   24  C   UNL     1      -2.122  10.676  25.961  0.00  0.00     0.100 C 
BRANCH  24  25
HETATM   25  C   UNL     1      -1.403  11.629  25.009  0.00  0.00    -0.052 A 
HETATM   26  C   UNL     1      -0.428  12.548  25.430  0.00  0.00     0.007 A 
HETATM   27  C   UNL     1       0.221  13.385  24.519  0.00  0.00     0.001 A 
HETATM   28  C   UNL     1      -0.153  13.394  23.179  0.00  0.00     0.007 A 
HETATM   29  C   UNL     1      -1.214  12.598  22.743  0.00  0.00    -0.061 A 
HETATM   30  C   UNL     1      -1.802  11.691  23.651  0.00  0.00     0.014 A 
HETATM   31  C   UNL     1      -1.696  12.742  21.328  0.00  0.00     0.048 C 
ENDBRANCH  24  25
ENDBRANCH  10  24
TORSDOF 5
ENDMDL
MODEL 3
REMARK VINA RESULT:    -8.486      3.999      7.838
REMARK INTER + INTRA:         -11.637
REMARK INTER:                 -10.732
REMARK INTRA:                  -0.905
REMARK UNBOUND:                -0.919
REMARK  5 active torsions:
REMARK  status: ('A' for Active; 'I' for Inactive)
REMARK    1  A    between atoms: C_7  and  N_8 
REMARK       I    between atoms: N_8  and  C_10 
REMARK    2  A    between atoms: C_10  and  C_12 
REMARK    3  A    between atoms: C_14  and  O_15 
REMARK    4  A    between atoms: C_22  and  C_23 
REMARK    5  A    between atoms: C_23  and  C_24 
ROOT
HETATM    1  C   UNL     1       3.971   7.488  23.092  0.00  0.00     0.066 C 
HETATM    2  C   UNL     1       3.630   8.166  21.905  0.00  0.00     0.035 C 
HETATM    3  C   UNL     1       5.189   6.778  23.118  0.00  0.00     0.083 C 
HETATM    4  C   UNL     1       6.002   6.646  21.981  0.00  0.00     0.069 C 
HETATM    5  C   UNL     1       5.512   7.185  20.787  0.00  0.00     0.065 A 
HETATM    6  C   UNL     1       4.333   7.908  20.706  0.00  0.00     0.020 A 
HETATM    7  N   UNL     1       6.017   7.171  19.518  0.00  0.00    -0.277 N 
HETATM    8  H   UNL     1       6.896   6.779  19.207  0.00  0.00     0.189 HD
HETATM    9  N   UNL     1       5.199   7.719  18.596  0.00  0.00    -0.178 NA
HETATM   10  C   UNL     1       4.138   8.152  19.301  0.00  0.00     0.071 A 
ENDROOT
BRANCH   1  11
HETATM   11  C   UNL     1       3.107   7.498  24.342  0.00  0.00     0.260 C 
HETATM   12  N   UNL     1       2.737   8.731  24.985  0.00  0.00    -0.318 N 
HETATM   13  C   UNL     1       3.114  10.024  24.432  0.00  0.00     0.159 C 
HETATM   14  O   UNL     1       2.725   6.377  24.704  0.00  0.00    -0.267 OA
BRANCH  12  15
HETATM   15  C   UNL     1       1.996   8.768  26.250  0.00  0.00     0.037 A 
HETATM   16  C   UNL     1       0.611   9.065  26.253  0.00  0.00     0.033 A 
HETATM   17  C   UNL     1      -0.147   9.129  27.430  0.00  0.00     0.044 A 
HETATM   18  C   UNL     1       0.472   8.912  28.645  0.00  0.00     0.116 A 
HETATM   19  F   UNL     1      -0.234   8.994  29.778  0.00  0.00    -0.206 F 
HETATM   20  C   UNL     1       1.821   8.599  28.690  0.00  0.00     0.044 A 
HETATM   21  C   UNL     1       2.573   8.522  27.505  0.00  0.00     0.033 A 
ENDBRANCH  12  15
ENDBRANCH   1  11
BRANCH   3  22
HETATM   22  O   UNL     1       5.683   6.163  24.243  0.00  0.00    -0.360 OA
HETATM   23  H   UNL     1       6.595   6.505  24.395  0.00  0.00     0.217 HD
ENDBRANCH   3  22
BRANCH  10  24
HETATM   24  C   UNL     1       2.974   8.763  18.558  0.00  0.00     0.100 C 
BRANCH  24  25
HETATM   25  C   UNL     1       2.104   7.705  17.883  0.00  0.00    -0.052 A 
HETATM   26  C   UNL     1       1.830   7.699  16.505  0.00  0.00     0.007 A 
HETATM   27  C   UNL     1       1.048   6.696  15.926  0.00  0.00     0.001 A 
HETATM   28  C   UNL     1       0.440   5.729  16.719  0.00  0.00     0.007 A 
HETATM   29  C   UNL     1       0.570   5.781  18.109  0.00  0.00    -0.061 A 
HETATM   30  C   UNL     1       1.435   6.741  18.676  0.00  0.00     0.014 A 
HETATM   31  C   UNL     1      -0.221   4.819  18.948  0.00  0.00     0.048 C 
ENDBRANCH  24  25
ENDBRANCH  10  24
TORSDOF 5
ENDMDL
MODEL 4
REMARK VINA RESULT:    -8.350      4.568      7.978
REMARK INTER + INTRA:         -11.466
REMARK INTER:                 -10.427
REMARK INTRA:                  -1.039
REMARK UNBOUND:                -0.919
REMARK  5 active torsions:
REMARK  status: ('A' for Active; 'I' for Inactive)
REMARK    1  A    between atoms: C_7  and  N_8 
REMARK       I    between atoms: N_8  and  C_10 
REMARK    2  A    between atoms: C_10  and  C_12 
REMARK    3  A    between atoms: C_14  and  O_15 
REMARK    4  A    between atoms: C_22  and  C_23 
REMARK    5  A    between atoms: C_23  and  C_24 
ROOT
HETATM    1  C   UNL     1       4.135   6.641  22.802  0.00  0.00     0.066 C 
HETATM    2  C   UNL     1       3.671   7.477  21.767  0.00  0.00     0.035 C 
HETATM    3  C   UNL     1       5.481   6.225  22.758  0.00  0.00     0.083 C 
HETATM    4  C   UNL     1       6.323   6.530  21.678  0.00  0.00     0.069 C 
HETATM    5  C   UNL     1       5.747   7.205  20.596  0.00  0.00     0.065 A 
HETATM    6  C   UNL     1       4.436   7.654  20.591  0.00  0.00     0.020 A 
HETATM    7  N   UNL     1       6.265   7.585  19.391  0.00  0.00    -0.277 N 
HETATM    8  H   UNL     1       7.216   7.473  19.064  0.00  0.00     0.189 HD
HETATM    9  N   UNL     1       5.361   8.135  18.555  0.00  0.00    -0.178 NA
HETATM   10  C   UNL     1       4.217   8.159  19.262  0.00  0.00     0.071 A 
ENDROOT
BRANCH   1  11
HETATM   11  C   UNL     1       3.268   6.182  23.963  0.00  0.00     0.260 C 
HETATM   12  N   UNL     1       2.718   7.124  24.902  0.00  0.00    -0.318 N 
HETATM   13  C   UNL     1       2.909   8.559  24.746  0.00  0.00     0.159 C 
HETATM   14  O   UNL     1       3.049   4.964  23.982  0.00  0.00    -0.267 OA
BRANCH  12  15
HETATM   15  C   UNL     1       1.969   6.704  26.090  0.00  0.00     0.037 A 
HETATM   16  C   UNL     1       0.553   6.665  26.061  0.00  0.00     0.033 A 
HETATM   17  C   UNL     1      -0.217   6.287  27.168  0.00  0.00     0.044 A 
HETATM   18  C   UNL     1       0.416   5.950  28.348  0.00  0.00     0.116 A 
HETATM   19  F   UNL     1      -0.309   5.611  29.421  0.00  0.00    -0.206 F 
HETATM   20  C   UNL     1       1.800   5.954  28.419  0.00  0.00     0.044 A 
HETATM   21  C   UNL     1       2.567   6.321  27.301  0.00  0.00     0.033 A 
ENDBRANCH  12  15
ENDBRANCH   1  11
BRANCH   3  22
HETATM   22  O   UNL     1       6.081   5.494  23.756  0.00  0.00    -0.360 OA
HETATM   23  H   UNL     1       6.187   6.086  24.536  0.00  0.00     0.217 HD
ENDBRANCH   3  22
BRANCH  10  24
HETATM   24  C   UNL     1       2.958   8.654  18.590  0.00  0.00     0.100 C 
BRANCH  24  25
HETATM   25  C   UNL     1       2.218   7.535  17.860  0.00  0.00    -0.052 A 
HETATM   26  C   UNL     1       2.202   7.406  16.461  0.00  0.00     0.007 A 
HETATM   27  C   UNL     1       1.531   6.352  15.838  0.00  0.00     0.001 A 
HETATM   28  C   UNL     1       0.779   5.453  16.587  0.00  0.00     0.007 A 
HETATM   29  C   UNL     1       0.652   5.626  17.967  0.00  0.00    -0.061 A 
HETATM   30  C   UNL     1       1.406   6.638  18.598  0.00  0.00     0.014 A 
HETATM   31  C   UNL     1      -0.288   4.735  18.727  0.00  0.00     0.048 C 
ENDBRANCH  24  25
ENDBRANCH  10  24
TORSDOF 5
ENDMDL
MODEL 5
REMARK VINA RESULT:    -8.340      3.815      7.858
REMARK INTER + INTRA:         -11.453
REMARK INTER:                 -10.542
REMARK INTRA:                  -0.911
REMARK UNBOUND:                -0.919
REMARK  5 active torsions:
REMARK  status: ('A' for Active; 'I' for Inactive)
REMARK    1  A    between atoms: C_7  and  N_8 
REMARK       I    between atoms: N_8  and  C_10 
REMARK    2  A    between atoms: C_10  and  C_12 
REMARK    3  A    between atoms: C_14  and  O_15 
REMARK    4  A    between atoms: C_22  and  C_23 
REMARK    5  A    between atoms: C_23  and  C_24 
ROOT
HETATM    1  C   UNL     1       3.927   8.333  23.623  0.00  0.00     0.066 C 
HETATM    2  C   UNL     1       3.995   8.616  22.245  0.00  0.00     0.035 C 
HETATM    3  C   UNL     1       4.834   7.390  24.147  0.00  0.00     0.083 C 
HETATM    4  C   UNL     1       5.714   6.663  23.329  0.00  0.00     0.069 C 
HETATM    5  C   UNL     1       5.600   6.857  21.949  0.00  0.00     0.065 A 
HETATM    6  C   UNL     1       4.740   7.783  21.378  0.00  0.00     0.020 A 
HETATM    7  N   UNL     1       6.247   6.270  20.899  0.00  0.00    -0.277 N 
HETATM    8  H   UNL     1       6.988   5.581  20.938  0.00  0.00     0.189 HD
HETATM    9  N   UNL     1       5.790   6.651  19.689  0.00  0.00    -0.178 NA
HETATM   10  C   UNL     1       4.836   7.560  19.960  0.00  0.00     0.071 A 
ENDROOT
BRANCH   1  11
HETATM   11  C   UNL     1       2.944   9.002  24.570  0.00  0.00     0.260 C 
HETATM   12  N   UNL     1       1.771   8.313  25.038  0.00  0.00    -0.318 N 
HETATM   13  C   UNL     1       1.507   6.926  24.683  0.00  0.00     0.159 C 
HETATM   14  O   UNL     1       3.277  10.142  24.924  0.00  0.00    -0.267 OA
BRANCH  12  15
HETATM   15  C   UNL     1       0.751   8.968  25.863  0.00  0.00     0.037 A 
HETATM   16  C   UNL     1       0.668   8.683  27.248  0.00  0.00     0.033 A 
HETATM   17  C   UNL     1      -0.293   9.264  28.085  0.00  0.00     0.044 A 
HETATM   18  C   UNL     1      -1.214  10.143  27.548  0.00  0.00     0.116 A 
HETATM   19  F   UNL     1      -2.153  10.686  28.330  0.00  0.00    -0.206 F 
HETATM   20  C   UNL     1      -1.160  10.468  26.202  0.00  0.00     0.044 A 
HETATM   21  C   UNL     1      -0.185   9.891  25.370  0.00  0.00     0.033 A 
ENDBRANCH  12  15
ENDBRANCH   1  11
BRANCH   3  22
HETATM   22  O   UNL     1       4.939   7.102  25.488  0.00  0.00    -0.360 OA
HETATM   23  H   UNL     1       4.235   7.609  25.957  0.00  0.00     0.217 HD
ENDBRANCH   3  22
BRANCH  10  24
HETATM   24  C   UNL     1       4.050   8.151  18.814  0.00  0.00     0.100 C 
BRANCH  24  25
HETATM   25  C   UNL     1       2.767   7.370  18.536  0.00  0.00    -0.052 A 
HETATM   26  C   UNL     1       1.811   7.772  17.588  0.00  0.00     0.007 A 
HETATM   27  C   UNL     1       0.662   7.014  17.350  0.00  0.00     0.001 A 
HETATM   28  C   UNL     1       0.390   5.885  18.118  0.00  0.00     0.007 A 
HETATM   29  C   UNL     1       1.242   5.529  19.165  0.00  0.00    -0.061 A 
HETATM   30  C   UNL     1       2.445   6.247  19.338  0.00  0.00     0.014 A 
HETATM   31  C   UNL     1       0.845   4.401  20.073  0.00  0.00     0.048 C 
ENDBRANCH  24  25
ENDBRANCH  10  24
TORSDOF 5
ENDMDL
MODEL 6
REMARK VINA RESULT:    -7.876      2.608      5.432
REMARK INTER + INTRA:         -10.867
REMARK INTER:                  -9.846
REMARK INTRA:                  -1.022
REMARK UNBOUND:                -0.919
REMARK  5 active torsions:
REMARK  status: ('A' for Active; 'I' for Inactive)
REMARK    1  A    between atoms: C_7  and  N_8 
REMARK       I    between atoms: N_8  and  C_10 
REMARK    2  A    between atoms: C_10  and  C_12 
REMARK    3  A    between atoms: C_14  and  O_15 
REMARK    4  A    between atoms: C_22  and  C_23 
REMARK    5  A    between atoms: C_23  and  C_24 
ROOT
HETATM    1  C   UNL     1       1.571   9.800  25.324  0.00  0.00     0.066 C 
HETATM    2  C   UNL     1       1.499   9.232  26.611  0.00  0.00     0.035 C 
HETATM    3  C   UNL     1       0.599  10.758  24.972  0.00  0.00     0.083 C 
HETATM    4  C   UNL     1      -0.476  11.077  25.816  0.00  0.00     0.069 C 
HETATM    5  C   UNL     1      -0.593  10.341  26.999  0.00  0.00     0.065 A 
HETATM    6  C   UNL     1       0.341   9.401  27.405  0.00  0.00     0.020 A 
HETATM    7  N   UNL     1      -1.539  10.360  27.984  0.00  0.00    -0.277 N 
HETATM    8  H   UNL     1      -2.346  10.966  28.053  0.00  0.00     0.189 HD
HETATM    9  N   UNL     1      -1.361   9.421  28.934  0.00  0.00    -0.178 NA
HETATM   10  C   UNL     1      -0.224   8.794  28.581  0.00  0.00     0.071 A 
ENDROOT
BRANCH   1  11
HETATM   11  C   UNL     1       2.646   9.445  24.309  0.00  0.00     0.260 C 
HETATM   12  N   UNL     1       2.844   8.088  23.875  0.00  0.00    -0.318 N 
HETATM   13  C   UNL     1       1.985   7.006  24.332  0.00  0.00     0.159 C 
HETATM   14  O   UNL     1       3.272  10.420  23.873  0.00  0.00    -0.267 OA
BRANCH  12  15
HETATM   15  C   UNL     1       3.940   7.700  22.981  0.00  0.00     0.037 A 
HETATM   16  C   UNL     1       4.906   6.756  23.409  0.00  0.00     0.033 A 
HETATM   17  C   UNL     1       5.984   6.358  22.607  0.00  0.00     0.044 A 
HETATM   18  C   UNL     1       6.131   6.912  21.351  0.00  0.00     0.116 A 
HETATM   19  F   UNL     1       7.169   6.559  20.584  0.00  0.00    -0.206 F 
HETATM   20  C   UNL     1       5.201   7.825  20.881  0.00  0.00     0.044 A 
HETATM   21  C   UNL     1       4.114   8.210  21.685  0.00  0.00     0.033 A 
ENDBRANCH  12  15
ENDBRANCH   1  11
BRANCH   3  22
HETATM   22  O   UNL     1       0.619  11.458  23.789  0.00  0.00    -0.360 OA
HETATM   23  H   UNL     1       0.278  12.365  23.972  0.00  0.00     0.217 HD
ENDBRANCH   3  22
BRANCH  10  24
HETATM   24  C   UNL     1       0.240   7.615  29.402  0.00  0.00     0.100 C 
BRANCH  24  25
HETATM   25  C   UNL     1       0.196   6.310  28.609  0.00  0.00    -0.052 A 
HETATM   26  C   UNL     1      -0.866   5.961  27.760  0.00  0.00     0.007 A 
HETATM   27  C   UNL     1      -0.853   4.767  27.035  0.00  0.00     0.001 A 
HETATM   28  C   UNL     1       0.175   3.846  27.212  0.00  0.00     0.007 A 
HETATM   29  C   UNL     1       1.178   4.089  28.152  0.00  0.00    -0.061 A 
HETATM   30  C   UNL     1       1.206   5.336  28.811  0.00  0.00     0.014 A 
HETATM   31  C   UNL     1       2.187   3.012  28.433  0.00  0.00     0.048 C 
ENDBRANCH  24  25
ENDBRANCH  10  24
TORSDOF 5
ENDMDL
MODEL 7
REMARK VINA RESULT:    -7.850      3.086      7.326
REMARK INTER + INTRA:         -10.833
REMARK INTER:                 -10.029
REMARK INTRA:                  -0.804
REMARK UNBOUND:                -0.919
REMARK  5 active torsions:
REMARK  status: ('A' for Active; 'I' for Inactive)
REMARK    1  A    between atoms: C_7  and  N_8 
REMARK       I    between atoms: N_8  and  C_10 
REMARK    2  A    between atoms: C_10  and  C_12 
REMARK    3  A    between atoms: C_14  and  O_15 
REMARK    4  A    between atoms: C_22  and  C_23 
REMARK    5  A    between atoms: C_23  and  C_24 
ROOT
HETATM    1  C   UNL     1       2.962   8.389  25.278  0.00  0.00     0.066 C 
HETATM    2  C   UNL     1       3.579   7.619  24.272  0.00  0.00     0.035 C 
HETATM    3  C   UNL     1       3.265   8.082  26.620  0.00  0.00     0.083 C 
HETATM    4  C   UNL     1       4.066   6.985  26.974  0.00  0.00     0.069 C 
HETATM    5  C   UNL     1       4.493   6.151  25.935  0.00  0.00     0.065 A 
HETATM    6  C   UNL     1       4.242   6.413  24.598  0.00  0.00     0.020 A 
HETATM    7  N   UNL     1       5.215   4.992  25.948  0.00  0.00    -0.277 N 
HETATM    8  H   UNL     1       5.620   4.526  26.749  0.00  0.00     0.189 HD
HETATM    9  N   UNL     1       5.346   4.414  24.737  0.00  0.00    -0.178 NA
HETATM   10  C   UNL     1       4.725   5.257  23.892  0.00  0.00     0.071 A 
ENDROOT
BRANCH   1  11
HETATM   11  C   UNL     1       2.008   9.536  24.991  0.00  0.00     0.260 C 
HETATM   12  N   UNL     1       0.586   9.325  24.917  0.00  0.00    -0.318 N 
HETATM   13  C   UNL     1      -0.007   8.022  25.181  0.00  0.00     0.159 C 
HETATM   14  O   UNL     1       2.559  10.640  24.884  0.00  0.00    -0.267 OA
BRANCH  12  15
HETATM   15  C   UNL     1      -0.348  10.388  24.535  0.00  0.00     0.037 A 
HETATM   16  C   UNL     1      -1.744  10.145  24.546  0.00  0.00     0.033 A 
HETATM   17  C   UNL     1      -2.685  11.115  24.177  0.00  0.00     0.044 A 
HETATM   18  C   UNL     1      -2.247  12.360  23.771  0.00  0.00     0.116 A 
HETATM   19  F   UNL     1      -3.134  13.288  23.393  0.00  0.00    -0.206 F 
HETATM   20  C   UNL     1      -0.892  12.652  23.764  0.00  0.00     0.044 A 
HETATM   21  C   UNL     1       0.046  11.678  24.147  0.00  0.00     0.033 A 
ENDBRANCH  12  15
ENDBRANCH   1  11
BRANCH   3  22
HETATM   22  O   UNL     1       2.811   8.820  27.687  0.00  0.00    -0.360 OA
HETATM   23  H   UNL     1       2.393   9.637  27.328  0.00  0.00     0.217 HD
ENDBRANCH   3  22
BRANCH  10  24
HETATM   24  C   UNL     1       4.617   4.874  22.435  0.00  0.00     0.100 C 
BRANCH  24  25
HETATM   25  C   UNL     1       5.047   6.010  21.509  0.00  0.00    -0.052 A 
HETATM   26  C   UNL     1       6.350   6.534  21.486  0.00  0.00     0.007 A 
HETATM   27  C   UNL     1       6.704   7.558  20.605  0.00  0.00     0.001 A 
HETATM   28  C   UNL     1       5.745   8.152  19.791  0.00  0.00     0.007 A 
HETATM   29  C   UNL     1       4.409   7.758  19.883  0.00  0.00    -0.061 A 
HETATM   30  C   UNL     1       4.077   6.662  20.708  0.00  0.00     0.014 A 
HETATM   31  C   UNL     1       3.372   8.520  19.107  0.00  0.00     0.048 C 
ENDBRANCH  24  25
ENDBRANCH  10  24
TORSDOF 5
ENDMDL
MODEL 8
REMARK VINA RESULT:    -7.813      2.952      4.529
REMARK INTER + INTRA:         -10.787
REMARK INTER:                  -9.869
REMARK INTRA:                  -0.919
REMARK UNBOUND:                -0.919
REMARK  5 active torsions:
REMARK  status: ('A' for Active; 'I' for Inactive)
REMARK    1  A    between atoms: C_7  and  N_8 
REMARK       I    between atoms: N_8  and  C_10 
REMARK    2  A    between atoms: C_10  and  C_12 
REMARK    3  A    between atoms: C_14  and  O_15 
REMARK    4  A    between atoms: C_22  and  C_23 
REMARK    5  A    between atoms: C_23  and  C_24 
ROOT
HETATM    1  C   UNL     1       3.487   6.436  22.849  0.00  0.00     0.066 C 
HETATM    2  C   UNL     1       2.483   6.688  23.807  0.00  0.00     0.035 C 
HETATM    3  C   UNL     1       4.818   6.335  23.302  0.00  0.00     0.083 C 
HETATM    4  C   UNL     1       5.174   6.577  24.638  0.00  0.00     0.069 C 
HETATM    5  C   UNL     1       4.157   7.005  25.497  0.00  0.00     0.065 A 
HETATM    6  C   UNL     1       2.829   7.105  25.113  0.00  0.00     0.020 A 
HETATM    7  N   UNL     1       4.183   7.378  26.810  0.00  0.00    -0.277 N 
HETATM    8  H   UNL     1       4.978   7.377  27.437  0.00  0.00     0.189 HD
HETATM    9  N   UNL     1       3.001   7.831  27.276  0.00  0.00    -0.178 NA
HETATM   10  C   UNL     1       2.158   7.703  26.236  0.00  0.00     0.071 A 
ENDROOT
BRANCH   1  11
HETATM   11  C   UNL     1       3.205   6.253  21.367  0.00  0.00     0.260 C 
HETATM   12  N   UNL     1       3.493   7.295  20.418  0.00  0.00    -0.318 N 
HETATM   13  C   UNL     1       4.128   8.541  20.820  0.00  0.00     0.159 C 
HETATM   14  O   UNL     1       2.767   5.133  21.069  0.00  0.00    -0.267 OA
BRANCH  12  15
HETATM   15  C   UNL     1       3.133   7.189  19.000  0.00  0.00     0.037 A 
HETATM   16  C   UNL     1       2.287   8.158  18.407  0.00  0.00     0.033 A 
HETATM   17  C   UNL     1       1.896   8.102  17.063  0.00  0.00     0.044 A 
HETATM   18  C   UNL     1       2.334   7.056  16.276  0.00  0.00     0.116 A 
HETATM   19  F   UNL     1       1.949   6.977  14.997  0.00  0.00    -0.206 F 
HETATM   20  C   UNL     1       3.179   6.094  16.806  0.00  0.00     0.044 A 
HETATM   21  C   UNL     1       3.578   6.163  18.151  0.00  0.00     0.033 A 
ENDBRANCH  12  15
ENDBRANCH   1  11
BRANCH   3  22
HETATM   22  O   UNL     1       5.871   5.992  22.487  0.00  0.00    -0.360 OA
HETATM   23  H   UNL     1       5.624   6.233  21.564  0.00  0.00     0.217 HD
ENDBRANCH   3  22
BRANCH  10  24
HETATM   24  C   UNL     1       0.738   8.195  26.389  0.00  0.00     0.100 C 
BRANCH  24  25
HETATM   25  C   UNL     1       0.469   9.443  25.551  0.00  0.00    -0.052 A 
HETATM   26  C   UNL     1       1.464  10.380  25.224  0.00  0.00     0.007 A 
HETATM   27  C   UNL     1       1.177  11.495  24.434  0.00  0.00     0.001 A 
HETATM   28  C   UNL     1      -0.128  11.757  24.029  0.00  0.00     0.007 A 
HETATM   29  C   UNL     1      -1.170  10.929  24.450  0.00  0.00    -0.061 A 
HETATM   30  C   UNL     1      -0.860   9.755  25.170  0.00  0.00     0.014 A 
HETATM   31  C   UNL     1      -2.584  11.320  24.128  0.00  0.00     0.048 C 
ENDBRANCH  24  25
ENDBRANCH  10  24
TORSDOF 5
ENDMDL
MODEL 9
REMARK VINA RESULT:    -7.779      2.486      2.666
REMARK INTER + INTRA:         -10.744
REMARK INTER:                  -9.859
REMARK INTRA:                  -0.885
REMARK UNBOUND:                -0.919
REMARK  5 active torsions:
REMARK  status: ('A' for Active; 'I' for Inactive)
REMARK    1  A    between atoms: C_7  and  N_8 
REMARK       I    between atoms: N_8  and  C_10 
REMARK    2  A    between atoms: C_10  and  C_12 
REMARK    3  A    between atoms: C_14  and  O_15 
REMARK    4  A    between atoms: C_22  and  C_23 
REMARK    5  A    between atoms: C_23  and  C_24 
ROOT
HETATM    1  C   UNL     1       0.942   7.364  27.467  0.00  0.00     0.066 C 
HETATM    2  C   UNL     1      -0.131   7.969  26.782  0.00  0.00     0.035 C 
HETATM    3  C   UNL     1       1.218   7.805  28.778  0.00  0.00     0.083 C 
HETATM    4  C   UNL     1       0.533   8.880  29.365  0.00  0.00     0.069 C 
HETATM    5  C   UNL     1      -0.391   9.557  28.562  0.00  0.00     0.065 A 
HETATM    6  C   UNL     1      -0.716   9.158  27.275  0.00  0.00     0.020 A 
HETATM    7  N   UNL     1      -1.160  10.659  28.804  0.00  0.00    -0.277 N 
HETATM    8  H   UNL     1      -1.227  11.188  29.664  0.00  0.00     0.189 HD
HETATM    9  N   UNL     1      -1.865  11.082  27.736  0.00  0.00    -0.178 NA
HETATM   10  C   UNL     1      -1.582  10.189  26.770  0.00  0.00     0.071 A 
ENDROOT
BRANCH   1  11
HETATM   11  C   UNL     1       1.798   6.257  26.875  0.00  0.00     0.260 C 
HETATM   12  N   UNL     1       2.810   6.539  25.893  0.00  0.00    -0.318 N 
HETATM   13  C   UNL     1       3.107   7.901  25.472  0.00  0.00     0.159 C 
HETATM   14  O   UNL     1       1.576   5.135  27.351  0.00  0.00    -0.267 OA
BRANCH  12  15
HETATM   15  C   UNL     1       3.577   5.482  25.226  0.00  0.00     0.037 A 
HETATM   16  C   UNL     1       3.038   4.820  24.095  0.00  0.00     0.033 A 
HETATM   17  C   UNL     1       3.715   3.792  23.426  0.00  0.00     0.044 A 
HETATM   18  C   UNL     1       4.953   3.388  23.885  0.00  0.00     0.116 A 
HETATM   19  F   UNL     1       5.600   2.391  23.270  0.00  0.00    -0.206 F 
HETATM   20  C   UNL     1       5.529   4.019  24.976  0.00  0.00     0.044 A 
HETATM   21  C   UNL     1       4.851   5.059  25.635  0.00  0.00     0.033 A 
ENDBRANCH  12  15
ENDBRANCH   1  11
BRANCH   3  22
HETATM   22  O   UNL     1       2.168   7.228  29.587  0.00  0.00    -0.360 OA
HETATM   23  H   UNL     1       1.791   6.387  29.936  0.00  0.00     0.217 HD
ENDBRANCH   3  22
BRANCH  10  24
HETATM   24  C   UNL     1      -2.159  10.406  25.390  0.00  0.00     0.100 C 
BRANCH  24  25
HETATM   25  C   UNL     1      -1.392  11.470  24.608  0.00  0.00    -0.052 A 
HETATM   26  C   UNL     1      -0.450  12.329  25.198  0.00  0.00     0.007 A 
HETATM   27  C   UNL     1       0.246  13.273  24.438  0.00  0.00     0.001 A 
HETATM   28  C   UNL     1      -0.049  13.450  23.090  0.00  0.00     0.007 A 
HETATM   29  C   UNL     1      -1.077  12.715  22.497  0.00  0.00    -0.061 A 
HETATM   30  C   UNL     1      -1.711  11.701  23.247  0.00  0.00     0.014 A 
HETATM   31  C   UNL     1      -1.477  13.035  21.085  0.00  0.00     0.048 C 
ENDBRANCH  24  25
ENDBRANCH  10  24
TORSDOF 5
ENDMDL
