REMARK  5 active torsions:
REMARK  status: ('A' for Active; 'I' for Inactive)
REMARK    1  A    between atoms: C_7  and  N_8 
REMARK       I    between atoms: N_8  and  C_10 
REMARK    2  A    between atoms: C_10  and  C_12 
REMARK    3  A    between atoms: C_14  and  O_15 
REMARK    4  A    between atoms: C_22  and  C_23 
REMARK    5  A    between atoms: C_23  and  C_24 
ROOT
HETATM    1  C   UNL     1      -5.128   1.177  -0.214  0.00  0.00     0.066 C 
HETATM    2  C   UNL     1      -5.765  -0.061   0.004  0.00  0.00     0.035 C 
HETATM    3  C   UNL     1      -5.936   2.283  -0.547  0.00  0.00     0.083 C 
HETATM    4  C   UNL     1      -7.317   2.162  -0.765  0.00  0.00     0.069 C 
HETATM    5  C   UNL     1      -7.855   0.872  -0.716  0.00  0.00     0.065 A 
HETATM    6  C   UNL     1      -7.114  -0.249  -0.376  0.00  0.00     0.020 A 
HETATM    7  N   UNL     1      -9.122   0.414  -0.941  0.00  0.00    -0.277 N 
HETATM    8  H   UNL     1      -9.946   0.959  -1.159  0.00  0.00     0.189 HD
HETATM    9  N   UNL     1      -9.236  -0.929  -0.896  0.00  0.00    -0.178 NA
HETATM   10  C   UNL     1      -8.002  -1.362  -0.581  0.00  0.00     0.071 A 
ENDROOT
BRANCH   1  11
HETATM   11  C   UNL     1      -3.627   1.381  -0.092  0.00  0.00     0.260 C 
HETATM   12  N   UNL     1      -2.702   0.321  -0.394  0.00  0.00    -0.318 N 
HETATM   13  C   UNL     1      -3.155  -0.969  -0.894  0.00  0.00     0.159 C 
HETATM   14  O   UNL     1      -3.296   2.530   0.231  0.00  0.00    -0.267 OA
BRANCH  12  15
HETATM   15  C   UNL     1      -1.257   0.454  -0.183  0.00  0.00     0.037 A 
HETATM   16  C   UNL     1      -0.422  -0.689  -0.244  0.00  0.00     0.033 A 
HETATM   17  C   UNL     1       0.962  -0.628  -0.036  0.00  0.00     0.044 A 
HETATM   18  C   UNL     1       1.548   0.588   0.256  0.00  0.00     0.116 A 
HETATM   19  F   UNL     1       2.865   0.657   0.481  0.00  0.00    -0.206 F 
HETATM   20  C   UNL     1       0.775   1.737   0.307  0.00  0.00     0.044 A 
HETATM   21  C   UNL     1      -0.611   1.671   0.084  0.00  0.00     0.033 A 
ENDBRANCH  12  15
ENDBRANCH   1  11
BRANCH   3  22
HETATM   22  O   UNL     1      -5.450   3.562  -0.684  0.00  0.00    -0.360 OA
HETATM   23  H   UNL     1      -4.524   3.567  -0.347  0.00  0.00     0.217 HD
ENDBRANCH   3  22
BRANCH  10  24
HETATM   24  C   UNL     1      -7.749  -2.850  -0.519  0.00  0.00     0.100 C 
BRANCH  24  25
HETATM   25  C   UNL     1      -6.842  -3.326  -1.652  0.00  0.00    -0.052 A 
HETATM   26  C   UNL     1      -6.666  -2.612  -2.849  0.00  0.00     0.007 A 
HETATM   27  C   UNL     1      -5.807  -3.074  -3.849  0.00  0.00     0.001 A 
HETATM   28  C   UNL     1      -5.175  -4.307  -3.722  0.00  0.00     0.007 A 
HETATM   29  C   UNL     1      -5.432  -5.114  -2.612  0.00  0.00    -0.061 A 
HETATM   30  C   UNL     1      -6.228  -4.600  -1.566  0.00  0.00     0.014 A 
HETATM   31  C   UNL     1      -4.859  -6.502  -2.575  0.00  0.00     0.048 C 
ENDBRANCH  24  25
ENDBRANCH  10  24
TORSDOF 5
