MODEL 1
REMARK VINA RESULT:    -5.844      0.000      0.000
REMARK INTER + INTRA:          -8.622
REMARK INTER:                  -7.695
REMARK INTRA:                  -0.927
REMARK UNBOUND:                -1.069
REMARK  5 active torsions:
REMARK  status: ('A' for Active; 'I' for Inactive)
REMARK    1  A    between atoms: N8_1  and  C24_2 
REMARK    2  A    between atoms: N8_1  and  C7_8 
REMARK    3  A    between atoms: C2_13  and  N1_14 
REMARK    4  A    between atoms: N1_14  and  C17_15 
REMARK    5  A    between atoms: C14_16  and  C13_19 
ROOT
ATOM      1  C17 FTA A   1      10.324  17.573  19.757  1.00  0.00     0.142 C 
ATOM      2  C14 FTA A   1       9.856  18.098  20.907  1.00  0.00     0.158 C 
ATOM      3  C18 FTA A   1      10.722  18.210  22.061  1.00  0.00     0.069 C 
ATOM      4  N21 FTA A   1      11.515  18.186  22.925  1.00  0.00    -0.197 NA
ENDROOT
BRANCH   2   5
ATOM      5  C13 FTA A   1       8.455  18.573  20.974  1.00  0.00     0.197 A 
ATOM      6  N15 FTA A   1       7.815  19.380  20.036  1.00  0.00    -0.093 NA
ATOM      7  N19 FTA A   1       6.530  19.625  20.504  1.00  0.00    -0.231 N 
ATOM      8  N20 FTA A   1       6.359  18.985  21.722  1.00  0.00    -0.017 NA
ATOM      9  H15 FTA A   1       5.818  20.193  20.023  1.00  0.00     0.200 HD
ATOM     10  N16 FTA A   1       7.548  18.322  22.011  1.00  0.00    -0.090 NA
ENDBRANCH   2   5
BRANCH   1  11
ATOM     11  N1  FTA A   1       9.648  16.561  19.181  1.00  0.00    -0.389 N 
ATOM     12  H11 FTA A   1       9.543  15.690  19.722  1.00  0.00     0.159 HD
BRANCH  11  13
ATOM     13  C2  FTA A   1       9.069  16.602  17.884  1.00  0.00     0.028 A 
ATOM     14  C4  FTA A   1       7.729  16.293  17.660  1.00  0.00     0.031 A 
ATOM     15  C6  FTA A   1       7.280  16.128  16.343  1.00  0.00     0.031 A 
ATOM     16  C7  FTA A   1       8.131  16.261  15.249  1.00  0.00     0.032 A 
ATOM     17  C5  FTA A   1       9.454  16.592  15.486  1.00  0.00     0.031 A 
ATOM     18  C3  FTA A   1       9.921  16.747  16.785  1.00  0.00     0.031 A 
BRANCH  16  19
ATOM     19  N8  FTA A   1       7.754  15.896  13.931  1.00  0.00    -0.356 N 
ATOM     20  H1  FTA A   1       8.362  16.209  13.161  1.00  0.00     0.166 HD
BRANCH  19  21
ATOM     21  C24 FTA A   1       6.600  15.130  13.584  1.00  0.00     0.032 A 
ATOM     22  C26 FTA A   1       6.680  13.781  13.330  1.00  0.00     0.029 A 
ATOM     23  C28 FTA A   1       5.565  13.134  12.832  1.00  0.00     0.002 A 
ATOM     24  C30 FTA A   1       4.364  13.786  12.612  1.00  0.00     0.000 A 
ATOM     25  C29 FTA A   1       4.260  15.121  12.898  1.00  0.00     0.002 A 
ATOM     26  C27 FTA A   1       5.389  15.780  13.398  1.00  0.00     0.029 A 
ENDBRANCH  19  21
ENDBRANCH  16  19
ENDBRANCH  11  13
ENDBRANCH   1  11
TORSDOF 5
ENDMDL
MODEL 2
REMARK VINA RESULT:    -5.528      8.046     12.034
REMARK INTER + INTRA:          -8.213
REMARK INTER:                  -7.210
REMARK INTRA:                  -1.003
REMARK UNBOUND:                -1.069
REMARK  5 active torsions:
REMARK  status: ('A' for Active; 'I' for Inactive)
REMARK    1  A    between atoms: N8_1  and  C24_2 
REMARK    2  A    between atoms: N8_1  and  C7_8 
REMARK    3  A    between atoms: C2_13  and  N1_14 
REMARK    4  A    between atoms: N1_14  and  C17_15 
REMARK    5  A    between atoms: C14_16  and  C13_19 
ROOT
ATOM      1  C17 FTA A   1      -3.507  15.470  13.935  1.00  0.00     0.142 C 
ATOM      2  C14 FTA A   1      -4.673  14.801  13.837  1.00  0.00     0.158 C 
ATOM      3  C18 FTA A   1      -5.889  15.375  14.372  1.00  0.00     0.069 C 
ATOM      4  N21 FTA A   1      -6.776  15.933  14.898  1.00  0.00    -0.197 NA
ENDROOT
BRANCH   2   5
ATOM      5  C13 FTA A   1      -4.701  13.483  13.163  1.00  0.00     0.197 A 
ATOM      6  N15 FTA A   1      -3.743  12.990  12.280  1.00  0.00    -0.093 NA
ATOM      7  N19 FTA A   1      -4.176  11.744  11.846  1.00  0.00    -0.231 N 
ATOM      8  N20 FTA A   1      -5.393  11.451  12.444  1.00  0.00    -0.017 NA
ATOM      9  H15 FTA A   1      -3.673  11.133  11.186  1.00  0.00     0.200 HD
ATOM     10  N16 FTA A   1      -5.716  12.524  13.269  1.00  0.00    -0.090 NA
ENDBRANCH   2   5
BRANCH   1  11
ATOM     11  N1  FTA A   1      -2.442  14.847  14.475  1.00  0.00    -0.389 N 
ATOM     12  H11 FTA A   1      -2.565  14.408  15.399  1.00  0.00     0.159 HD
BRANCH  11  13
ATOM     13  C2  FTA A   1      -1.161  14.747  13.866  1.00  0.00     0.028 A 
ATOM     14  C4  FTA A   1      -0.055  14.245  14.546  1.00  0.00     0.031 A 
ATOM     15  C6  FTA A   1       1.217  14.387  13.975  1.00  0.00     0.031 A 
ATOM     16  C7  FTA A   1       1.411  15.018  12.748  1.00  0.00     0.032 A 
ATOM     17  C5  FTA A   1       0.299  15.490  12.074  1.00  0.00     0.031 A 
ATOM     18  C3  FTA A   1      -0.969  15.370  12.630  1.00  0.00     0.031 A 
BRANCH  16  19
ATOM     19  N8  FTA A   1       2.695  15.358  12.253  1.00  0.00    -0.356 N 
ATOM     20  H1  FTA A   1       2.749  16.124  11.565  1.00  0.00     0.166 HD
BRANCH  19  21
ATOM     21  C24 FTA A   1       3.920  14.727  12.628  1.00  0.00     0.032 A 
ATOM     22  C26 FTA A   1       4.919  15.419  13.271  1.00  0.00     0.029 A 
ATOM     23  C28 FTA A   1       6.142  14.801  13.451  1.00  0.00     0.002 A 
ATOM     24  C30 FTA A   1       6.387  13.503  13.036  1.00  0.00     0.000 A 
ATOM     25  C29 FTA A   1       5.388  12.790  12.428  1.00  0.00     0.002 A 
ATOM     26  C27 FTA A   1       4.149  13.415  12.241  1.00  0.00     0.029 A 
ENDBRANCH  19  21
ENDBRANCH  16  19
ENDBRANCH  11  13
ENDBRANCH   1  11
TORSDOF 5
ENDMDL
MODEL 3
REMARK VINA RESULT:    -5.526      2.213      8.647
REMARK INTER + INTRA:          -8.210
REMARK INTER:                  -7.291
REMARK INTRA:                  -0.919
REMARK UNBOUND:                -1.069
REMARK  5 active torsions:
REMARK  status: ('A' for Active; 'I' for Inactive)
REMARK    1  A    between atoms: N8_1  and  C24_2 
REMARK    2  A    between atoms: N8_1  and  C7_8 
REMARK    3  A    between atoms: C2_13  and  N1_14 
REMARK    4  A    between atoms: N1_14  and  C17_15 
REMARK    5  A    between atoms: C14_16  and  C13_19 
ROOT
ATOM      1  C17 FTA A   1       6.373  16.531  13.725  1.00  0.00     0.142 C 
ATOM      2  C14 FTA A   1       5.201  15.866  13.672  1.00  0.00     0.158 C 
ATOM      3  C18 FTA A   1       3.999  16.467  14.207  1.00  0.00     0.069 C 
ATOM      4  N21 FTA A   1       3.124  17.049  14.728  1.00  0.00    -0.197 NA
ENDROOT
BRANCH   2   5
ATOM      5  C13 FTA A   1       5.154  14.524  13.047  1.00  0.00     0.197 A 
ATOM      6  N15 FTA A   1       6.250  13.722  12.737  1.00  0.00    -0.093 NA
ATOM      7  N19 FTA A   1       5.767  12.573  12.125  1.00  0.00    -0.231 N 
ATOM      8  N20 FTA A   1       4.384  12.646  12.046  1.00  0.00    -0.017 NA
ATOM      9  H15 FTA A   1       6.344  11.790  11.784  1.00  0.00     0.200 HD
ATOM     10  N16 FTA A   1       4.001  13.851  12.627  1.00  0.00    -0.090 NA
ENDBRANCH   2   5
BRANCH   1  11
ATOM     11  N1  FTA A   1       7.444  15.921  14.268  1.00  0.00    -0.389 N 
ATOM     12  H11 FTA A   1       7.836  15.112  13.766  1.00  0.00     0.159 HD
BRANCH  11  13
ATOM     13  C2  FTA A   1       8.074  16.309  15.482  1.00  0.00     0.028 A 
ATOM     14  C4  FTA A   1       9.444  16.544  15.564  1.00  0.00     0.031 A 
ATOM     15  C6  FTA A   1      10.034  16.695  16.826  1.00  0.00     0.031 A 
ATOM     16  C7  FTA A   1       9.295  16.615  18.003  1.00  0.00     0.032 A 
ATOM     17  C5  FTA A   1       7.931  16.406  17.904  1.00  0.00     0.031 A 
ATOM     18  C3  FTA A   1       7.329  16.240  16.663  1.00  0.00     0.031 A 
BRANCH  16  19
ATOM     19  N8  FTA A   1       9.895  16.555  19.286  1.00  0.00    -0.356 N 
ATOM     20  H1  FTA A   1      10.081  15.620  19.678  1.00  0.00     0.166 HD
BRANCH  19  21
ATOM     21  C24 FTA A   1      10.264  17.683  20.080  1.00  0.00     0.032 A 
ATOM     22  C26 FTA A   1      11.091  18.667  19.593  1.00  0.00     0.029 A 
ATOM     23  C28 FTA A   1      11.547  19.639  20.463  1.00  0.00     0.002 A 
ATOM     24  C30 FTA A   1      11.179  19.674  21.797  1.00  0.00     0.000 A 
ATOM     25  C29 FTA A   1      10.325  18.721  22.286  1.00  0.00     0.002 A 
ATOM     26  C27 FTA A   1       9.864  17.734  21.408  1.00  0.00     0.029 A 
ENDBRANCH  19  21
ENDBRANCH  16  19
ENDBRANCH  11  13
ENDBRANCH   1  11
TORSDOF 5
ENDMDL
MODEL 4
REMARK VINA RESULT:    -5.459      2.066      8.148
REMARK INTER + INTRA:          -8.124
REMARK INTER:                  -7.127
REMARK INTRA:                  -0.998
REMARK UNBOUND:                -1.069
REMARK  5 active torsions:
REMARK  status: ('A' for Active; 'I' for Inactive)
REMARK    1  A    between atoms: N8_1  and  C24_2 
REMARK    2  A    between atoms: N8_1  and  C7_8 
REMARK    3  A    between atoms: C2_13  and  N1_14 
REMARK    4  A    between atoms: N1_14  and  C17_15 
REMARK    5  A    between atoms: C14_16  and  C13_19 
ROOT
ATOM      1  C17 FTA A   1       7.287  16.577  13.574  1.00  0.00     0.142 C 
ATOM      2  C14 FTA A   1       6.250  15.721  13.480  1.00  0.00     0.158 C 
ATOM      3  C18 FTA A   1       4.927  16.133  13.898  1.00  0.00     0.069 C 
ATOM      4  N21 FTA A   1       3.931  16.582  14.325  1.00  0.00    -0.197 NA
ENDROOT
BRANCH   2   5
ATOM      5  C13 FTA A   1       6.473  14.364  12.932  1.00  0.00     0.197 A 
ATOM      6  N15 FTA A   1       5.661  13.250  13.138  1.00  0.00    -0.093 NA
ATOM      7  N19 FTA A   1       6.254  12.176  12.488  1.00  0.00    -0.231 N 
ATOM      8  N20 FTA A   1       7.426  12.601  11.881  1.00  0.00    -0.017 NA
ATOM      9  H15 FTA A   1       5.882  11.215  12.461  1.00  0.00     0.200 HD
ATOM     10  N16 FTA A   1       7.558  13.960  12.146  1.00  0.00    -0.090 NA
ENDBRANCH   2   5
BRANCH   1  11
ATOM     11  N1  FTA A   1       8.400  16.182  14.222  1.00  0.00    -0.389 N 
ATOM     12  H11 FTA A   1       9.160  15.774  13.658  1.00  0.00     0.159 HD
BRANCH  11  13
ATOM     13  C2  FTA A   1       8.607  16.286  15.625  1.00  0.00     0.028 A 
ATOM     14  C4  FTA A   1       7.575  16.101  16.542  1.00  0.00     0.031 A 
ATOM     15  C6  FTA A   1       7.790  16.442  17.884  1.00  0.00     0.031 A 
ATOM     16  C7  FTA A   1       9.001  16.963  18.331  1.00  0.00     0.032 A 
ATOM     17  C5  FTA A   1      10.024  17.117  17.413  1.00  0.00     0.031 A 
ATOM     18  C3  FTA A   1       9.828  16.797  16.075  1.00  0.00     0.031 A 
BRANCH  16  19
ATOM     19  N8  FTA A   1       9.172  17.507  19.630  1.00  0.00    -0.356 N 
ATOM     20  H1  FTA A   1      10.025  17.243  20.144  1.00  0.00     0.166 HD
BRANCH  19  21
ATOM     21  C24 FTA A   1       8.260  18.391  20.283  1.00  0.00     0.032 A 
ATOM     22  C26 FTA A   1       7.693  18.074  21.495  1.00  0.00     0.029 A 
ATOM     23  C28 FTA A   1       6.691  18.887  21.989  1.00  0.00     0.002 A 
ATOM     24  C30 FTA A   1       6.261  20.023  21.326  1.00  0.00     0.000 A 
ATOM     25  C29 FTA A   1       6.844  20.370  20.136  1.00  0.00     0.002 A 
ATOM     26  C27 FTA A   1       7.857  19.547  19.631  1.00  0.00     0.029 A 
ENDBRANCH  19  21
ENDBRANCH  16  19
ENDBRANCH  11  13
ENDBRANCH   1  11
TORSDOF 5
ENDMDL
MODEL 5
REMARK VINA RESULT:    -5.450      1.023      2.702
REMARK INTER + INTRA:          -8.112
REMARK INTER:                  -7.307
REMARK INTRA:                  -0.805
REMARK UNBOUND:                -1.069
REMARK  5 active torsions:
REMARK  status: ('A' for Active; 'I' for Inactive)
REMARK    1  A    between atoms: N8_1  and  C24_2 
REMARK    2  A    between atoms: N8_1  and  C7_8 
REMARK    3  A    between atoms: C2_13  and  N1_14 
REMARK    4  A    between atoms: N1_14  and  C17_15 
REMARK    5  A    between atoms: C14_16  and  C13_19 
ROOT
ATOM      1  C17 FTA A   1       7.925  17.424  19.942  1.00  0.00     0.142 C 
ATOM      2  C14 FTA A   1       8.095  18.163  21.056  1.00  0.00     0.158 C 
ATOM      3  C18 FTA A   1       6.977  18.875  21.635  1.00  0.00     0.069 C 
ATOM      4  N21 FTA A   1       6.001  19.440  21.957  1.00  0.00    -0.197 NA
ENDROOT
BRANCH   2   5
ATOM      5  C13 FTA A   1       9.432  18.226  21.691  1.00  0.00     0.197 A 
ATOM      6  N15 FTA A   1       9.877  17.440  22.751  1.00  0.00    -0.093 NA
ATOM      7  N19 FTA A   1      11.165  17.852  23.065  1.00  0.00    -0.231 N 
ATOM      8  N20 FTA A   1      11.531  18.887  22.217  1.00  0.00    -0.017 NA
ATOM      9  H15 FTA A   1      11.756  17.453  23.810  1.00  0.00     0.200 HD
ATOM     10  N16 FTA A   1      10.462  19.113  21.357  1.00  0.00    -0.090 NA
ENDBRANCH   2   5
BRANCH   1  11
ATOM     11  N1  FTA A   1       8.735  17.638  18.888  1.00  0.00    -0.389 N 
ATOM     12  H11 FTA A   1       9.491  18.329  19.001  1.00  0.00     0.159 HD
BRANCH  11  13
ATOM     13  C2  FTA A   1       8.628  16.983  17.631  1.00  0.00     0.028 A 
ATOM     14  C4  FTA A   1       9.548  17.192  16.606  1.00  0.00     0.031 A 
ATOM     15  C6  FTA A   1       9.260  16.701  15.324  1.00  0.00     0.031 A 
ATOM     16  C7  FTA A   1       8.083  16.014  15.042  1.00  0.00     0.032 A 
ATOM     17  C5  FTA A   1       7.191  15.793  16.077  1.00  0.00     0.031 A 
ATOM     18  C3  FTA A   1       7.451  16.283  17.351  1.00  0.00     0.031 A 
BRANCH  16  19
ATOM     19  N8  FTA A   1       7.676  15.694  13.721  1.00  0.00    -0.356 N 
ATOM     20  H1  FTA A   1       8.237  16.081  12.948  1.00  0.00     0.166 HD
BRANCH  19  21
ATOM     21  C24 FTA A   1       6.555  14.882  13.375  1.00  0.00     0.032 A 
ATOM     22  C26 FTA A   1       6.693  13.541  13.104  1.00  0.00     0.029 A 
ATOM     23  C28 FTA A   1       5.603  12.850  12.609  1.00  0.00     0.002 A 
ATOM     24  C30 FTA A   1       4.372  13.451  12.407  1.00  0.00     0.000 A 
ATOM     25  C29 FTA A   1       4.211  14.777  12.710  1.00  0.00     0.002 A 
ATOM     26  C27 FTA A   1       5.314  15.480  13.207  1.00  0.00     0.029 A 
ENDBRANCH  19  21
ENDBRANCH  16  19
ENDBRANCH  11  13
ENDBRANCH   1  11
TORSDOF 5
ENDMDL
MODEL 6
REMARK VINA RESULT:    -5.434      5.584      6.920
REMARK INTER + INTRA:          -8.092
REMARK INTER:                  -7.023
REMARK INTRA:                  -1.069
REMARK UNBOUND:                -1.069
REMARK  5 active torsions:
REMARK  status: ('A' for Active; 'I' for Inactive)
REMARK    1  A    between atoms: N8_1  and  C24_2 
REMARK    2  A    between atoms: N8_1  and  C7_8 
REMARK    3  A    between atoms: C2_13  and  N1_14 
REMARK    4  A    between atoms: N1_14  and  C17_15 
REMARK    5  A    between atoms: C14_16  and  C13_19 
ROOT
ATOM      1  C17 FTA A   1       2.961  20.991  20.928  1.00  0.00     0.142 C 
ATOM      2  C14 FTA A   1       3.635  20.222  21.806  1.00  0.00     0.158 C 
ATOM      3  C18 FTA A   1       5.022  19.885  21.563  1.00  0.00     0.069 C 
ATOM      4  N21 FTA A   1       6.114  19.647  21.210  1.00  0.00    -0.197 NA
ENDROOT
BRANCH   2   5
ATOM      5  C13 FTA A   1       2.951  19.740  23.027  1.00  0.00     0.197 A 
ATOM      6  N15 FTA A   1       3.185  20.177  24.329  1.00  0.00    -0.093 NA
ATOM      7  N19 FTA A   1       2.368  19.437  25.173  1.00  0.00    -0.231 N 
ATOM      8  N20 FTA A   1       1.627  18.540  24.416  1.00  0.00    -0.017 NA
ATOM      9  H15 FTA A   1       2.319  19.537  26.197  1.00  0.00     0.200 HD
ATOM     10  N16 FTA A   1       1.979  18.734  23.085  1.00  0.00    -0.090 NA
ENDBRANCH   2   5
BRANCH   1  11
ATOM     11  N1  FTA A   1       1.785  20.549  20.444  1.00  0.00    -0.389 N 
ATOM     12  H11 FTA A   1       1.021  20.395  21.118  1.00  0.00     0.159 HD
BRANCH  11  13
ATOM     13  C2  FTA A   1       1.516  20.279  19.075  1.00  0.00     0.028 A 
ATOM     14  C4  FTA A   1       0.316  19.714  18.652  1.00  0.00     0.031 A 
ATOM     15  C6  FTA A   1       0.205  19.262  17.330  1.00  0.00     0.031 A 
ATOM     16  C7  FTA A   1       1.259  19.358  16.425  1.00  0.00     0.032 A 
ATOM     17  C5  FTA A   1       2.436  19.944  16.853  1.00  0.00     0.031 A 
ATOM     18  C3  FTA A   1       2.571  20.386  18.163  1.00  0.00     0.031 A 
BRANCH  16  19
ATOM     19  N8  FTA A   1       1.243  18.724  15.156  1.00  0.00    -0.356 N 
ATOM     20  H1  FTA A   1       1.624  19.254  14.359  1.00  0.00     0.166 HD
BRANCH  19  21
ATOM     21  C24 FTA A   1       0.743  17.413  14.893  1.00  0.00     0.032 A 
ATOM     22  C26 FTA A   1      -0.470  17.215  14.276  1.00  0.00     0.029 A 
ATOM     23  C28 FTA A   1      -0.976  15.930  14.206  1.00  0.00     0.002 A 
ATOM     24  C30 FTA A   1      -0.292  14.835  14.706  1.00  0.00     0.000 A 
ATOM     25  C29 FTA A   1       0.934  15.014  15.289  1.00  0.00     0.002 A 
ATOM     26  C27 FTA A   1       1.447  16.314  15.364  1.00  0.00     0.029 A 
ENDBRANCH  19  21
ENDBRANCH  16  19
ENDBRANCH  11  13
ENDBRANCH   1  11
TORSDOF 5
ENDMDL
MODEL 7
REMARK VINA RESULT:    -5.374      2.885      5.434
REMARK INTER + INTRA:          -8.014
REMARK INTER:                  -7.061
REMARK INTRA:                  -0.953
REMARK UNBOUND:                -1.069
REMARK  5 active torsions:
REMARK  status: ('A' for Active; 'I' for Inactive)
REMARK    1  A    between atoms: N8_1  and  C24_2 
REMARK    2  A    between atoms: N8_1  and  C7_8 
REMARK    3  A    between atoms: C2_13  and  N1_14 
REMARK    4  A    between atoms: N1_14  and  C17_15 
REMARK    5  A    between atoms: C14_16  and  C13_19 
ROOT
ATOM      1  C17 FTA A   1       8.555  16.817  14.506  1.00  0.00     0.142 C 
ATOM      2  C14 FTA A   1       9.640  17.039  15.274  1.00  0.00     0.158 C 
ATOM      3  C18 FTA A   1      10.882  17.473  14.671  1.00  0.00     0.069 C 
ATOM      4  N21 FTA A   1      11.829  17.763  14.043  1.00  0.00    -0.197 NA
ENDROOT
BRANCH   2   5
ATOM      5  C13 FTA A   1       9.545  16.850  16.740  1.00  0.00     0.197 A 
ATOM      6  N15 FTA A   1      10.533  17.156  17.674  1.00  0.00    -0.093 NA
ATOM      7  N19 FTA A   1      10.056  16.783  18.923  1.00  0.00    -0.231 N 
ATOM      8  N20 FTA A   1       8.784  16.246  18.784  1.00  0.00    -0.017 NA
ATOM      9  H15 FTA A   1      10.565  16.888  19.813  1.00  0.00     0.200 HD
ATOM     10  N16 FTA A   1       8.461  16.297  17.431  1.00  0.00    -0.090 NA
ENDBRANCH   2   5
BRANCH   1  11
ATOM     11  N1  FTA A   1       7.918  15.634  14.604  1.00  0.00    -0.389 N 
ATOM     12  H11 FTA A   1       8.434  14.850  15.030  1.00  0.00     0.159 HD
BRANCH  11  13
ATOM     13  C2  FTA A   1       6.588  15.386  14.167  1.00  0.00     0.028 A 
ATOM     14  C4  FTA A   1       6.265  14.300  13.358  1.00  0.00     0.031 A 
ATOM     15  C6  FTA A   1       4.991  14.241  12.776  1.00  0.00     0.031 A 
ATOM     16  C7  FTA A   1       4.038  15.235  12.979  1.00  0.00     0.032 A 
ATOM     17  C5  FTA A   1       4.366  16.294  13.807  1.00  0.00     0.031 A 
ATOM     18  C3  FTA A   1       5.628  16.378  14.382  1.00  0.00     0.031 A 
BRANCH  16  19
ATOM     19  N8  FTA A   1       2.829  15.304  12.242  1.00  0.00    -0.356 N 
ATOM     20  H1  FTA A   1       2.899  15.535  11.240  1.00  0.00     0.166 HD
BRANCH  19  21
ATOM     21  C24 FTA A   1       1.522  15.080  12.772  1.00  0.00     0.032 A 
ATOM     22  C26 FTA A   1       1.331  14.409  13.957  1.00  0.00     0.029 A 
ATOM     23  C28 FTA A   1       0.043  14.075  14.328  1.00  0.00     0.002 A 
ATOM     24  C30 FTA A   1      -1.062  14.418  13.567  1.00  0.00     0.000 A 
ATOM     25  C29 FTA A   1      -0.888  15.120  12.405  1.00  0.00     0.002 A 
ATOM     26  C27 FTA A   1       0.416  15.457  12.024  1.00  0.00     0.029 A 
ENDBRANCH  19  21
ENDBRANCH  16  19
ENDBRANCH  11  13
ENDBRANCH   1  11
TORSDOF 5
ENDMDL
MODEL 8
REMARK VINA RESULT:    -5.299     10.155     14.388
REMARK INTER + INTRA:          -7.917
REMARK INTER:                  -6.956
REMARK INTRA:                  -0.961
REMARK UNBOUND:                -1.069
REMARK  5 active torsions:
REMARK  status: ('A' for Active; 'I' for Inactive)
REMARK    1  A    between atoms: N8_1  and  C24_2 
REMARK    2  A    between atoms: N8_1  and  C7_8 
REMARK    3  A    between atoms: C2_13  and  N1_14 
REMARK    4  A    between atoms: N1_14  and  C17_15 
REMARK    5  A    between atoms: C14_16  and  C13_19 
ROOT
ATOM      1  C17 FTA A   1      -6.184  11.973  13.833  1.00  0.00     0.142 C 
ATOM      2  C14 FTA A   1      -5.916  10.665  14.022  1.00  0.00     0.158 C 
ATOM      3  C18 FTA A   1      -5.451  10.196  15.309  1.00  0.00     0.069 C 
ATOM      4  N21 FTA A   1      -5.029   9.971  16.379  1.00  0.00    -0.197 NA
ENDROOT
BRANCH   2   5
ATOM      5  C13 FTA A   1      -6.118   9.713  12.906  1.00  0.00     0.197 A 
ATOM      6  N15 FTA A   1      -7.238   8.909  12.702  1.00  0.00    -0.093 NA
ATOM      7  N19 FTA A   1      -6.998   8.137  11.573  1.00  0.00    -0.231 N 
ATOM      8  N20 FTA A   1      -5.743   8.445  11.069  1.00  0.00    -0.017 NA
ATOM      9  H15 FTA A   1      -7.649   7.446  11.173  1.00  0.00     0.200 HD
ATOM     10  N16 FTA A   1      -5.200   9.429  11.888  1.00  0.00    -0.090 NA
ENDBRANCH   2   5
BRANCH   1  11
ATOM     11  N1  FTA A   1      -5.608  12.613  12.798  1.00  0.00    -0.389 N 
ATOM     12  H11 FTA A   1      -6.026  12.483  11.865  1.00  0.00     0.159 HD
BRANCH  11  13
ATOM     13  C2  FTA A   1      -4.466  13.455  12.895  1.00  0.00     0.028 A 
ATOM     14  C4  FTA A   1      -3.380  13.333  12.032  1.00  0.00     0.031 A 
ATOM     15  C6  FTA A   1      -2.199  14.030  12.323  1.00  0.00     0.031 A 
ATOM     16  C7  FTA A   1      -2.076  14.841  13.448  1.00  0.00     0.032 A 
ATOM     17  C5  FTA A   1      -3.173  14.972  14.281  1.00  0.00     0.031 A 
ATOM     18  C3  FTA A   1      -4.348  14.279  14.018  1.00  0.00     0.031 A 
BRANCH  16  19
ATOM     19  N8  FTA A   1      -0.837  15.385  13.873  1.00  0.00    -0.356 N 
ATOM     20  H1  FTA A   1      -0.837  15.936  14.743  1.00  0.00     0.166 HD
BRANCH  19  21
ATOM     21  C24 FTA A   1       0.409  15.231  13.194  1.00  0.00     0.032 A 
ATOM     22  C26 FTA A   1       1.396  14.405  13.677  1.00  0.00     0.029 A 
ATOM     23  C28 FTA A   1       2.638  14.432  13.072  1.00  0.00     0.002 A 
ATOM     24  C30 FTA A   1       2.915  15.236  11.979  1.00  0.00     0.000 A 
ATOM     25  C29 FTA A   1       1.929  16.036  11.465  1.00  0.00     0.002 A 
ATOM     26  C27 FTA A   1       0.671  16.013  12.078  1.00  0.00     0.029 A 
ENDBRANCH  19  21
ENDBRANCH  16  19
ENDBRANCH  11  13
ENDBRANCH   1  11
TORSDOF 5
ENDMDL
MODEL 9
REMARK VINA RESULT:    -5.243      2.682      9.062
REMARK INTER + INTRA:          -7.845
REMARK INTER:                  -6.964
REMARK INTRA:                  -0.881
REMARK UNBOUND:                -1.069
REMARK  5 active torsions:
REMARK  status: ('A' for Active; 'I' for Inactive)
REMARK    1  A    between atoms: N8_1  and  C24_2 
REMARK    2  A    between atoms: N8_1  and  C7_8 
REMARK    3  A    between atoms: C2_13  and  N1_14 
REMARK    4  A    between atoms: N1_14  and  C17_15 
REMARK    5  A    between atoms: C14_16  and  C13_19 
ROOT
ATOM      1  C17 FTA A   1       5.303  15.427  13.187  1.00  0.00     0.142 C 
ATOM      2  C14 FTA A   1       4.607  14.364  12.737  1.00  0.00     0.158 C 
ATOM      3  C18 FTA A   1       3.164  14.341  12.844  1.00  0.00     0.069 C 
ATOM      4  N21 FTA A   1       2.013  14.435  13.048  1.00  0.00    -0.197 NA
ENDROOT
BRANCH   2   5
ATOM      5  C13 FTA A   1       5.330  13.230  12.118  1.00  0.00     0.197 A 
ATOM      6  N15 FTA A   1       6.669  12.902  12.316  1.00  0.00    -0.093 NA
ATOM      7  N19 FTA A   1       6.953  11.803  11.516  1.00  0.00    -0.231 N 
ATOM      8  N20 FTA A   1       5.810  11.440  10.818  1.00  0.00    -0.017 NA
ATOM      9  H15 FTA A   1       7.867  11.331  11.451  1.00  0.00     0.200 HD
ATOM     10  N16 FTA A   1       4.799  12.317  11.198  1.00  0.00    -0.090 NA
ENDBRANCH   2   5
BRANCH   1  11
ATOM     11  N1  FTA A   1       6.316  15.224  14.051  1.00  0.00    -0.389 N 
ATOM     12  H11 FTA A   1       6.864  14.358  13.946  1.00  0.00     0.159 HD
BRANCH  11  13
ATOM     13  C2  FTA A   1       6.687  16.114  15.096  1.00  0.00     0.028 A 
ATOM     14  C4  FTA A   1       6.842  17.481  14.885  1.00  0.00     0.031 A 
ATOM     15  C6  FTA A   1       7.429  18.262  15.890  1.00  0.00     0.031 A 
ATOM     16  C7  FTA A   1       7.865  17.714  17.093  1.00  0.00     0.032 A 
ATOM     17  C5  FTA A   1       7.681  16.358  17.298  1.00  0.00     0.031 A 
ATOM     18  C3  FTA A   1       7.113  15.564  16.308  1.00  0.00     0.031 A 
BRANCH  16  19
ATOM     19  N8  FTA A   1       8.645  18.438  18.031  1.00  0.00    -0.356 N 
ATOM     20  H1  FTA A   1       9.168  19.254  17.680  1.00  0.00     0.166 HD
BRANCH  19  21
ATOM     21  C24 FTA A   1       8.764  18.130  19.420  1.00  0.00     0.032 A 
ATOM     22  C26 FTA A   1       7.726  18.340  20.296  1.00  0.00     0.029 A 
ATOM     23  C28 FTA A   1       7.960  18.185  21.649  1.00  0.00     0.002 A 
ATOM     24  C30 FTA A   1       9.192  17.798  22.151  1.00  0.00     0.000 A 
ATOM     25  C29 FTA A   1      10.223  17.549  21.285  1.00  0.00     0.002 A 
ATOM     26  C27 FTA A   1       9.990  17.708  19.914  1.00  0.00     0.029 A 
ENDBRANCH  19  21
ENDBRANCH  16  19
ENDBRANCH  11  13
ENDBRANCH   1  11
TORSDOF 5
ENDMDL
