MODEL 1
REMARK VINA RESULT:    -8.233      0.000      0.000
REMARK INTER + INTRA:         -11.082
REMARK INTER:                 -10.144
REMARK INTRA:                  -0.938
REMARK UNBOUND:                -0.683
REMARK  5 active torsions:
REMARK  status: ('A' for Active; 'I' for Inactive)
REMARK    1  A    between atoms: N_6  and  C_7 
REMARK    2  A    between atoms: C_12  and  N_13 
REMARK       I    between atoms: N_13  and  C_15 
REMARK    3  A    between atoms: C_15  and  C_17 
REMARK    4  A    between atoms: C_18  and  O_20 
REMARK    5  A    between atoms: C_24  and  C_28 
REMARK       I    between atoms: C_28  and  N_30 
ROOT
HETATM    1  C   UNL     1       4.349   7.437  22.919  0.00  0.00     0.066 C 
HETATM    2  C   UNL     1       5.582   6.758  22.954  0.00  0.00     0.083 C 
HETATM    3  C   UNL     1       6.324   6.480  21.800  0.00  0.00     0.069 C 
HETATM    4  C   UNL     1       3.890   7.895  21.661  0.00  0.00     0.036 C 
HETATM    5  C   UNL     1       4.539   7.491  20.466  0.00  0.00     0.029 C 
HETATM    6  C   UNL     1       5.757   6.835  20.575  0.00  0.00     0.065 C 
HETATM    7  C   UNL     1       4.251   7.506  19.054  0.00  0.00     0.157 C 
HETATM    8  N   UNL     1       5.316   7.054  18.357  0.00  0.00    -0.168 NA
HETATM    9  N   UNL     1       6.192   6.670  19.293  0.00  0.00    -0.277 N 
HETATM   10  H   UNL     1       7.075   6.272  18.987  0.00  0.00     0.189 HD
ENDROOT
BRANCH   1  11
HETATM   11  C   UNL     1       3.571   7.621  24.216  0.00  0.00     0.260 C 
HETATM   12  N   UNL     1       2.862   6.548  24.830  0.00  0.00    -0.318 N 
HETATM   13  C   UNL     1       2.886   5.212  24.227  0.00  0.00     0.159 C 
HETATM   14  O   UNL     1       3.683   8.758  24.705  0.00  0.00    -0.267 OA
BRANCH  12  15
HETATM   15  C   UNL     1       2.172   6.656  26.115  0.00  0.00     0.037 A 
HETATM   16  C   UNL     1       2.785   6.203  27.296  0.00  0.00     0.032 A 
HETATM   17  C   UNL     1       2.247   6.435  28.575  0.00  0.00     0.031 A 
HETATM   18  C   UNL     1       1.032   7.090  28.769  0.00  0.00     0.030 A 
HETATM   19  C   UNL     1       0.360   7.446  27.593  0.00  0.00     0.031 A 
HETATM   20  C   UNL     1       0.913   7.238  26.301  0.00  0.00     0.032 A 
BRANCH  18  21
HETATM   21  N   UNL     1       0.552   7.336  30.038  0.00  0.00    -0.377 N 
HETATM   22  C   UNL     1       0.528   8.665  30.669  0.00  0.00     0.149 C 
HETATM   23  C   UNL     1       1.396   8.667  31.936  0.00  0.00     0.187 C 
HETATM   24  O   UNL     1       0.993   7.637  32.856  0.00  0.00    -0.388 OA
HETATM   25  C   UNL     1       1.101   6.346  32.232  0.00  0.00     0.187 C 
HETATM   26  C   UNL     1       0.220   6.244  30.975  0.00  0.00     0.149 C 
ENDBRANCH  18  21
ENDBRANCH  12  15
ENDBRANCH   1  11
BRANCH   2  27
HETATM   27  O   UNL     1       6.157   6.312  24.122  0.00  0.00    -0.360 OA
HETATM   28  H   UNL     1       7.099   6.602  24.120  0.00  0.00     0.217 HD
ENDBRANCH   2  27
BRANCH   7  29
HETATM   29  C   UNL     1       2.985   7.930  18.398  0.00  0.00     0.275 C 
HETATM   30  O   UNL     1       2.674   9.124  18.387  0.00  0.00    -0.266 OA
HETATM   31  N   UNL     1       2.137   6.952  17.812  0.00  0.00    -0.347 N 
HETATM   32  C   UNL     1       0.939   7.437  17.123  0.00  0.00     0.126 C 
HETATM   33  C   UNL     1       2.013   5.598  18.369  0.00  0.00     0.126 C 
HETATM   34  C   UNL     1       0.407   6.440  16.089  0.00  0.00     0.020 C 
HETATM   35  C   UNL     1       0.225   5.048  16.688  0.00  0.00     0.003 C 
HETATM   36  C   UNL     1       1.527   4.588  17.330  0.00  0.00     0.020 C 
ENDBRANCH   7  29
TORSDOF 5
ENDMDL
MODEL 2
REMARK VINA RESULT:    -7.842      3.362     11.176
REMARK INTER + INTRA:         -10.588
REMARK INTER:                  -9.778
REMARK INTRA:                  -0.810
REMARK UNBOUND:                -0.683
REMARK  5 active torsions:
REMARK  status: ('A' for Active; 'I' for Inactive)
REMARK    1  A    between atoms: N_6  and  C_7 
REMARK    2  A    between atoms: C_12  and  N_13 
REMARK       I    between atoms: N_13  and  C_15 
REMARK    3  A    between atoms: C_15  and  C_17 
REMARK    4  A    between atoms: C_18  and  O_20 
REMARK    5  A    between atoms: C_24  and  C_28 
REMARK       I    between atoms: C_28  and  N_30 
ROOT
HETATM    1  C   UNL     1       3.756   6.543  19.930  0.00  0.00     0.066 C 
HETATM    2  C   UNL     1       4.293   7.815  19.651  0.00  0.00     0.083 C 
HETATM    3  C   UNL     1       4.581   8.749  20.653  0.00  0.00     0.069 C 
HETATM    4  C   UNL     1       3.560   6.200  21.290  0.00  0.00     0.036 C 
HETATM    5  C   UNL     1       3.694   7.179  22.307  0.00  0.00     0.029 C 
HETATM    6  C   UNL     1       4.240   8.408  21.962  0.00  0.00     0.065 C 
HETATM    7  C   UNL     1       3.339   7.308  23.698  0.00  0.00     0.157 C 
HETATM    8  N   UNL     1       3.815   8.471  24.193  0.00  0.00    -0.168 NA
HETATM    9  N   UNL     1       4.348   9.095  23.136  0.00  0.00    -0.277 N 
HETATM   10  H   UNL     1       4.754  10.014  23.278  0.00  0.00     0.189 HD
ENDROOT
BRANCH   1  11
HETATM   11  C   UNL     1       3.396   5.624  18.770  0.00  0.00     0.260 C 
HETATM   12  N   UNL     1       2.081   5.578  18.224  0.00  0.00    -0.318 N 
HETATM   13  C   UNL     1       1.030   6.448  18.762  0.00  0.00     0.159 C 
HETATM   14  O   UNL     1       4.367   4.994  18.317  0.00  0.00    -0.267 OA
BRANCH  12  15
HETATM   15  C   UNL     1       1.709   4.774  17.059  0.00  0.00     0.037 A 
HETATM   16  C   UNL     1       1.335   5.393  15.854  0.00  0.00     0.032 A 
HETATM   17  C   UNL     1       1.135   4.679  14.658  0.00  0.00     0.031 A 
HETATM   18  C   UNL     1       1.242   3.292  14.586  0.00  0.00     0.030 A 
HETATM   19  C   UNL     1       1.504   2.658  15.807  0.00  0.00     0.031 A 
HETATM   20  C   UNL     1       1.734   3.376  17.011  0.00  0.00     0.032 A 
BRANCH  18  21
HETATM   21  N   UNL     1       1.079   2.628  13.389  0.00  0.00    -0.377 N 
HETATM   22  C   UNL     1       0.453   3.217  12.195  0.00  0.00     0.149 C 
HETATM   23  C   UNL     1      -0.807   2.427  11.810  0.00  0.00     0.187 C 
HETATM   24  O   UNL     1      -0.519   1.030  11.622  0.00  0.00    -0.388 OA
HETATM   25  C   UNL     1       0.020   0.468  12.830  0.00  0.00     0.187 C 
HETATM   26  C   UNL     1       1.317   1.175  13.261  0.00  0.00     0.149 C 
ENDBRANCH  18  21
ENDBRANCH  12  15
ENDBRANCH   1  11
BRANCH   2  27
HETATM   27  O   UNL     1       4.577   8.243  18.375  0.00  0.00    -0.360 OA
HETATM   28  H   UNL     1       4.539   7.456  17.781  0.00  0.00     0.217 HD
ENDBRANCH   2  27
BRANCH   7  29
HETATM   29  C   UNL     1       2.556   6.346  24.520  0.00  0.00     0.275 C 
HETATM   30  O   UNL     1       2.757   5.135  24.399  0.00  0.00    -0.266 OA
HETATM   31  N   UNL     1       1.569   6.834  25.419  0.00  0.00    -0.347 N 
HETATM   32  C   UNL     1       0.878   5.845  26.249  0.00  0.00     0.126 C 
HETATM   33  C   UNL     1       0.782   8.040  25.127  0.00  0.00     0.126 C 
HETATM   34  C   UNL     1       0.275   6.455  27.517  0.00  0.00     0.020 C 
HETATM   35  C   UNL     1      -0.588   7.673  27.204  0.00  0.00     0.003 C 
HETATM   36  C   UNL     1       0.216   8.681  26.394  0.00  0.00     0.020 C 
ENDBRANCH   7  29
TORSDOF 5
ENDMDL
MODEL 3
REMARK VINA RESULT:    -7.831      4.669      8.991
REMARK INTER + INTRA:         -10.574
REMARK INTER:                  -9.880
REMARK INTRA:                  -0.694
REMARK UNBOUND:                -0.683
REMARK  5 active torsions:
REMARK  status: ('A' for Active; 'I' for Inactive)
REMARK    1  A    between atoms: N_6  and  C_7 
REMARK    2  A    between atoms: C_12  and  N_13 
REMARK       I    between atoms: N_13  and  C_15 
REMARK    3  A    between atoms: C_15  and  C_17 
REMARK    4  A    between atoms: C_18  and  O_20 
REMARK    5  A    between atoms: C_24  and  C_28 
REMARK       I    between atoms: C_28  and  N_30 
ROOT
HETATM    1  C   UNL     1       2.274   5.587  18.907  0.00  0.00     0.066 C 
HETATM    2  C   UNL     1       3.008   5.688  17.710  0.00  0.00     0.083 C 
HETATM    3  C   UNL     1       4.226   6.374  17.627  0.00  0.00     0.069 C 
HETATM    4  C   UNL     1       2.838   6.163  20.071  0.00  0.00     0.036 C 
HETATM    5  C   UNL     1       3.984   6.993  19.982  0.00  0.00     0.029 C 
HETATM    6  C   UNL     1       4.665   7.037  18.773  0.00  0.00     0.065 C 
HETATM    7  C   UNL     1       4.671   7.935  20.829  0.00  0.00     0.157 C 
HETATM    8  N   UNL     1       5.798   8.370  20.224  0.00  0.00    -0.168 NA
HETATM    9  N   UNL     1       5.764   7.812  19.008  0.00  0.00    -0.277 N 
HETATM   10  H   UNL     1       6.519   8.023  18.363  0.00  0.00     0.189 HD
ENDROOT
BRANCH   1  11
HETATM   11  C   UNL     1       0.918   4.894  18.885  0.00  0.00     0.260 C 
HETATM   12  N   UNL     1       0.791   3.480  19.012  0.00  0.00    -0.318 N 
HETATM   13  C   UNL     1       1.984   2.648  19.194  0.00  0.00     0.159 C 
HETATM   14  O   UNL     1      -0.041   5.682  18.822  0.00  0.00    -0.267 OA
BRANCH  12  15
HETATM   15  C   UNL     1      -0.492   2.779  19.079  0.00  0.00     0.037 A 
HETATM   16  C   UNL     1      -0.563   1.464  19.571  0.00  0.00     0.032 A 
HETATM   17  C   UNL     1      -1.782   0.806  19.818  0.00  0.00     0.031 A 
HETATM   18  C   UNL     1      -3.018   1.389  19.546  0.00  0.00     0.030 A 
HETATM   19  C   UNL     1      -2.953   2.655  18.952  0.00  0.00     0.031 A 
HETATM   20  C   UNL     1      -1.726   3.335  18.725  0.00  0.00     0.032 A 
BRANCH  18  21
HETATM   21  N   UNL     1      -4.193   0.731  19.838  0.00  0.00    -0.377 N 
HETATM   22  C   UNL     1      -5.000   0.001  18.847  0.00  0.00     0.149 C 
HETATM   23  C   UNL     1      -6.396   0.631  18.729  0.00  0.00     0.187 C 
HETATM   24  O   UNL     1      -7.057   0.697  20.006  0.00  0.00    -0.388 OA
HETATM   25  C   UNL     1      -6.279   1.480  20.927  0.00  0.00     0.187 C 
HETATM   26  C   UNL     1      -4.876   0.886  21.139  0.00  0.00     0.149 C 
ENDBRANCH  18  21
ENDBRANCH  12  15
ENDBRANCH   1  11
BRANCH   2  27
HETATM   27  O   UNL     1       2.590   5.125  16.527  0.00  0.00    -0.360 OA
HETATM   28  H   UNL     1       2.300   4.203  16.721  0.00  0.00     0.217 HD
ENDBRANCH   2  27
BRANCH   7  29
HETATM   29  C   UNL     1       4.249   8.410  22.174  0.00  0.00     0.275 C 
HETATM   30  O   UNL     1       3.859   9.571  22.316  0.00  0.00    -0.266 OA
HETATM   31  N   UNL     1       4.323   7.526  23.285  0.00  0.00    -0.347 N 
HETATM   32  C   UNL     1       3.831   8.030  24.569  0.00  0.00     0.126 C 
HETATM   33  C   UNL     1       5.370   6.502  23.393  0.00  0.00     0.126 C 
HETATM   34  C   UNL     1       3.435   6.906  25.532  0.00  0.00     0.020 C 
HETATM   35  C   UNL     1       4.549   5.875  25.686  0.00  0.00     0.003 C 
HETATM   36  C   UNL     1       4.963   5.353  24.316  0.00  0.00     0.020 C 
ENDBRANCH   7  29
TORSDOF 5
ENDMDL
MODEL 4
REMARK VINA RESULT:    -7.803      3.649     11.112
REMARK INTER + INTRA:         -10.538
REMARK INTER:                  -9.600
REMARK INTRA:                  -0.939
REMARK UNBOUND:                -0.683
REMARK  5 active torsions:
REMARK  status: ('A' for Active; 'I' for Inactive)
REMARK    1  A    between atoms: N_6  and  C_7 
REMARK    2  A    between atoms: C_12  and  N_13 
REMARK       I    between atoms: N_13  and  C_15 
REMARK    3  A    between atoms: C_15  and  C_17 
REMARK    4  A    between atoms: C_18  and  O_20 
REMARK    5  A    between atoms: C_24  and  C_28 
REMARK       I    between atoms: C_28  and  N_30 
ROOT
HETATM    1  C   UNL     1       3.590   5.120  19.111  0.00  0.00     0.066 C 
HETATM    2  C   UNL     1       4.655   5.893  18.611  0.00  0.00     0.083 C 
HETATM    3  C   UNL     1       5.559   6.563  19.445  0.00  0.00     0.069 C 
HETATM    4  C   UNL     1       3.483   4.985  20.516  0.00  0.00     0.036 C 
HETATM    5  C   UNL     1       4.284   5.776  21.379  0.00  0.00     0.029 C 
HETATM    6  C   UNL     1       5.323   6.505  20.819  0.00  0.00     0.065 C 
HETATM    7  C   UNL     1       4.298   6.124  22.777  0.00  0.00     0.157 C 
HETATM    8  N   UNL     1       5.390   6.867  23.061  0.00  0.00    -0.168 NA
HETATM    9  N   UNL     1       5.977   7.069  21.875  0.00  0.00    -0.277 N 
HETATM   10  H   UNL     1       6.822   7.631  21.849  0.00  0.00     0.189 HD
ENDROOT
BRANCH   1  11
HETATM   11  C   UNL     1       2.606   4.497  18.129  0.00  0.00     0.260 C 
HETATM   12  N   UNL     1       1.392   5.146  17.761  0.00  0.00    -0.318 N 
HETATM   13  C   UNL     1       1.069   6.466  18.313  0.00  0.00     0.159 C 
HETATM   14  O   UNL     1       3.004   3.426  17.641  0.00  0.00    -0.267 OA
BRANCH  12  15
HETATM   15  C   UNL     1       0.459   4.626  16.761  0.00  0.00     0.037 A 
HETATM   16  C   UNL     1       0.208   5.342  15.578  0.00  0.00     0.032 A 
HETATM   17  C   UNL     1      -0.541   4.814  14.510  0.00  0.00     0.031 A 
HETATM   18  C   UNL     1      -1.139   3.556  14.563  0.00  0.00     0.030 A 
HETATM   19  C   UNL     1      -0.987   2.883  15.782  0.00  0.00     0.031 A 
HETATM   20  C   UNL     1      -0.209   3.400  16.852  0.00  0.00     0.032 A 
BRANCH  18  21
HETATM   21  N   UNL     1      -1.833   3.054  13.484  0.00  0.00    -0.377 N 
HETATM   22  C   UNL     1      -1.981   3.753  12.197  0.00  0.00     0.149 C 
HETATM   23  C   UNL     1      -3.464   4.037  11.915  0.00  0.00     0.187 C 
HETATM   24  O   UNL     1      -4.252   2.833  11.957  0.00  0.00    -0.388 OA
HETATM   25  C   UNL     1      -4.145   2.216  13.251  0.00  0.00     0.187 C 
HETATM   26  C   UNL     1      -2.688   1.854  13.592  0.00  0.00     0.149 C 
ENDBRANCH  18  21
ENDBRANCH  12  15
ENDBRANCH   1  11
BRANCH   2  27
HETATM   27  O   UNL     1       4.893   6.056  17.266  0.00  0.00    -0.360 OA
HETATM   28  H   UNL     1       4.069   5.808  16.784  0.00  0.00     0.217 HD
ENDBRANCH   2  27
BRANCH   7  29
HETATM   29  C   UNL     1       3.284   5.764  23.805  0.00  0.00     0.275 C 
HETATM   30  O   UNL     1       2.946   4.586  23.942  0.00  0.00    -0.266 OA
HETATM   31  N   UNL     1       2.701   6.786  24.603  0.00  0.00    -0.347 N 
HETATM   32  C   UNL     1       1.760   6.362  25.642  0.00  0.00     0.126 C 
HETATM   33  C   UNL     1       2.463   8.137  24.080  0.00  0.00     0.126 C 
HETATM   34  C   UNL     1       1.617   7.393  26.766  0.00  0.00     0.020 C 
HETATM   35  C   UNL     1       1.312   8.784  26.220  0.00  0.00     0.003 C 
HETATM   36  C   UNL     1       2.365   9.179  25.194  0.00  0.00     0.020 C 
ENDBRANCH   7  29
TORSDOF 5
ENDMDL
MODEL 5
REMARK VINA RESULT:    -7.770      2.004      2.585
REMARK INTER + INTRA:         -10.497
REMARK INTER:                  -9.311
REMARK INTRA:                  -1.186
REMARK UNBOUND:                -0.683
REMARK  5 active torsions:
REMARK  status: ('A' for Active; 'I' for Inactive)
REMARK    1  A    between atoms: N_6  and  C_7 
REMARK    2  A    between atoms: C_12  and  N_13 
REMARK       I    between atoms: N_13  and  C_15 
REMARK    3  A    between atoms: C_15  and  C_17 
REMARK    4  A    between atoms: C_18  and  O_20 
REMARK    5  A    between atoms: C_24  and  C_28 
REMARK       I    between atoms: C_28  and  N_30 
ROOT
HETATM    1  C   UNL     1       4.229   6.930  21.635  0.00  0.00     0.066 C 
HETATM    2  C   UNL     1       5.529   6.651  21.173  0.00  0.00     0.083 C 
HETATM    3  C   UNL     1       5.795   6.262  19.854  0.00  0.00     0.069 C 
HETATM    4  C   UNL     1       3.172   6.861  20.695  0.00  0.00     0.036 C 
HETATM    5  C   UNL     1       3.391   6.320  19.403  0.00  0.00     0.029 C 
HETATM    6  C   UNL     1       4.700   6.079  19.010  0.00  0.00     0.065 C 
HETATM    7  C   UNL     1       2.581   5.846  18.309  0.00  0.00     0.157 C 
HETATM    8  N   UNL     1       3.365   5.518  17.259  0.00  0.00    -0.168 NA
HETATM    9  N   UNL     1       4.616   5.673  17.710  0.00  0.00    -0.277 N 
HETATM   10  H   UNL     1       5.381   5.458  17.079  0.00  0.00     0.189 HD
ENDROOT
BRANCH   1  11
HETATM   11  C   UNL     1       4.025   7.264  23.107  0.00  0.00     0.260 C 
HETATM   12  N   UNL     1       3.521   6.307  24.035  0.00  0.00    -0.318 N 
HETATM   13  C   UNL     1       3.204   4.947  23.590  0.00  0.00     0.159 C 
HETATM   14  O   UNL     1       4.407   8.406  23.414  0.00  0.00    -0.267 OA
BRANCH  12  15
HETATM   15  C   UNL     1       3.388   6.556  25.471  0.00  0.00     0.037 A 
HETATM   16  C   UNL     1       4.369   6.101  26.370  0.00  0.00     0.032 A 
HETATM   17  C   UNL     1       4.382   6.457  27.731  0.00  0.00     0.031 A 
HETATM   18  C   UNL     1       3.391   7.248  28.309  0.00  0.00     0.030 A 
HETATM   19  C   UNL     1       2.350   7.612  27.446  0.00  0.00     0.031 A 
HETATM   20  C   UNL     1       2.347   7.278  26.064  0.00  0.00     0.032 A 
BRANCH  18  21
HETATM   21  N   UNL     1       3.456   7.610  29.637  0.00  0.00    -0.377 N 
HETATM   22  C   UNL     1       3.779   6.682  30.733  0.00  0.00     0.149 C 
HETATM   23  C   UNL     1       2.601   6.586  31.713  0.00  0.00     0.187 C 
HETATM   24  O   UNL     1       2.219   7.881  32.212  0.00  0.00    -0.388 OA
HETATM   25  C   UNL     1       1.837   8.738  31.123  0.00  0.00     0.187 C 
HETATM   26  C   UNL     1       2.984   8.926  30.114  0.00  0.00     0.149 C 
ENDBRANCH  18  21
ENDBRANCH  12  15
ENDBRANCH   1  11
BRANCH   2  27
HETATM   27  O   UNL     1       6.643   6.735  21.977  0.00  0.00    -0.360 OA
HETATM   28  H   UNL     1       6.335   6.738  22.914  0.00  0.00     0.217 HD
ENDBRANCH   2  27
BRANCH   7  29
HETATM   29  C   UNL     1       1.101   5.703  18.280  0.00  0.00     0.275 C 
HETATM   30  O   UNL     1       0.399   6.674  17.989  0.00  0.00    -0.266 OA
HETATM   31  N   UNL     1       0.511   4.452  18.612  0.00  0.00    -0.347 N 
HETATM   32  C   UNL     1      -0.946   4.354  18.501  0.00  0.00     0.126 C 
HETATM   33  C   UNL     1       1.108   3.553  19.608  0.00  0.00     0.126 C 
HETATM   34  C   UNL     1      -1.430   2.911  18.331  0.00  0.00     0.020 C 
HETATM   35  C   UNL     1      -0.853   1.992  19.403  0.00  0.00     0.003 C 
HETATM   36  C   UNL     1       0.666   2.102  19.415  0.00  0.00     0.020 C 
ENDBRANCH   7  29
TORSDOF 5
ENDMDL
MODEL 6
REMARK VINA RESULT:    -7.752      3.026     10.269
REMARK INTER + INTRA:         -10.474
REMARK INTER:                  -9.534
REMARK INTRA:                  -0.939
REMARK UNBOUND:                -0.683
REMARK  5 active torsions:
REMARK  status: ('A' for Active; 'I' for Inactive)
REMARK    1  A    between atoms: N_6  and  C_7 
REMARK    2  A    between atoms: C_12  and  N_13 
REMARK       I    between atoms: N_13  and  C_15 
REMARK    3  A    between atoms: C_15  and  C_17 
REMARK    4  A    between atoms: C_18  and  O_20 
REMARK    5  A    between atoms: C_24  and  C_28 
REMARK       I    between atoms: C_28  and  N_30 
ROOT
HETATM    1  C   UNL     1       3.658   6.281  22.381  0.00  0.00     0.066 C 
HETATM    2  C   UNL     1       5.043   6.372  22.616  0.00  0.00     0.083 C 
HETATM    3  C   UNL     1       5.581   6.534  23.899  0.00  0.00     0.069 C 
HETATM    4  C   UNL     1       2.800   6.301  23.507  0.00  0.00     0.036 C 
HETATM    5  C   UNL     1       3.305   6.622  24.792  0.00  0.00     0.029 C 
HETATM    6  C   UNL     1       4.682   6.685  24.955  0.00  0.00     0.065 C 
HETATM    7  C   UNL     1       2.762   6.996  26.074  0.00  0.00     0.157 C 
HETATM    8  N   UNL     1       3.752   7.093  26.987  0.00  0.00    -0.168 NA
HETATM    9  N   UNL     1       4.877   6.897  26.288  0.00  0.00    -0.277 N 
HETATM   10  H   UNL     1       5.762   6.948  26.783  0.00  0.00     0.189 HD
ENDROOT
BRANCH   1  11
HETATM   11  C   UNL     1       3.158   6.190  20.944  0.00  0.00     0.260 C 
HETATM   12  N   UNL     1       2.504   5.027  20.445  0.00  0.00    -0.318 N 
HETATM   13  C   UNL     1       2.271   3.879  21.326  0.00  0.00     0.159 C 
HETATM   14  O   UNL     1       3.313   7.240  20.298  0.00  0.00    -0.267 OA
BRANCH  12  15
HETATM   15  C   UNL     1       1.935   4.925  19.100  0.00  0.00     0.037 A 
HETATM   16  C   UNL     1       2.556   4.135  18.118  0.00  0.00     0.032 A 
HETATM   17  C   UNL     1       1.967   3.864  16.870  0.00  0.00     0.031 A 
HETATM   18  C   UNL     1       0.740   4.401  16.487  0.00  0.00     0.030 A 
HETATM   19  C   UNL     1       0.167   5.280  17.415  0.00  0.00     0.031 A 
HETATM   20  C   UNL     1       0.745   5.536  18.688  0.00  0.00     0.032 A 
BRANCH  18  21
HETATM   21  N   UNL     1       0.173   4.083  15.272  0.00  0.00    -0.377 N 
HETATM   22  C   UNL     1      -0.935   3.130  15.100  0.00  0.00     0.149 C 
HETATM   23  C   UNL     1      -0.491   1.952  14.221  0.00  0.00     0.187 C 
HETATM   24  O   UNL     1       0.023   2.400  12.954  0.00  0.00    -0.388 OA
HETATM   25  C   UNL     1       1.150   3.269  13.155  0.00  0.00     0.187 C 
HETATM   26  C   UNL     1       0.776   4.506  13.991  0.00  0.00     0.149 C 
ENDBRANCH  18  21
ENDBRANCH  12  15
ENDBRANCH   1  11
BRANCH   2  27
HETATM   27  O   UNL     1       5.978   6.311  21.609  0.00  0.00    -0.360 OA
HETATM   28  H   UNL     1       6.180   7.236  21.333  0.00  0.00     0.217 HD
ENDBRANCH   2  27
BRANCH   7  29
HETATM   29  C   UNL     1       1.337   7.264  26.404  0.00  0.00     0.275 C 
HETATM   30  O   UNL     1       0.660   6.384  26.942  0.00  0.00    -0.266 OA
HETATM   31  N   UNL     1       0.765   8.523  26.076  0.00  0.00    -0.347 N 
HETATM   32  C   UNL     1      -0.622   8.751  26.487  0.00  0.00     0.126 C 
HETATM   33  C   UNL     1       1.180   9.276  24.885  0.00  0.00     0.126 C 
HETATM   34  C   UNL     1      -0.967  10.239  26.602  0.00  0.00     0.020 C 
HETATM   35  C   UNL     1      -0.588  11.006  25.339  0.00  0.00     0.003 C 
HETATM   36  C   UNL     1       0.881  10.770  25.012  0.00  0.00     0.020 C 
ENDBRANCH   7  29
TORSDOF 5
ENDMDL
MODEL 7
REMARK VINA RESULT:    -7.690      3.785     10.990
REMARK INTER + INTRA:         -10.396
REMARK INTER:                  -9.360
REMARK INTRA:                  -1.036
REMARK UNBOUND:                -0.683
REMARK  5 active torsions:
REMARK  status: ('A' for Active; 'I' for Inactive)
REMARK    1  A    between atoms: N_6  and  C_7 
REMARK    2  A    between atoms: C_12  and  N_13 
REMARK       I    between atoms: N_13  and  C_15 
REMARK    3  A    between atoms: C_15  and  C_17 
REMARK    4  A    between atoms: C_18  and  O_20 
REMARK    5  A    between atoms: C_24  and  C_28 
REMARK       I    between atoms: C_28  and  N_30 
ROOT
HETATM    1  C   UNL     1       4.127   6.793  20.308  0.00  0.00     0.066 C 
HETATM    2  C   UNL     1       3.973   8.148  20.658  0.00  0.00     0.083 C 
HETATM    3  C   UNL     1       4.226   8.628  21.949  0.00  0.00     0.069 C 
HETATM    4  C   UNL     1       4.611   5.911  21.304  0.00  0.00     0.036 C 
HETATM    5  C   UNL     1       4.723   6.337  22.652  0.00  0.00     0.029 C 
HETATM    6  C   UNL     1       4.569   7.690  22.923  0.00  0.00     0.065 C 
HETATM    7  C   UNL     1       4.900   5.718  23.941  0.00  0.00     0.157 C 
HETATM    8  N   UNL     1       5.030   6.663  24.897  0.00  0.00    -0.168 NA
HETATM    9  N   UNL     1       4.833   7.821  24.255  0.00  0.00    -0.277 N 
HETATM   10  H   UNL     1       4.866   8.679  24.797  0.00  0.00     0.189 HD
ENDROOT
BRANCH   1  11
HETATM   11  C   UNL     1       3.747   6.347  18.902  0.00  0.00     0.260 C 
HETATM   12  N   UNL     1       2.507   5.705  18.623  0.00  0.00    -0.318 N 
HETATM   13  C   UNL     1       1.539   5.475  19.700  0.00  0.00     0.159 C 
HETATM   14  O   UNL     1       4.582   6.666  18.038  0.00  0.00    -0.267 OA
BRANCH  12  15
HETATM   15  C   UNL     1       2.064   5.335  17.278  0.00  0.00     0.037 A 
HETATM   16  C   UNL     1       1.923   3.983  16.918  0.00  0.00     0.032 A 
HETATM   17  C   UNL     1       1.341   3.572  15.705  0.00  0.00     0.031 A 
HETATM   18  C   UNL     1       0.905   4.476  14.738  0.00  0.00     0.030 A 
HETATM   19  C   UNL     1       1.144   5.823  15.040  0.00  0.00     0.031 A 
HETATM   20  C   UNL     1       1.706   6.244  16.276  0.00  0.00     0.032 A 
BRANCH  18  21
HETATM   21  N   UNL     1       0.303   4.040  13.577  0.00  0.00    -0.377 N 
HETATM   22  C   UNL     1      -1.140   3.786  13.439  0.00  0.00     0.149 C 
HETATM   23  C   UNL     1      -1.389   2.310  13.096  0.00  0.00     0.187 C 
HETATM   24  O   UNL     1      -0.665   1.910  11.918  0.00  0.00    -0.388 OA
HETATM   25  C   UNL     1       0.746   2.100  12.115  0.00  0.00     0.187 C 
HETATM   26  C   UNL     1       1.087   3.570  12.417  0.00  0.00     0.149 C 
ENDBRANCH  18  21
ENDBRANCH  12  15
ENDBRANCH   1  11
BRANCH   2  27
HETATM   27  O   UNL     1       3.560   9.110  19.765  0.00  0.00    -0.360 OA
HETATM   28  H   UNL     1       3.965   9.966  20.040  0.00  0.00     0.217 HD
ENDBRANCH   2  27
BRANCH   7  29
HETATM   29  C   UNL     1       4.932   4.261  24.243  0.00  0.00     0.275 C 
HETATM   30  O   UNL     1       5.742   3.535  23.661  0.00  0.00    -0.266 OA
HETATM   31  N   UNL     1       4.013   3.720  25.182  0.00  0.00    -0.347 N 
HETATM   32  C   UNL     1       4.136   2.293  25.488  0.00  0.00     0.126 C 
HETATM   33  C   UNL     1       2.656   4.262  25.340  0.00  0.00     0.126 C 
HETATM   34  C   UNL     1       3.528   1.924  26.844  0.00  0.00     0.020 C 
HETATM   35  C   UNL     1       2.098   2.439  26.980  0.00  0.00     0.003 C 
HETATM   36  C   UNL     1       2.060   3.937  26.710  0.00  0.00     0.020 C 
ENDBRANCH   7  29
TORSDOF 5
ENDMDL
MODEL 8
REMARK VINA RESULT:    -7.639      3.942     10.936
REMARK INTER + INTRA:         -10.332
REMARK INTER:                  -9.059
REMARK INTRA:                  -1.273
REMARK UNBOUND:                -0.683
REMARK  5 active torsions:
REMARK  status: ('A' for Active; 'I' for Inactive)
REMARK    1  A    between atoms: N_6  and  C_7 
REMARK    2  A    between atoms: C_12  and  N_13 
REMARK       I    between atoms: N_13  and  C_15 
REMARK    3  A    between atoms: C_15  and  C_17 
REMARK    4  A    between atoms: C_18  and  O_20 
REMARK    5  A    between atoms: C_24  and  C_28 
REMARK       I    between atoms: C_28  and  N_30 
ROOT
HETATM    1  C   UNL     1       3.744   6.653  19.952  0.00  0.00     0.066 C 
HETATM    2  C   UNL     1       4.090   8.015  19.866  0.00  0.00     0.083 C 
HETATM    3  C   UNL     1       4.295   8.815  20.997  0.00  0.00     0.069 C 
HETATM    4  C   UNL     1       3.661   6.080  21.244  0.00  0.00     0.036 C 
HETATM    5  C   UNL     1       3.709   6.898  22.401  0.00  0.00     0.029 C 
HETATM    6  C   UNL     1       4.067   8.230  22.243  0.00  0.00     0.065 C 
HETATM    7  C   UNL     1       3.407   6.758  23.803  0.00  0.00     0.157 C 
HETATM    8  N   UNL     1       3.744   7.886  24.466  0.00  0.00    -0.168 NA
HETATM    9  N   UNL     1       4.136   8.735  23.508  0.00  0.00    -0.277 N 
HETATM   10  H   UNL     1       4.420   9.670  23.785  0.00  0.00     0.189 HD
ENDROOT
BRANCH   1  11
HETATM   11  C   UNL     1       3.457   5.883  18.670  0.00  0.00     0.260 C 
HETATM   12  N   UNL     1       2.128   5.635  18.220  0.00  0.00    -0.318 N 
HETATM   13  C   UNL     1       0.985   6.146  18.984  0.00  0.00     0.159 C 
HETATM   14  O   UNL     1       4.481   5.570  18.039  0.00  0.00    -0.267 OA
BRANCH  12  15
HETATM   15  C   UNL     1       1.805   4.974  16.955  0.00  0.00     0.037 A 
HETATM   16  C   UNL     1       1.733   3.572  16.878  0.00  0.00     0.032 A 
HETATM   17  C   UNL     1       1.262   2.892  15.740  0.00  0.00     0.031 A 
HETATM   18  C   UNL     1       0.878   3.555  14.576  0.00  0.00     0.030 A 
HETATM   19  C   UNL     1       1.053   4.944  14.604  0.00  0.00     0.031 A 
HETATM   20  C   UNL     1       1.502   5.638  15.760  0.00  0.00     0.032 A 
BRANCH  18  21
HETATM   21  N   UNL     1       0.384   2.860  13.493  0.00  0.00    -0.377 N 
HETATM   22  C   UNL     1       0.284   3.412  12.132  0.00  0.00     0.149 C 
HETATM   23  C   UNL     1      -1.184   3.445  11.680  0.00  0.00     0.187 C 
HETATM   24  O   UNL     1      -1.796   2.147  11.771  0.00  0.00    -0.388 OA
HETATM   25  C   UNL     1      -1.748   1.670  13.126  0.00  0.00     0.187 C 
HETATM   26  C   UNL     1      -0.303   1.561  13.643  0.00  0.00     0.149 C 
ENDBRANCH  18  21
ENDBRANCH  12  15
ENDBRANCH   1  11
BRANCH   2  27
HETATM   27  O   UNL     1       4.251   8.671  18.668  0.00  0.00    -0.360 OA
HETATM   28  H   UNL     1       5.181   8.526  18.371  0.00  0.00     0.217 HD
ENDBRANCH   2  27
BRANCH   7  29
HETATM   29  C   UNL     1       2.802   5.581  24.481  0.00  0.00     0.275 C 
HETATM   30  O   UNL     1       1.770   5.721  25.143  0.00  0.00    -0.266 OA
HETATM   31  N   UNL     1       3.432   4.311  24.376  0.00  0.00    -0.347 N 
HETATM   32  C   UNL     1       2.753   3.177  25.008  0.00  0.00     0.126 C 
HETATM   33  C   UNL     1       4.892   4.174  24.287  0.00  0.00     0.126 C 
HETATM   34  C   UNL     1       3.166   1.831  24.406  0.00  0.00     0.020 C 
HETATM   35  C   UNL     1       4.683   1.670  24.370  0.00  0.00     0.003 C 
HETATM   36  C   UNL     1       5.311   2.852  23.644  0.00  0.00     0.020 C 
ENDBRANCH   7  29
TORSDOF 5
ENDMDL
MODEL 9
REMARK VINA RESULT:    -7.535      3.258     10.679
REMARK INTER + INTRA:         -10.200
REMARK INTER:                  -9.517
REMARK INTRA:                  -0.683
REMARK UNBOUND:                -0.683
REMARK  5 active torsions:
REMARK  status: ('A' for Active; 'I' for Inactive)
REMARK    1  A    between atoms: N_6  and  C_7 
REMARK    2  A    between atoms: C_12  and  N_13 
REMARK       I    between atoms: N_13  and  C_15 
REMARK    3  A    between atoms: C_15  and  C_17 
REMARK    4  A    between atoms: C_18  and  O_20 
REMARK    5  A    between atoms: C_24  and  C_28 
REMARK       I    between atoms: C_28  and  N_30 
ROOT
HETATM    1  C   UNL     1       3.320   5.091  21.264  0.00  0.00     0.066 C 
HETATM    2  C   UNL     1       4.473   4.347  21.580  0.00  0.00     0.083 C 
HETATM    3  C   UNL     1       5.225   4.576  22.739  0.00  0.00     0.069 C 
HETATM    4  C   UNL     1       2.895   6.067  22.198  0.00  0.00     0.036 C 
HETATM    5  C   UNL     1       3.721   6.425  23.293  0.00  0.00     0.029 C 
HETATM    6  C   UNL     1       4.837   5.640  23.553  0.00  0.00     0.065 C 
HETATM    7  C   UNL     1       3.785   7.492  24.259  0.00  0.00     0.157 C 
HETATM    8  N   UNL     1       4.770   7.253  25.152  0.00  0.00    -0.168 NA
HETATM    9  N   UNL     1       5.369   6.143  24.704  0.00  0.00    -0.277 N 
HETATM   10  H   UNL     1       6.166   5.786  25.223  0.00  0.00     0.189 HD
ENDROOT
BRANCH   1  11
HETATM   11  C   UNL     1       2.613   4.829  19.941  0.00  0.00     0.260 C 
HETATM   12  N   UNL     1       2.952   5.535  18.751  0.00  0.00    -0.318 N 
HETATM   13  C   UNL     1       4.027   6.533  18.769  0.00  0.00     0.159 C 
HETATM   14  O   UNL     1       1.784   3.904  19.996  0.00  0.00    -0.267 OA
BRANCH  12  15
HETATM   15  C   UNL     1       2.360   5.259  17.441  0.00  0.00     0.037 A 
HETATM   16  C   UNL     1       2.090   3.938  17.043  0.00  0.00     0.032 A 
HETATM   17  C   UNL     1       1.368   3.624  15.877  0.00  0.00     0.031 A 
HETATM   18  C   UNL     1       0.908   4.600  14.994  0.00  0.00     0.030 A 
HETATM   19  C   UNL     1       1.270   5.911  15.325  0.00  0.00     0.031 A 
HETATM   20  C   UNL     1       1.975   6.236  16.516  0.00  0.00     0.032 A 
BRANCH  18  21
HETATM   21  N   UNL     1       0.170   4.260  13.881  0.00  0.00    -0.377 N 
HETATM   22  C   UNL     1      -1.298   4.157  13.861  0.00  0.00     0.149 C 
HETATM   23  C   UNL     1      -1.725   2.724  13.512  0.00  0.00     0.187 C 
HETATM   24  O   UNL     1      -1.147   2.286  12.269  0.00  0.00    -0.388 OA
HETATM   25  C   UNL     1       0.287   2.326  12.349  0.00  0.00     0.187 C 
HETATM   26  C   UNL     1       0.803   3.745  12.649  0.00  0.00     0.149 C 
ENDBRANCH  18  21
ENDBRANCH  12  15
ENDBRANCH   1  11
BRANCH   2  27
HETATM   27  O   UNL     1       4.954   3.338  20.779  0.00  0.00    -0.360 OA
HETATM   28  H   UNL     1       5.514   2.751  21.341  0.00  0.00     0.217 HD
ENDBRANCH   2  27
BRANCH   7  29
HETATM   29  C   UNL     1       2.933   8.710  24.313  0.00  0.00     0.275 C 
HETATM   30  O   UNL     1       3.266   9.716  23.682  0.00  0.00    -0.266 OA
HETATM   31  N   UNL     1       1.756   8.707  25.111  0.00  0.00    -0.347 N 
HETATM   32  C   UNL     1       0.923   9.911  25.071  0.00  0.00     0.126 C 
HETATM   33  C   UNL     1       1.671   7.949  26.366  0.00  0.00     0.126 C 
HETATM   34  C   UNL     1      -0.528   9.640  25.478  0.00  0.00     0.020 C 
HETATM   35  C   UNL     1      -0.613   8.903  26.811  0.00  0.00     0.003 C 
HETATM   36  C   UNL     1       0.227   7.633  26.754  0.00  0.00     0.020 C 
ENDBRANCH   7  29
TORSDOF 5
ENDMDL
