MODEL 1
REMARK VINA RESULT:    -5.280      0.000      0.000
REMARK INTER + INTRA:          -7.926
REMARK INTER:                  -6.852
REMARK INTRA:                  -1.074
REMARK UNBOUND:                -1.102
REMARK  5 active torsions:
REMARK  status: ('A' for Active; 'I' for Inactive)
REMARK    1  A    between atoms: N8_1  and  C24_2 
REMARK    2  A    between atoms: N8_1  and  C7_8 
REMARK    3  A    between atoms: C2_13  and  N1_14 
REMARK    4  A    between atoms: N1_14  and  C17_15 
REMARK    5  A    between atoms: C14_16  and  C13_19 
ROOT
ATOM      1  C17 FTA A   1       4.085  17.096  17.767  1.00  0.00     0.142 C 
ATOM      2  C14 FTA A   1       4.032  18.335  18.296  1.00  0.00     0.158 C 
ATOM      3  C18 FTA A   1       3.406  19.413  17.562  1.00  0.00     0.069 C 
ATOM      4  N21 FTA A   1       2.924  20.196  16.834  1.00  0.00    -0.197 NA
ENDROOT
BRANCH   2   5
ATOM      5  C13 FTA A   1       4.604  18.577  19.641  1.00  0.00     0.197 A 
ATOM      6  N15 FTA A   1       5.287  17.649  20.423  1.00  0.00    -0.093 NA
ATOM      7  N19 FTA A   1       5.610  18.271  21.622  1.00  0.00    -0.231 N 
ATOM      8  N20 FTA A   1       5.136  19.574  21.601  1.00  0.00    -0.017 NA
ATOM      9  H15 FTA A   1       6.120  17.834  22.403  1.00  0.00     0.200 HD
ATOM     10  N16 FTA A   1       4.521  19.770  20.369  1.00  0.00    -0.090 NA
ENDBRANCH   2   5
BRANCH   1  11
ATOM     11  N1  FTA A   1       5.275  16.471  17.692  1.00  0.00    -0.389 N 
ATOM     12  H11 FTA A   1       5.394  15.605  18.238  1.00  0.00     0.159 HD
BRANCH  11  13
ATOM     13  C2  FTA A   1       6.381  16.914  16.916  1.00  0.00     0.028 A 
ATOM     14  C4  FTA A   1       6.478  16.659  15.551  1.00  0.00     0.031 A 
ATOM     15  C6  FTA A   1       7.690  16.916  14.895  1.00  0.00     0.031 A 
ATOM     16  C7  FTA A   1       8.803  17.418  15.566  1.00  0.00     0.032 A 
ATOM     17  C5  FTA A   1       8.682  17.689  16.918  1.00  0.00     0.031 A 
ATOM     18  C3  FTA A   1       7.494  17.428  17.588  1.00  0.00     0.031 A 
BRANCH  16  19
ATOM     19  N8  FTA A   1      10.090  17.488  14.976  1.00  0.00    -0.356 N 
ATOM     20  H1  FTA A   1      10.158  17.292  13.967  1.00  0.00     0.166 HD
BRANCH  19  21
ATOM     21  C24 FTA A   1      11.299  17.808  15.665  1.00  0.00     0.032 A 
ATOM     22  C26 FTA A   1      11.766  19.099  15.740  1.00  0.00     0.029 A 
ATOM     23  C28 FTA A   1      13.024  19.318  16.268  1.00  0.00     0.002 A 
ATOM     24  C30 FTA A   1      13.816  18.291  16.753  1.00  0.00     0.000 A 
ATOM     25  C29 FTA A   1      13.346  17.005  16.719  1.00  0.00     0.002 A 
ATOM     26  C27 FTA A   1      12.074  16.779  16.181  1.00  0.00     0.029 A 
ENDBRANCH  19  21
ENDBRANCH  16  19
ENDBRANCH  11  13
ENDBRANCH   1  11
TORSDOF 5
ENDMDL
MODEL 2
REMARK VINA RESULT:    -5.243      4.849      6.510
REMARK INTER + INTRA:          -7.877
REMARK INTER:                  -6.763
REMARK INTRA:                  -1.114
REMARK UNBOUND:                -1.102
REMARK  5 active torsions:
REMARK  status: ('A' for Active; 'I' for Inactive)
REMARK    1  A    between atoms: N8_1  and  C24_2 
REMARK    2  A    between atoms: N8_1  and  C7_8 
REMARK    3  A    between atoms: C2_13  and  N1_14 
REMARK    4  A    between atoms: N1_14  and  C17_15 
REMARK    5  A    between atoms: C14_16  and  C13_19 
ROOT
ATOM      1  C17 FTA A   1       5.442  18.957  18.399  1.00  0.00     0.142 C 
ATOM      2  C14 FTA A   1       5.457  17.640  18.113  1.00  0.00     0.158 C 
ATOM      3  C18 FTA A   1       4.750  16.704  18.960  1.00  0.00     0.069 C 
ATOM      4  N21 FTA A   1       4.185  16.061  19.762  1.00  0.00    -0.197 NA
ENDROOT
BRANCH   2   5
ATOM      5  C13 FTA A   1       6.189  17.162  16.918  1.00  0.00     0.197 A 
ATOM      6  N15 FTA A   1       5.638  16.908  15.664  1.00  0.00    -0.093 NA
ATOM      7  N19 FTA A   1       6.658  16.435  14.848  1.00  0.00    -0.231 N 
ATOM      8  N20 FTA A   1       7.838  16.388  15.576  1.00  0.00    -0.017 NA
ATOM      9  H15 FTA A   1       6.555  16.162  13.860  1.00  0.00     0.200 HD
ATOM     10  N16 FTA A   1       7.552  16.849  16.856  1.00  0.00    -0.090 NA
ENDBRANCH   2   5
BRANCH   1  11
ATOM     11  N1  FTA A   1       6.613  19.616  18.494  1.00  0.00    -0.389 N 
ATOM     12  H11 FTA A   1       6.842  20.289  17.748  1.00  0.00     0.159 HD
BRANCH  11  13
ATOM     13  C2  FTA A   1       7.556  19.455  19.546  1.00  0.00     0.028 A 
ATOM     14  C4  FTA A   1       8.876  19.081  19.307  1.00  0.00     0.031 A 
ATOM     15  C6  FTA A   1       9.686  18.717  20.391  1.00  0.00     0.031 A 
ATOM     16  C7  FTA A   1       9.213  18.714  21.701  1.00  0.00     0.032 A 
ATOM     17  C5  FTA A   1       7.907  19.112  21.924  1.00  0.00     0.031 A 
ATOM     18  C3  FTA A   1       7.083  19.464  20.862  1.00  0.00     0.031 A 
BRANCH  16  19
ATOM     19  N8  FTA A   1       9.941  18.153  22.781  1.00  0.00    -0.356 N 
ATOM     20  H1  FTA A   1      10.223  17.166  22.699  1.00  0.00     0.166 HD
BRANCH  19  21
ATOM     21  C24 FTA A   1      10.317  18.845  23.972  1.00  0.00     0.032 A 
ATOM     22  C26 FTA A   1       9.514  18.844  25.089  1.00  0.00     0.029 A 
ATOM     23  C28 FTA A   1       9.849  19.671  26.145  1.00  0.00     0.002 A 
ATOM     24  C30 FTA A   1      10.977  20.473  26.131  1.00  0.00     0.000 A 
ATOM     25  C29 FTA A   1      11.805  20.454  25.041  1.00  0.00     0.002 A 
ATOM     26  C27 FTA A   1      11.467  19.621  23.968  1.00  0.00     0.029 A 
ENDBRANCH  19  21
ENDBRANCH  16  19
ENDBRANCH  11  13
ENDBRANCH   1  11
TORSDOF 5
ENDMDL
MODEL 3
REMARK VINA RESULT:    -5.219      5.794      8.626
REMARK INTER + INTRA:          -7.846
REMARK INTER:                  -6.833
REMARK INTRA:                  -1.013
REMARK UNBOUND:                -1.102
REMARK  5 active torsions:
REMARK  status: ('A' for Active; 'I' for Inactive)
REMARK    1  A    between atoms: N8_1  and  C24_2 
REMARK    2  A    between atoms: N8_1  and  C7_8 
REMARK    3  A    between atoms: C2_13  and  N1_14 
REMARK    4  A    between atoms: N1_14  and  C17_15 
REMARK    5  A    between atoms: C14_16  and  C13_19 
ROOT
ATOM      1  C17 FTA A   1       9.242  18.325  18.349  1.00  0.00     0.142 C 
ATOM      2  C14 FTA A   1       9.835  17.891  17.219  1.00  0.00     0.158 C 
ATOM      3  C18 FTA A   1       9.040  17.310  16.158  1.00  0.00     0.069 C 
ATOM      4  N21 FTA A   1       8.284  16.813  15.413  1.00  0.00    -0.197 NA
ENDROOT
BRANCH   2   5
ATOM      5  C13 FTA A   1      11.301  18.028  17.067  1.00  0.00     0.197 A 
ATOM      6  N15 FTA A   1      12.157  17.100  16.478  1.00  0.00    -0.093 NA
ATOM      7  N19 FTA A   1      13.449  17.597  16.584  1.00  0.00    -0.231 N 
ATOM      8  N20 FTA A   1      13.414  18.822  17.234  1.00  0.00    -0.017 NA
ATOM      9  H15 FTA A   1      14.300  17.130  16.236  1.00  0.00     0.200 HD
ATOM     10  N16 FTA A   1      12.081  19.096  17.524  1.00  0.00    -0.090 NA
ENDBRANCH   2   5
BRANCH   1  11
ATOM     11  N1  FTA A   1       9.699  17.881  19.536  1.00  0.00    -0.389 N 
ATOM     12  H11 FTA A   1      10.066  16.919  19.575  1.00  0.00     0.159 HD
BRANCH  11  13
ATOM     13  C2  FTA A   1       9.713  18.638  20.739  1.00  0.00     0.028 A 
ATOM     14  C4  FTA A   1      10.055  19.988  20.761  1.00  0.00     0.031 A 
ATOM     15  C6  FTA A   1      10.273  20.614  21.996  1.00  0.00     0.031 A 
ATOM     16  C7  FTA A   1      10.161  19.928  23.203  1.00  0.00     0.032 A 
ATOM     17  C5  FTA A   1       9.795  18.595  23.165  1.00  0.00     0.031 A 
ATOM     18  C3  FTA A   1       9.588  17.953  21.951  1.00  0.00     0.031 A 
BRANCH  16  19
ATOM     19  N8  FTA A   1      10.577  20.479  24.442  1.00  0.00    -0.356 N 
ATOM     20  H1  FTA A   1      11.537  20.850  24.496  1.00  0.00     0.166 HD
BRANCH  19  21
ATOM     21  C24 FTA A   1       9.776  20.561  25.621  1.00  0.00     0.032 A 
ATOM     22  C26 FTA A   1       8.571  21.224  25.629  1.00  0.00     0.029 A 
ATOM     23  C28 FTA A   1       7.928  21.416  26.837  1.00  0.00     0.002 A 
ATOM     24  C30 FTA A   1       8.437  20.940  28.033  1.00  0.00     0.000 A 
ATOM     25  C29 FTA A   1       9.618  20.245  28.034  1.00  0.00     0.002 A 
ATOM     26  C27 FTA A   1      10.272  20.052  26.812  1.00  0.00     0.029 A 
ENDBRANCH  19  21
ENDBRANCH  16  19
ENDBRANCH  11  13
ENDBRANCH   1  11
TORSDOF 5
ENDMDL
MODEL 4
REMARK VINA RESULT:    -5.197      4.674      5.951
REMARK INTER + INTRA:          -7.818
REMARK INTER:                  -6.637
REMARK INTRA:                  -1.181
REMARK UNBOUND:                -1.102
REMARK  5 active torsions:
REMARK  status: ('A' for Active; 'I' for Inactive)
REMARK    1  A    between atoms: N8_1  and  C24_2 
REMARK    2  A    between atoms: N8_1  and  C7_8 
REMARK    3  A    between atoms: C2_13  and  N1_14 
REMARK    4  A    between atoms: N1_14  and  C17_15 
REMARK    5  A    between atoms: C14_16  and  C13_19 
ROOT
ATOM      1  C17 FTA A   1       7.518  20.004  24.084  1.00  0.00     0.142 C 
ATOM      2  C14 FTA A   1       8.479  20.946  24.168  1.00  0.00     0.158 C 
ATOM      3  C18 FTA A   1       8.225  22.289  23.692  1.00  0.00     0.069 C 
ATOM      4  N21 FTA A   1       7.900  23.310  23.218  1.00  0.00    -0.197 NA
ENDROOT
BRANCH   2   5
ATOM      5  C13 FTA A   1       9.789  20.598  24.765  1.00  0.00     0.197 A 
ATOM      6  N15 FTA A   1      10.896  21.438  24.865  1.00  0.00    -0.093 NA
ATOM      7  N19 FTA A   1      11.925  20.707  25.444  1.00  0.00    -0.231 N 
ATOM      8  N20 FTA A   1      11.478  19.419  25.704  1.00  0.00    -0.017 NA
ATOM      9  H15 FTA A   1      12.870  21.063  25.648  1.00  0.00     0.200 HD
ATOM     10  N16 FTA A   1      10.150  19.353  25.294  1.00  0.00    -0.090 NA
ENDBRANCH   2   5
BRANCH   1  11
ATOM     11  N1  FTA A   1       7.806  18.831  23.488  1.00  0.00    -0.389 N 
ATOM     12  H11 FTA A   1       7.784  17.983  24.071  1.00  0.00     0.159 HD
BRANCH  11  13
ATOM     13  C2  FTA A   1       8.137  18.675  22.114  1.00  0.00     0.028 A 
ATOM     14  C4  FTA A   1       9.406  18.282  21.697  1.00  0.00     0.031 A 
ATOM     15  C6  FTA A   1       9.733  18.370  20.338  1.00  0.00     0.031 A 
ATOM     16  C7  FTA A   1       8.830  18.841  19.388  1.00  0.00     0.032 A 
ATOM     17  C5  FTA A   1       7.564  19.204  19.814  1.00  0.00     0.031 A 
ATOM     18  C3  FTA A   1       7.225  19.137  21.160  1.00  0.00     0.031 A 
BRANCH  16  19
ATOM     19  N8  FTA A   1       9.201  19.135  18.051  1.00  0.00    -0.356 N 
ATOM     20  H1  FTA A   1       8.580  19.758  17.514  1.00  0.00     0.166 HD
BRANCH  19  21
ATOM     21  C24 FTA A   1      10.365  18.640  17.389  1.00  0.00     0.032 A 
ATOM     22  C26 FTA A   1      10.336  17.481  16.651  1.00  0.00     0.029 A 
ATOM     23  C28 FTA A   1      11.529  16.965  16.180  1.00  0.00     0.002 A 
ATOM     24  C30 FTA A   1      12.745  17.589  16.399  1.00  0.00     0.000 A 
ATOM     25  C29 FTA A   1      12.783  18.764  17.100  1.00  0.00     0.002 A 
ATOM     26  C27 FTA A   1      11.578  19.287  17.581  1.00  0.00     0.029 A 
ENDBRANCH  19  21
ENDBRANCH  16  19
ENDBRANCH  11  13
ENDBRANCH   1  11
TORSDOF 5
ENDMDL
MODEL 5
REMARK VINA RESULT:    -5.095      5.821      7.926
REMARK INTER + INTRA:          -7.686
REMARK INTER:                  -6.699
REMARK INTRA:                  -0.986
REMARK UNBOUND:                -1.102
REMARK  5 active torsions:
REMARK  status: ('A' for Active; 'I' for Inactive)
REMARK    1  A    between atoms: N8_1  and  C24_2 
REMARK    2  A    between atoms: N8_1  and  C7_8 
REMARK    3  A    between atoms: C2_13  and  N1_14 
REMARK    4  A    between atoms: N1_14  and  C17_15 
REMARK    5  A    between atoms: C14_16  and  C13_19 
ROOT
ATOM      1  C17 FTA A   1       9.280  18.373  18.335  1.00  0.00     0.142 C 
ATOM      2  C14 FTA A   1       9.862  17.903  17.214  1.00  0.00     0.158 C 
ATOM      3  C18 FTA A   1       9.056  17.313  16.167  1.00  0.00     0.069 C 
ATOM      4  N21 FTA A   1       8.289  16.814  15.434  1.00  0.00    -0.197 NA
ENDROOT
BRANCH   2   5
ATOM      5  C13 FTA A   1      11.331  18.009  17.058  1.00  0.00     0.197 A 
ATOM      6  N15 FTA A   1      12.161  17.081  16.432  1.00  0.00    -0.093 NA
ATOM      7  N19 FTA A   1      13.465  17.543  16.547  1.00  0.00    -0.231 N 
ATOM      8  N20 FTA A   1      13.463  18.746  17.238  1.00  0.00    -0.017 NA
ATOM      9  H15 FTA A   1      14.302  17.068  16.178  1.00  0.00     0.200 HD
ATOM     10  N16 FTA A   1      12.140  19.042  17.546  1.00  0.00    -0.090 NA
ENDBRANCH   2   5
BRANCH   1  11
ATOM     11  N1  FTA A   1       9.730  17.947  19.531  1.00  0.00    -0.389 N 
ATOM     12  H11 FTA A   1      10.093  16.984  19.588  1.00  0.00     0.159 HD
BRANCH  11  13
ATOM     13  C2  FTA A   1       9.743  18.725  20.721  1.00  0.00     0.028 A 
ATOM     14  C4  FTA A   1      10.070  20.078  20.718  1.00  0.00     0.031 A 
ATOM     15  C6  FTA A   1      10.289  20.727  21.941  1.00  0.00     0.031 A 
ATOM     16  C7  FTA A   1      10.192  20.061  23.160  1.00  0.00     0.032 A 
ATOM     17  C5  FTA A   1       9.841  18.723  23.147  1.00  0.00     0.031 A 
ATOM     18  C3  FTA A   1       9.633  18.058  21.945  1.00  0.00     0.031 A 
BRANCH  16  19
ATOM     19  N8  FTA A   1      10.610  20.637  24.387  1.00  0.00    -0.356 N 
ATOM     20  H1  FTA A   1      10.030  20.451  25.218  1.00  0.00     0.166 HD
BRANCH  19  21
ATOM     21  C24 FTA A   1      11.767  21.453  24.565  1.00  0.00     0.032 A 
ATOM     22  C26 FTA A   1      11.695  22.683  25.175  1.00  0.00     0.029 A 
ATOM     23  C28 FTA A   1      12.813  23.496  25.162  1.00  0.00     0.002 A 
ATOM     24  C30 FTA A   1      14.009  23.104  24.586  1.00  0.00     0.000 A 
ATOM     25  C29 FTA A   1      14.106  21.865  24.009  1.00  0.00     0.002 A 
ATOM     26  C27 FTA A   1      12.974  21.042  24.018  1.00  0.00     0.029 A 
ENDBRANCH  19  21
ENDBRANCH  16  19
ENDBRANCH  11  13
ENDBRANCH   1  11
TORSDOF 5
ENDMDL
MODEL 6
REMARK VINA RESULT:    -5.095      5.724      7.663
REMARK INTER + INTRA:          -7.686
REMARK INTER:                  -6.580
REMARK INTRA:                  -1.106
REMARK UNBOUND:                -1.102
REMARK  5 active torsions:
REMARK  status: ('A' for Active; 'I' for Inactive)
REMARK    1  A    between atoms: N8_1  and  C24_2 
REMARK    2  A    between atoms: N8_1  and  C7_8 
REMARK    3  A    between atoms: C2_13  and  N1_14 
REMARK    4  A    between atoms: N1_14  and  C17_15 
REMARK    5  A    between atoms: C14_16  and  C13_19 
ROOT
ATOM      1  C17 FTA A   1       7.861  19.650  19.203  1.00  0.00     0.142 C 
ATOM      2  C14 FTA A   1       6.542  19.594  19.471  1.00  0.00     0.158 C 
ATOM      3  C18 FTA A   1       5.851  20.764  19.971  1.00  0.00     0.069 C 
ATOM      4  N21 FTA A   1       5.439  21.764  20.422  1.00  0.00    -0.197 NA
ENDROOT
BRANCH   2   5
ATOM      5  C13 FTA A   1       5.803  18.333  19.234  1.00  0.00     0.197 A 
ATOM      6  N15 FTA A   1       5.927  17.504  18.121  1.00  0.00    -0.093 NA
ATOM      7  N19 FTA A   1       5.026  16.459  18.276  1.00  0.00    -0.231 N 
ATOM      8  N20 FTA A   1       4.338  16.624  19.470  1.00  0.00    -0.017 NA
ATOM      9  H15 FTA A   1       4.889  15.684  17.611  1.00  0.00     0.200 HD
ATOM     10  N16 FTA A   1       4.826  17.780  20.070  1.00  0.00    -0.090 NA
ENDBRANCH   2   5
BRANCH   1  11
ATOM     11  N1  FTA A   1       8.677  18.729  19.753  1.00  0.00    -0.389 N 
ATOM     12  H11 FTA A   1       8.802  17.841  19.246  1.00  0.00     0.159 HD
BRANCH  11  13
ATOM     13  C2  FTA A   1       9.378  18.890  20.979  1.00  0.00     0.028 A 
ATOM     14  C4  FTA A   1       9.299  17.954  22.007  1.00  0.00     0.031 A 
ATOM     15  C6  FTA A   1       9.822  18.280  23.266  1.00  0.00     0.031 A 
ATOM     16  C7  FTA A   1      10.418  19.512  23.523  1.00  0.00     0.032 A 
ATOM     17  C5  FTA A   1      10.512  20.421  22.484  1.00  0.00     0.031 A 
ATOM     18  C3  FTA A   1       9.987  20.123  21.233  1.00  0.00     0.031 A 
BRANCH  16  19
ATOM     19  N8  FTA A   1      10.763  19.942  24.829  1.00  0.00    -0.356 N 
ATOM     20  H1  FTA A   1      11.765  20.063  25.038  1.00  0.00     0.166 HD
BRANCH  19  21
ATOM     21  C24 FTA A   1       9.837  20.222  25.879  1.00  0.00     0.032 A 
ATOM     22  C26 FTA A   1       8.695  20.955  25.656  1.00  0.00     0.029 A 
ATOM     23  C28 FTA A   1       7.931  21.337  26.742  1.00  0.00     0.002 A 
ATOM     24  C30 FTA A   1       8.256  20.983  28.041  1.00  0.00     0.000 A 
ATOM     25  C29 FTA A   1       9.370  20.221  28.272  1.00  0.00     0.002 A 
ATOM     26  C27 FTA A   1      10.148  19.835  27.175  1.00  0.00     0.029 A 
ENDBRANCH  19  21
ENDBRANCH  16  19
ENDBRANCH  11  13
ENDBRANCH   1  11
TORSDOF 5
ENDMDL
MODEL 7
REMARK VINA RESULT:    -5.048      6.930      8.993
REMARK INTER + INTRA:          -7.625
REMARK INTER:                  -6.582
REMARK INTRA:                  -1.043
REMARK UNBOUND:                -1.102
REMARK  5 active torsions:
REMARK  status: ('A' for Active; 'I' for Inactive)
REMARK    1  A    between atoms: N8_1  and  C24_2 
REMARK    2  A    between atoms: N8_1  and  C7_8 
REMARK    3  A    between atoms: C2_13  and  N1_14 
REMARK    4  A    between atoms: N1_14  and  C17_15 
REMARK    5  A    between atoms: C14_16  and  C13_19 
ROOT
ATOM      1  C17 FTA A   1       9.641  18.848  20.362  1.00  0.00     0.142 C 
ATOM      2  C14 FTA A   1       8.542  18.693  19.597  1.00  0.00     0.158 C 
ATOM      3  C18 FTA A   1       8.670  18.536  18.164  1.00  0.00     0.069 C 
ATOM      4  N21 FTA A   1       8.920  18.478  17.020  1.00  0.00    -0.197 NA
ENDROOT
BRANCH   2   5
ATOM      5  C13 FTA A   1       7.207  18.670  20.236  1.00  0.00     0.197 A 
ATOM      6  N15 FTA A   1       6.951  18.667  21.606  1.00  0.00    -0.093 NA
ATOM      7  N19 FTA A   1       5.575  18.595  21.774  1.00  0.00    -0.231 N 
ATOM      8  N20 FTA A   1       4.966  18.549  20.528  1.00  0.00    -0.017 NA
ATOM      9  H15 FTA A   1       5.083  18.577  22.680  1.00  0.00     0.200 HD
ATOM     10  N16 FTA A   1       5.976  18.606  19.573  1.00  0.00    -0.090 NA
ENDBRANCH   2   5
BRANCH   1  11
ATOM     11  N1  FTA A   1       9.705  19.897  21.204  1.00  0.00    -0.389 N 
ATOM     12  H11 FTA A   1       9.356  20.804  20.862  1.00  0.00     0.159 HD
BRANCH  11  13
ATOM     13  C2  FTA A   1      10.218  19.848  22.529  1.00  0.00     0.028 A 
ATOM     14  C4  FTA A   1       9.847  18.854  23.431  1.00  0.00     0.031 A 
ATOM     15  C6  FTA A   1      10.204  18.992  24.779  1.00  0.00     0.031 A 
ATOM     16  C7  FTA A   1      10.916  20.093  25.248  1.00  0.00     0.032 A 
ATOM     17  C5  FTA A   1      11.298  21.059  24.335  1.00  0.00     0.031 A 
ATOM     18  C3  FTA A   1      10.943  20.948  22.996  1.00  0.00     0.031 A 
BRANCH  16  19
ATOM     19  N8  FTA A   1      11.104  20.356  26.629  1.00  0.00    -0.356 N 
ATOM     20  H1  FTA A   1      12.045  20.652  26.929  1.00  0.00     0.166 HD
BRANCH  19  21
ATOM     21  C24 FTA A   1      10.099  20.246  27.636  1.00  0.00     0.032 A 
ATOM     22  C26 FTA A   1       8.938  20.981  27.579  1.00  0.00     0.029 A 
ATOM     23  C28 FTA A   1       8.087  20.959  28.668  1.00  0.00     0.002 A 
ATOM     24  C30 FTA A   1       8.345  20.201  29.798  1.00  0.00     0.000 A 
ATOM     25  C29 FTA A   1       9.479  19.435  29.851  1.00  0.00     0.002 A 
ATOM     26  C27 FTA A   1      10.345  19.458  28.752  1.00  0.00     0.029 A 
ENDBRANCH  19  21
ENDBRANCH  16  19
ENDBRANCH  11  13
ENDBRANCH   1  11
TORSDOF 5
ENDMDL
MODEL 8
REMARK VINA RESULT:    -5.033      6.831      8.950
REMARK INTER + INTRA:          -7.607
REMARK INTER:                  -6.505
REMARK INTRA:                  -1.102
REMARK UNBOUND:                -1.102
REMARK  5 active torsions:
REMARK  status: ('A' for Active; 'I' for Inactive)
REMARK    1  A    between atoms: N8_1  and  C24_2 
REMARK    2  A    between atoms: N8_1  and  C7_8 
REMARK    3  A    between atoms: C2_13  and  N1_14 
REMARK    4  A    between atoms: N1_14  and  C17_15 
REMARK    5  A    between atoms: C14_16  and  C13_19 
ROOT
ATOM      1  C17 FTA A   1       8.459  20.346  20.538  1.00  0.00     0.142 C 
ATOM      2  C14 FTA A   1       7.766  19.250  20.171  1.00  0.00     0.158 C 
ATOM      3  C18 FTA A   1       6.539  18.902  20.854  1.00  0.00     0.069 C 
ATOM      4  N21 FTA A   1       5.599  18.714  21.530  1.00  0.00    -0.197 NA
ENDROOT
BRANCH   2   5
ATOM      5  C13 FTA A   1       8.264  18.414  19.054  1.00  0.00     0.197 A 
ATOM      6  N15 FTA A   1       9.572  17.965  18.883  1.00  0.00    -0.093 NA
ATOM      7  N19 FTA A   1       9.617  17.256  17.690  1.00  0.00    -0.231 N 
ATOM      8  N20 FTA A   1       8.356  17.257  17.111  1.00  0.00    -0.017 NA
ATOM      9  H15 FTA A   1      10.453  16.801  17.296  1.00  0.00     0.200 HD
ATOM     10  N16 FTA A   1       7.513  17.966  17.961  1.00  0.00    -0.090 NA
ENDBRANCH   2   5
BRANCH   1  11
ATOM     11  N1  FTA A   1       9.768  20.223  20.830  1.00  0.00    -0.389 N 
ATOM     12  H11 FTA A   1      10.434  20.238  20.045  1.00  0.00     0.159 HD
BRANCH  11  13
ATOM     13  C2  FTA A   1      10.300  20.073  22.140  1.00  0.00     0.028 A 
ATOM     14  C4  FTA A   1      10.045  18.947  22.919  1.00  0.00     0.031 A 
ATOM     15  C6  FTA A   1      10.402  18.963  24.274  1.00  0.00     0.031 A 
ATOM     16  C7  FTA A   1      11.003  20.070  24.868  1.00  0.00     0.032 A 
ATOM     17  C5  FTA A   1      11.273  21.171  24.075  1.00  0.00     0.031 A 
ATOM     18  C3  FTA A   1      10.914  21.180  22.732  1.00  0.00     0.031 A 
BRANCH  16  19
ATOM     19  N8  FTA A   1      11.181  20.189  26.270  1.00  0.00    -0.356 N 
ATOM     20  H1  FTA A   1      12.148  20.245  26.620  1.00  0.00     0.166 HD
BRANCH  19  21
ATOM     21  C24 FTA A   1      10.131  20.238  27.236  1.00  0.00     0.032 A 
ATOM     22  C26 FTA A   1       8.977  20.950  27.010  1.00  0.00     0.029 A 
ATOM     23  C28 FTA A   1       8.077  21.100  28.048  1.00  0.00     0.002 A 
ATOM     24  C30 FTA A   1       8.280  20.533  29.295  1.00  0.00     0.000 A 
ATOM     25  C29 FTA A   1       9.407  19.789  29.521  1.00  0.00     0.002 A 
ATOM     26  C27 FTA A   1      10.322  19.639  28.472  1.00  0.00     0.029 A 
ENDBRANCH  19  21
ENDBRANCH  16  19
ENDBRANCH  11  13
ENDBRANCH   1  11
TORSDOF 5
ENDMDL
MODEL 9
REMARK VINA RESULT:    -5.027      5.416      7.331
REMARK INTER + INTRA:          -7.598
REMARK INTER:                  -6.474
REMARK INTRA:                  -1.124
REMARK UNBOUND:                -1.102
REMARK  5 active torsions:
REMARK  status: ('A' for Active; 'I' for Inactive)
REMARK    1  A    between atoms: N8_1  and  C24_2 
REMARK    2  A    between atoms: N8_1  and  C7_8 
REMARK    3  A    between atoms: C2_13  and  N1_14 
REMARK    4  A    between atoms: N1_14  and  C17_15 
REMARK    5  A    between atoms: C14_16  and  C13_19 
ROOT
ATOM      1  C17 FTA A   1      10.601  22.295  22.943  1.00  0.00     0.142 C 
ATOM      2  C14 FTA A   1      11.387  21.678  23.847  1.00  0.00     0.158 C 
ATOM      3  C18 FTA A   1      12.827  21.793  23.758  1.00  0.00     0.069 C 
ATOM      4  N21 FTA A   1      13.969  21.926  23.529  1.00  0.00    -0.197 NA
ENDROOT
BRANCH   2   5
ATOM      5  C13 FTA A   1      10.765  20.896  24.940  1.00  0.00     0.197 A 
ATOM      6  N15 FTA A   1       9.495  21.098  25.476  1.00  0.00    -0.093 NA
ATOM      7  N19 FTA A   1       9.326  20.182  26.506  1.00  0.00    -0.231 N 
ATOM      8  N20 FTA A   1      10.474  19.411  26.623  1.00  0.00    -0.017 NA
ATOM      9  H15 FTA A   1       8.482  20.089  27.090  1.00  0.00     0.200 HD
ATOM     10  N16 FTA A   1      11.363  19.845  25.646  1.00  0.00    -0.090 NA
ENDBRANCH   2   5
BRANCH   1  11
ATOM     11  N1  FTA A   1       9.671  21.573  22.288  1.00  0.00    -0.389 N 
ATOM     12  H11 FTA A   1       8.681  21.768  22.500  1.00  0.00     0.159 HD
BRANCH  11  13
ATOM     13  C2  FTA A   1       9.950  20.562  21.329  1.00  0.00     0.028 A 
ATOM     14  C4  FTA A   1      10.375  20.863  20.037  1.00  0.00     0.031 A 
ATOM     15  C6  FTA A   1      10.409  19.843  19.077  1.00  0.00     0.031 A 
ATOM     16  C7  FTA A   1      10.030  18.536  19.372  1.00  0.00     0.032 A 
ATOM     17  C5  FTA A   1       9.634  18.247  20.667  1.00  0.00     0.031 A 
ATOM     18  C3  FTA A   1       9.580  19.248  21.629  1.00  0.00     0.031 A 
BRANCH  16  19
ATOM     19  N8  FTA A   1       9.857  17.541  18.376  1.00  0.00    -0.356 N 
ATOM     20  H1  FTA A   1      10.587  16.819  18.298  1.00  0.00     0.166 HD
BRANCH  19  21
ATOM     21  C24 FTA A   1       8.753  17.458  17.474  1.00  0.00     0.032 A 
ATOM     22  C26 FTA A   1       7.458  17.626  17.902  1.00  0.00     0.029 A 
ATOM     23  C28 FTA A   1       6.429  17.363  17.018  1.00  0.00     0.002 A 
ATOM     24  C30 FTA A   1       6.656  16.969  15.710  1.00  0.00     0.000 A 
ATOM     25  C29 FTA A   1       7.942  16.836  15.260  1.00  0.00     0.002 A 
ATOM     26  C27 FTA A   1       8.986  17.097  16.155  1.00  0.00     0.029 A 
ENDBRANCH  19  21
ENDBRANCH  16  19
ENDBRANCH  11  13
ENDBRANCH   1  11
TORSDOF 5
ENDMDL
