MODEL 1
REMARK VINA RESULT:    -8.155      0.000      0.000
REMARK INTER + INTRA:         -12.262
REMARK INTER:                 -10.394
REMARK INTRA:                  -1.868
REMARK UNBOUND:                -1.008
REMARK  7 active torsions:
REMARK  status: ('A' for Active; 'I' for Inactive)
REMARK    1  A    between atoms: C_5  and  O_6 
REMARK    2  A    between atoms: C_13  and  C_14 
REMARK    3  A    between atoms: C_14  and  C_15 
REMARK    4  A    between atoms: C_15  and  C_16 
REMARK    5  A    between atoms: C_16  and  C_17 
REMARK    6  A    between atoms: C_17  and  N_18 
REMARK    7  A    between atoms: N_22  and  C_26 
ROOT
HETATM    1  N   UNL     1       6.567  10.897  18.790  0.00  0.00    -0.191 NA
HETATM    2  C   UNL     1       6.024  11.215  19.763  0.00  0.00     0.102 C 
HETATM    3  C   UNL     1       5.374  11.605  20.989  0.00  0.00     0.078 A 
HETATM    4  C   UNL     1       5.583  12.921  21.481  0.00  0.00     0.039 A 
HETATM    5  C   UNL     1       4.577  10.711  21.704  0.00  0.00     0.088 A 
HETATM    6  C   UNL     1       4.000  11.093  22.919  0.00  0.00     0.068 A 
HETATM    7  C   UNL     1       4.242  12.383  23.392  0.00  0.00     0.045 A 
HETATM    8  C   UNL     1       5.013  13.335  22.711  0.00  0.00    -0.000 A 
HETATM    9  N   UNL     1       3.827  12.962  24.568  0.00  0.00    -0.365 N 
HETATM   10  H   UNL     1       3.281  12.483  25.278  0.00  0.00     0.165 HD
HETATM   11  C   UNL     1       4.307  14.241  24.664  0.00  0.00     0.096 A 
HETATM   12  C   UNL     1       5.036  14.533  23.525  0.00  0.00    -0.030 A 
ENDROOT
BRANCH   5  13
HETATM   13  O   UNL     1       4.306   9.431  21.316  0.00  0.00    -0.359 OA
HETATM   14  H   UNL     1       3.663   8.988  21.896  0.00  0.00     0.217 HD
ENDBRANCH   5  13
BRANCH  12  15
HETATM   15  C   UNL     1       5.774  15.827  23.319  0.00  0.00     0.041 C 
BRANCH  15  16
HETATM   16  C   UNL     1       7.256  15.694  22.892  0.00  0.00     0.006 C 
BRANCH  16  17
HETATM   17  C   UNL     1       8.194  15.057  23.967  0.00  0.00     0.028 C 
BRANCH  17  18
HETATM   18  C   UNL     1       9.113  14.058  23.295  0.00  0.00     0.235 C 
BRANCH  18  19
HETATM   19  N   UNL     1       9.702  12.933  24.130  0.00  0.00    -0.068 N 
HETATM   20  H   UNL     1      10.506  13.327  24.651  0.00  0.00     0.280 HD
HETATM   21  C   UNL     1      10.261  11.861  23.167  0.00  0.00     0.262 C 
HETATM   22  C   UNL     1       9.094  11.186  22.392  0.00  0.00     0.263 C 
HETATM   23  N   UNL     1       8.010  10.663  23.342  0.00  0.00    -0.057 N 
HETATM   24  C   UNL     1       7.582  11.606  24.472  0.00  0.00     0.263 C 
HETATM   25  H   UNL     1       7.187  10.583  22.722  0.00  0.00     0.281 HD
HETATM   26  C   UNL     1       8.804  12.247  25.159  0.00  0.00     0.262 C 
BRANCH  23  27
HETATM   27  C   UNL     1       8.184   9.256  23.867  0.00  0.00     0.233 C 
HETATM   28  C   UNL     1       9.121   8.435  23.015  0.00  0.00     0.007 C 
HETATM   29  C   UNL     1       8.749   7.311  22.394  0.00  0.00    -0.007 C 
HETATM   30  C   UNL     1       7.423   6.697  22.676  0.00  0.00     0.123 C 
HETATM   31  C   UNL     1       6.855   5.907  21.508  0.00  0.00    -0.008 C 
HETATM   32  C   UNL     1       6.418   7.552  23.379  0.00  0.00    -0.007 C 
HETATM   33  N   UNL     1       6.384   5.253  20.539  0.00  0.00    -0.101 N 
HETATM   34  C   UNL     1       6.791   8.677  23.984  0.00  0.00     0.007 C 
ENDBRANCH  23  27
ENDBRANCH  18  19
ENDBRANCH  17  18
ENDBRANCH  16  17
ENDBRANCH  15  16
ENDBRANCH  12  15
TORSDOF 7
ENDMDL
MODEL 2
REMARK VINA RESULT:    -8.084      1.788      3.141
REMARK INTER + INTRA:         -12.164
REMARK INTER:                 -10.466
REMARK INTRA:                  -1.698
REMARK UNBOUND:                -1.008
REMARK  7 active torsions:
REMARK  status: ('A' for Active; 'I' for Inactive)
REMARK    1  A    between atoms: C_5  and  O_6 
REMARK    2  A    between atoms: C_13  and  C_14 
REMARK    3  A    between atoms: C_14  and  C_15 
REMARK    4  A    between atoms: C_15  and  C_16 
REMARK    5  A    between atoms: C_16  and  C_17 
REMARK    6  A    between atoms: C_17  and  N_18 
REMARK    7  A    between atoms: N_22  and  C_26 
ROOT
HETATM    1  N   UNL     1       2.555  12.829  22.611  0.00  0.00    -0.191 NA
HETATM    2  C   UNL     1       3.632  12.643  22.222  0.00  0.00     0.102 C 
HETATM    3  C   UNL     1       4.963  12.428  21.715  0.00  0.00     0.078 A 
HETATM    4  C   UNL     1       5.926  13.460  21.871  0.00  0.00     0.039 A 
HETATM    5  C   UNL     1       5.306  11.248  21.054  0.00  0.00     0.088 A 
HETATM    6  C   UNL     1       6.587  11.082  20.522  0.00  0.00     0.068 A 
HETATM    7  C   UNL     1       7.507  12.121  20.667  0.00  0.00     0.045 A 
HETATM    8  C   UNL     1       7.232  13.321  21.339  0.00  0.00    -0.000 A 
HETATM    9  N   UNL     1       8.795  12.207  20.193  0.00  0.00    -0.365 N 
HETATM   10  H   UNL     1       9.245  11.489  19.632  0.00  0.00     0.165 HD
HETATM   11  C   UNL     1       9.347  13.413  20.530  0.00  0.00     0.096 A 
HETATM   12  C   UNL     1       8.425  14.139  21.264  0.00  0.00    -0.030 A 
ENDROOT
BRANCH   5  13
HETATM   13  O   UNL     1       4.461  10.194  20.859  0.00  0.00    -0.359 OA
HETATM   14  H   UNL     1       3.530  10.419  21.028  0.00  0.00     0.217 HD
ENDBRANCH   5  13
BRANCH  12  15
HETATM   15  C   UNL     1       8.664  15.546  21.740  0.00  0.00     0.041 C 
BRANCH  15  16
HETATM   16  C   UNL     1      10.120  15.878  22.147  0.00  0.00     0.006 C 
BRANCH  16  17
HETATM   17  C   UNL     1      10.352  16.038  23.684  0.00  0.00     0.028 C 
BRANCH  17  18
HETATM   18  C   UNL     1      11.553  15.211  24.093  0.00  0.00     0.235 C 
BRANCH  18  19
HETATM   19  N   UNL     1      11.385  14.178  25.196  0.00  0.00    -0.068 N 
HETATM   20  H   UNL     1      11.929  14.511  26.013  0.00  0.00     0.280 HD
HETATM   21  C   UNL     1      12.033  12.858  24.720  0.00  0.00     0.262 C 
HETATM   22  C   UNL     1      11.226  12.273  23.526  0.00  0.00     0.263 C 
HETATM   23  N   UNL     1       9.735  12.149  23.857  0.00  0.00    -0.057 N 
HETATM   24  C   UNL     1       9.088  13.353  24.551  0.00  0.00     0.263 C 
HETATM   25  H   UNL     1       9.299  12.103  22.920  0.00  0.00     0.281 HD
HETATM   26  C   UNL     1       9.973  13.878  25.699  0.00  0.00     0.262 C 
BRANCH  23  27
HETATM   27  C   UNL     1       9.285  10.860  24.507  0.00  0.00     0.233 C 
HETATM   28  C   UNL     1      10.041   9.660  23.992  0.00  0.00     0.007 C 
HETATM   29  C   UNL     1       9.449   8.632  23.377  0.00  0.00    -0.007 C 
HETATM   30  C   UNL     1       7.965   8.526  23.344  0.00  0.00     0.123 C 
HETATM   31  C   UNL     1       7.433   7.787  22.127  0.00  0.00    -0.008 C 
HETATM   32  C   UNL     1       7.192   9.756  23.695  0.00  0.00    -0.007 C 
HETATM   33  N   UNL     1       6.992   7.175  21.117  0.00  0.00    -0.101 N 
HETATM   34  C   UNL     1       7.788  10.783  24.296  0.00  0.00     0.007 C 
ENDBRANCH  23  27
ENDBRANCH  18  19
ENDBRANCH  17  18
ENDBRANCH  16  17
ENDBRANCH  15  16
ENDBRANCH  12  15
TORSDOF 7
ENDMDL
MODEL 3
REMARK VINA RESULT:    -8.031      1.548      2.010
REMARK INTER + INTRA:         -12.091
REMARK INTER:                 -10.600
REMARK INTRA:                  -1.491
REMARK UNBOUND:                -1.008
REMARK  7 active torsions:
REMARK  status: ('A' for Active; 'I' for Inactive)
REMARK    1  A    between atoms: C_5  and  O_6 
REMARK    2  A    between atoms: C_13  and  C_14 
REMARK    3  A    between atoms: C_14  and  C_15 
REMARK    4  A    between atoms: C_15  and  C_16 
REMARK    5  A    between atoms: C_16  and  C_17 
REMARK    6  A    between atoms: C_17  and  N_18 
REMARK    7  A    between atoms: N_22  and  C_26 
ROOT
HETATM    1  N   UNL     1       4.682   9.808  20.352  0.00  0.00    -0.191 NA
HETATM    2  C   UNL     1       4.730  10.836  20.887  0.00  0.00     0.102 C 
HETATM    3  C   UNL     1       4.804  12.100  21.575  0.00  0.00     0.078 A 
HETATM    4  C   UNL     1       6.005  12.853  21.487  0.00  0.00     0.039 A 
HETATM    5  C   UNL     1       3.738  12.574  22.340  0.00  0.00     0.088 A 
HETATM    6  C   UNL     1       3.851  13.776  23.044  0.00  0.00     0.068 A 
HETATM    7  C   UNL     1       5.050  14.484  22.960  0.00  0.00     0.045 A 
HETATM    8  C   UNL     1       6.148  14.075  22.192  0.00  0.00    -0.000 A 
HETATM    9  N   UNL     1       5.408  15.651  23.593  0.00  0.00    -0.365 N 
HETATM   10  H   UNL     1       4.814  16.151  24.247  0.00  0.00     0.165 HD
HETATM   11  C   UNL     1       6.691  15.997  23.262  0.00  0.00     0.096 A 
HETATM   12  C   UNL     1       7.194  15.061  22.375  0.00  0.00    -0.030 A 
ENDROOT
BRANCH   5  13
HETATM   13  O   UNL     1       2.541  11.933  22.484  0.00  0.00    -0.359 OA
HETATM   14  H   UNL     1       1.786  12.473  22.195  0.00  0.00     0.217 HD
ENDBRANCH   5  13
BRANCH  12  15
HETATM   15  C   UNL     1       8.604  15.082  21.855  0.00  0.00     0.041 C 
BRANCH  15  16
HETATM   16  C   UNL     1       9.583  16.016  22.607  0.00  0.00     0.006 C 
BRANCH  16  17
HETATM   17  C   UNL     1      10.922  15.343  23.051  0.00  0.00     0.028 C 
BRANCH  17  18
HETATM   18  C   UNL     1      11.012  13.962  22.436  0.00  0.00     0.235 C 
BRANCH  18  19
HETATM   19  N   UNL     1      11.271  12.774  23.348  0.00  0.00    -0.068 N 
HETATM   20  H   UNL     1      12.277  12.788  23.593  0.00  0.00     0.280 HD
HETATM   21  C   UNL     1      11.015  11.482  22.538  0.00  0.00     0.262 C 
HETATM   22  C   UNL     1       9.504  11.368  22.187  0.00  0.00     0.263 C 
HETATM   23  N   UNL     1       8.621  11.505  23.432  0.00  0.00    -0.057 N 
HETATM   24  C   UNL     1       8.980  12.638  24.401  0.00  0.00     0.263 C 
HETATM   25  H   UNL     1       7.705  11.766  23.031  0.00  0.00     0.281 HD
HETATM   26  C   UNL     1      10.498  12.688  24.664  0.00  0.00     0.262 C 
BRANCH  23  27
HETATM   27  C   UNL     1       8.314  10.237  24.195  0.00  0.00     0.233 C 
HETATM   28  C   UNL     1       9.383   9.186  24.019  0.00  0.00     0.007 C 
HETATM   29  C   UNL     1       9.146   7.984  23.485  0.00  0.00    -0.007 C 
HETATM   30  C   UNL     1       7.752   7.541  23.214  0.00  0.00     0.123 C 
HETATM   31  C   UNL     1       7.637   6.560  22.059  0.00  0.00    -0.008 C 
HETATM   32  C   UNL     1       6.693   8.597  23.222  0.00  0.00    -0.007 C 
HETATM   33  N   UNL     1       7.542   5.747  21.100  0.00  0.00    -0.101 N 
HETATM   34  C   UNL     1       6.938   9.797  23.743  0.00  0.00     0.007 C 
ENDBRANCH  23  27
ENDBRANCH  18  19
ENDBRANCH  17  18
ENDBRANCH  16  17
ENDBRANCH  15  16
ENDBRANCH  12  15
TORSDOF 7
ENDMDL
MODEL 4
REMARK VINA RESULT:    -7.940      3.532      6.431
REMARK INTER + INTRA:         -11.966
REMARK INTER:                 -10.980
REMARK INTRA:                  -0.986
REMARK UNBOUND:                -1.008
REMARK  7 active torsions:
REMARK  status: ('A' for Active; 'I' for Inactive)
REMARK    1  A    between atoms: C_5  and  O_6 
REMARK    2  A    between atoms: C_13  and  C_14 
REMARK    3  A    between atoms: C_14  and  C_15 
REMARK    4  A    between atoms: C_15  and  C_16 
REMARK    5  A    between atoms: C_16  and  C_17 
REMARK    6  A    between atoms: C_17  and  N_18 
REMARK    7  A    between atoms: N_22  and  C_26 
ROOT
HETATM    1  N   UNL     1      12.353  14.225  27.825  0.00  0.00    -0.191 NA
HETATM    2  C   UNL     1      11.995  14.468  26.750  0.00  0.00     0.102 C 
HETATM    3  C   UNL     1      11.541  14.741  25.410  0.00  0.00     0.078 A 
HETATM    4  C   UNL     1      10.154  14.950  25.191  0.00  0.00     0.039 A 
HETATM    5  C   UNL     1      12.430  14.773  24.335  0.00  0.00     0.088 A 
HETATM    6  C   UNL     1      11.961  14.986  23.036  0.00  0.00     0.068 A 
HETATM    7  C   UNL     1      10.590  15.164  22.844  0.00  0.00     0.045 A 
HETATM    8  C   UNL     1       9.650  15.166  23.884  0.00  0.00    -0.000 A 
HETATM    9  N   UNL     1       9.899  15.339  21.669  0.00  0.00    -0.365 N 
HETATM   10  H   UNL     1      10.329  15.339  20.749  0.00  0.00     0.165 HD
HETATM   11  C   UNL     1       8.557  15.447  21.918  0.00  0.00     0.096 A 
HETATM   12  C   UNL     1       8.346  15.367  23.284  0.00  0.00    -0.030 A 
ENDROOT
BRANCH   5  13
HETATM   13  O   UNL     1      13.779  14.593  24.437  0.00  0.00    -0.359 OA
HETATM   14  H   UNL     1      14.101  13.837  23.918  0.00  0.00     0.217 HD
ENDBRANCH   5  13
BRANCH  12  15
HETATM   15  C   UNL     1       6.982  15.373  23.916  0.00  0.00     0.041 C 
BRANCH  15  16
HETATM   16  C   UNL     1       6.630  14.127  24.764  0.00  0.00     0.006 C 
BRANCH  16  17
HETATM   17  C   UNL     1       5.495  13.229  24.173  0.00  0.00     0.028 C 
BRANCH  17  18
HETATM   18  C   UNL     1       6.103  11.947  23.643  0.00  0.00     0.235 C 
BRANCH  18  19
HETATM   19  N   UNL     1       6.978  12.015  22.401  0.00  0.00    -0.068 N 
HETATM   20  H   UNL     1       7.810  12.584  22.643  0.00  0.00     0.280 HD
HETATM   21  C   UNL     1       6.200  12.782  21.307  0.00  0.00     0.262 C 
HETATM   22  C   UNL     1       4.966  11.951  20.856  0.00  0.00     0.263 C 
HETATM   23  N   UNL     1       5.358  10.525  20.455  0.00  0.00    -0.057 N 
HETATM   24  C   UNL     1       6.325   9.794  21.394  0.00  0.00     0.263 C 
HETATM   25  H   UNL     1       4.462  10.015  20.530  0.00  0.00     0.281 HD
HETATM   26  C   UNL     1       7.497  10.706  21.808  0.00  0.00     0.262 C 
BRANCH  23  27
HETATM   27  C   UNL     1       5.756  10.306  19.013  0.00  0.00     0.233 C 
HETATM   28  C   UNL     1       4.788  10.940  18.045  0.00  0.00     0.007 C 
HETATM   29  C   UNL     1       4.101  10.242  17.135  0.00  0.00    -0.007 C 
HETATM   30  C   UNL     1       4.411   8.806  16.895  0.00  0.00     0.123 C 
HETATM   31  C   UNL     1       3.218   7.997  16.411  0.00  0.00    -0.008 C 
HETATM   32  C   UNL     1       5.237   8.111  17.929  0.00  0.00    -0.007 C 
HETATM   33  N   UNL     1       2.228   7.326  16.011  0.00  0.00    -0.101 N 
HETATM   34  C   UNL     1       5.909   8.810  18.841  0.00  0.00     0.007 C 
ENDBRANCH  23  27
ENDBRANCH  18  19
ENDBRANCH  17  18
ENDBRANCH  16  17
ENDBRANCH  15  16
ENDBRANCH  12  15
TORSDOF 7
ENDMDL
MODEL 5
REMARK VINA RESULT:    -7.865      1.803      5.914
REMARK INTER + INTRA:         -11.862
REMARK INTER:                 -10.844
REMARK INTRA:                  -1.018
REMARK UNBOUND:                -1.008
REMARK  7 active torsions:
REMARK  status: ('A' for Active; 'I' for Inactive)
REMARK    1  A    between atoms: C_5  and  O_6 
REMARK    2  A    between atoms: C_13  and  C_14 
REMARK    3  A    between atoms: C_14  and  C_15 
REMARK    4  A    between atoms: C_15  and  C_16 
REMARK    5  A    between atoms: C_16  and  C_17 
REMARK    6  A    between atoms: C_17  and  N_18 
REMARK    7  A    between atoms: N_22  and  C_26 
ROOT
HETATM    1  N   UNL     1       4.221  11.596  19.502  0.00  0.00    -0.191 NA
HETATM    2  C   UNL     1       4.750  10.719  20.046  0.00  0.00     0.102 C 
HETATM    3  C   UNL     1       5.429   9.631  20.701  0.00  0.00     0.078 A 
HETATM    4  C   UNL     1       6.515   9.929  21.567  0.00  0.00     0.039 A 
HETATM    5  C   UNL     1       5.059   8.304  20.477  0.00  0.00     0.088 A 
HETATM    6  C   UNL     1       5.766   7.261  21.080  0.00  0.00     0.068 A 
HETATM    7  C   UNL     1       6.844   7.579  21.907  0.00  0.00     0.045 A 
HETATM    8  C   UNL     1       7.251   8.890  22.191  0.00  0.00    -0.000 A 
HETATM    9  N   UNL     1       7.708   6.734  22.563  0.00  0.00    -0.365 N 
HETATM   10  H   UNL     1       7.670   5.721  22.503  0.00  0.00     0.165 HD
HETATM   11  C   UNL     1       8.650   7.454  23.248  0.00  0.00     0.096 A 
HETATM   12  C   UNL     1       8.401   8.804  23.069  0.00  0.00    -0.030 A 
ENDROOT
BRANCH   5  13
HETATM   13  O   UNL     1       4.029   7.911  19.672  0.00  0.00    -0.359 OA
HETATM   14  H   UNL     1       4.160   8.157  18.741  0.00  0.00     0.217 HD
ENDBRANCH   5  13
BRANCH  12  15
HETATM   15  C   UNL     1       9.282   9.892  23.617  0.00  0.00     0.041 C 
BRANCH  15  16
HETATM   16  C   UNL     1      10.757   9.861  23.147  0.00  0.00     0.006 C 
BRANCH  16  17
HETATM   17  C   UNL     1      11.066  10.741  21.893  0.00  0.00     0.028 C 
BRANCH  17  18
HETATM   18  C   UNL     1      11.233  12.182  22.328  0.00  0.00     0.235 C 
BRANCH  18  19
HETATM   19  N   UNL     1      10.579  13.274  21.496  0.00  0.00    -0.068 N 
HETATM   20  H   UNL     1      11.256  13.544  20.759  0.00  0.00     0.280 HD
HETATM   21  C   UNL     1      10.371  14.509  22.402  0.00  0.00     0.262 C 
HETATM   22  C   UNL     1       9.317  14.187  23.499  0.00  0.00     0.263 C 
HETATM   23  N   UNL     1       8.021  13.634  22.896  0.00  0.00    -0.057 N 
HETATM   24  C   UNL     1       8.178  12.562  21.811  0.00  0.00     0.263 C 
HETATM   25  H   UNL     1       7.587  13.151  23.700  0.00  0.00     0.281 HD
HETATM   26  C   UNL     1       9.262  12.956  20.789  0.00  0.00     0.262 C 
BRANCH  23  27
HETATM   27  C   UNL     1       6.970  14.642  22.493  0.00  0.00     0.233 C 
HETATM   28  C   UNL     1       6.725  15.678  23.562  0.00  0.00     0.007 C 
HETATM   29  C   UNL     1       5.538  15.856  24.150  0.00  0.00    -0.007 C 
HETATM   30  C   UNL     1       4.328  15.164  23.629  0.00  0.00     0.123 C 
HETATM   31  C   UNL     1       3.276  14.889  24.692  0.00  0.00    -0.008 C 
HETATM   32  C   UNL     1       4.554  14.023  22.689  0.00  0.00    -0.007 C 
HETATM   33  N   UNL     1       2.405  14.661  25.574  0.00  0.00    -0.101 N 
HETATM   34  C   UNL     1       5.742  13.843  22.117  0.00  0.00     0.007 C 
ENDBRANCH  23  27
ENDBRANCH  18  19
ENDBRANCH  17  18
ENDBRANCH  16  17
ENDBRANCH  15  16
ENDBRANCH  12  15
TORSDOF 7
ENDMDL
MODEL 6
REMARK VINA RESULT:    -7.817      1.646      6.056
REMARK INTER + INTRA:         -11.795
REMARK INTER:                  -9.981
REMARK INTRA:                  -1.814
REMARK UNBOUND:                -1.008
REMARK  7 active torsions:
REMARK  status: ('A' for Active; 'I' for Inactive)
REMARK    1  A    between atoms: C_5  and  O_6 
REMARK    2  A    between atoms: C_13  and  C_14 
REMARK    3  A    between atoms: C_14  and  C_15 
REMARK    4  A    between atoms: C_15  and  C_16 
REMARK    5  A    between atoms: C_16  and  C_17 
REMARK    6  A    between atoms: C_17  and  N_18 
REMARK    7  A    between atoms: N_22  and  C_26 
ROOT
HETATM    1  N   UNL     1       4.622  12.372  25.566  0.00  0.00    -0.191 NA
HETATM    2  C   UNL     1       4.819  11.590  24.734  0.00  0.00     0.102 C 
HETATM    3  C   UNL     1       5.089  10.633  23.690  0.00  0.00     0.078 A 
HETATM    4  C   UNL     1       6.094   9.654  23.908  0.00  0.00     0.039 A 
HETATM    5  C   UNL     1       4.406  10.674  22.474  0.00  0.00     0.088 A 
HETATM    6  C   UNL     1       4.721   9.771  21.455  0.00  0.00     0.068 A 
HETATM    7  C   UNL     1       5.730   8.835  21.685  0.00  0.00     0.045 A 
HETATM    8  C   UNL     1       6.436   8.727  22.891  0.00  0.00    -0.000 A 
HETATM    9  N   UNL     1       6.241   7.889  20.828  0.00  0.00    -0.365 N 
HETATM   10  H   UNL     1       5.939   7.768  19.866  0.00  0.00     0.165 HD
HETATM   11  C   UNL     1       7.247   7.188  21.438  0.00  0.00     0.096 A 
HETATM   12  C   UNL     1       7.398   7.654  22.733  0.00  0.00    -0.030 A 
ENDROOT
BRANCH   5  13
HETATM   13  O   UNL     1       3.420  11.566  22.167  0.00  0.00    -0.359 OA
HETATM   14  H   UNL     1       2.747  11.197  21.570  0.00  0.00     0.217 HD
ENDBRANCH   5  13
BRANCH  12  15
HETATM   15  C   UNL     1       8.462   7.164  23.674  0.00  0.00     0.041 C 
BRANCH  15  16
HETATM   16  C   UNL     1       9.519   8.213  24.097  0.00  0.00     0.006 C 
BRANCH  16  17
HETATM   17  C   UNL     1      10.081   9.087  22.930  0.00  0.00     0.028 C 
BRANCH  17  18
HETATM   18  C   UNL     1      10.948  10.187  23.506  0.00  0.00     0.235 C 
BRANCH  18  19
HETATM   19  N   UNL     1      10.985  11.532  22.798  0.00  0.00    -0.068 N 
HETATM   20  H   UNL     1      11.899  11.598  22.315  0.00  0.00     0.280 HD
HETATM   21  C   UNL     1      10.953  12.642  23.873  0.00  0.00     0.262 C 
HETATM   22  C   UNL     1       9.578  12.635  24.599  0.00  0.00     0.263 C 
HETATM   23  N   UNL     1       8.412  12.698  23.607  0.00  0.00    -0.057 N 
HETATM   24  C   UNL     1       8.507  11.777  22.385  0.00  0.00     0.263 C 
HETATM   25  H   UNL     1       7.621  12.335  24.165  0.00  0.00     0.281 HD
HETATM   26  C   UNL     1       9.911  11.830  21.752  0.00  0.00     0.262 C 
BRANCH  23  27
HETATM   27  C   UNL     1       7.939  14.073  23.194  0.00  0.00     0.233 C 
HETATM   28  C   UNL     1       7.576  14.936  24.378  0.00  0.00     0.007 C 
HETATM   29  C   UNL     1       6.352  15.438  24.568  0.00  0.00    -0.007 C 
HETATM   30  C   UNL     1       5.319  15.333  23.501  0.00  0.00     0.123 C 
HETATM   31  C   UNL     1       3.895  15.293  24.031  0.00  0.00    -0.008 C 
HETATM   32  C   UNL     1       5.585  14.360  22.397  0.00  0.00    -0.007 C 
HETATM   33  N   UNL     1       2.714  15.259  24.471  0.00  0.00    -0.101 N 
HETATM   34  C   UNL     1       6.803  13.853  22.220  0.00  0.00     0.007 C 
ENDBRANCH  23  27
ENDBRANCH  18  19
ENDBRANCH  17  18
ENDBRANCH  16  17
ENDBRANCH  15  16
ENDBRANCH  12  15
TORSDOF 7
ENDMDL
MODEL 7
REMARK VINA RESULT:    -7.802      2.859      6.305
REMARK INTER + INTRA:         -11.774
REMARK INTER:                 -10.143
REMARK INTRA:                  -1.631
REMARK UNBOUND:                -1.008
REMARK  7 active torsions:
REMARK  status: ('A' for Active; 'I' for Inactive)
REMARK    1  A    between atoms: C_5  and  O_6 
REMARK    2  A    between atoms: C_13  and  C_14 
REMARK    3  A    between atoms: C_14  and  C_15 
REMARK    4  A    between atoms: C_15  and  C_16 
REMARK    5  A    between atoms: C_16  and  C_17 
REMARK    6  A    between atoms: C_17  and  N_18 
REMARK    7  A    between atoms: N_22  and  C_26 
ROOT
HETATM    1  N   UNL     1       9.973  16.789  21.422  0.00  0.00    -0.191 NA
HETATM    2  C   UNL     1       9.726  15.657  21.430  0.00  0.00     0.102 C 
HETATM    3  C   UNL     1       9.408  14.252  21.469  0.00  0.00     0.078 A 
HETATM    4  C   UNL     1       8.068  13.851  21.221  0.00  0.00     0.039 A 
HETATM    5  C   UNL     1      10.377  13.296  21.772  0.00  0.00     0.088 A 
HETATM    6  C   UNL     1      10.035  11.943  21.857  0.00  0.00     0.068 A 
HETATM    7  C   UNL     1       8.707  11.579  21.633  0.00  0.00     0.045 A 
HETATM    8  C   UNL     1       7.692  12.487  21.303  0.00  0.00    -0.000 A 
HETATM    9  N   UNL     1       8.131  10.332  21.708  0.00  0.00    -0.365 N 
HETATM   10  H   UNL     1       8.630   9.488  21.969  0.00  0.00     0.165 HD
HETATM   11  C   UNL     1       6.789  10.413  21.444  0.00  0.00     0.096 A 
HETATM   12  C   UNL     1       6.465  11.728  21.164  0.00  0.00    -0.030 A 
ENDROOT
BRANCH   5  13
HETATM   13  O   UNL     1      11.691  13.573  22.018  0.00  0.00    -0.359 OA
HETATM   14  H   UNL     1      12.291  12.875  21.706  0.00  0.00     0.217 HD
ENDBRANCH   5  13
BRANCH  12  15
HETATM   15  C   UNL     1       5.062  12.201  20.901  0.00  0.00     0.041 C 
BRANCH  15  16
HETATM   16  C   UNL     1       4.046  11.957  22.043  0.00  0.00     0.006 C 
BRANCH  16  17
HETATM   17  C   UNL     1       3.381  13.250  22.617  0.00  0.00     0.028 C 
BRANCH  17  18
HETATM   18  C   UNL     1       4.464  14.201  23.081  0.00  0.00     0.235 C 
BRANCH  18  19
HETATM   19  N   UNL     1       4.805  14.249  24.562  0.00  0.00    -0.068 N 
HETATM   20  H   UNL     1       3.919  14.403  25.076  0.00  0.00     0.280 HD
HETATM   21  C   UNL     1       5.699  15.486  24.809  0.00  0.00     0.262 C 
HETATM   22  C   UNL     1       7.074  15.292  24.109  0.00  0.00     0.263 C 
HETATM   23  N   UNL     1       7.729  13.964  24.503  0.00  0.00    -0.057 N 
HETATM   24  C   UNL     1       6.820  12.729  24.503  0.00  0.00     0.263 C 
HETATM   25  H   UNL     1       8.405  13.809  23.736  0.00  0.00     0.281 HD
HETATM   26  C   UNL     1       5.473  13.027  25.191  0.00  0.00     0.262 C 
BRANCH  23  27
HETATM   27  C   UNL     1       8.605  13.974  25.735  0.00  0.00     0.233 C 
HETATM   28  C   UNL     1       9.367  15.267  25.890  0.00  0.00     0.007 C 
HETATM   29  C   UNL     1      10.702  15.332  25.907  0.00  0.00    -0.007 C 
HETATM   30  C   UNL     1      11.516  14.088  25.974  0.00  0.00     0.123 C 
HETATM   31  C   UNL     1      12.885  14.218  25.324  0.00  0.00    -0.008 C 
HETATM   32  C   UNL     1      10.816  12.804  25.663  0.00  0.00    -0.007 C 
HETATM   33  N   UNL     1      14.019  14.327  24.784  0.00  0.00    -0.101 N 
HETATM   34  C   UNL     1       9.486  12.748  25.634  0.00  0.00     0.007 C 
ENDBRANCH  23  27
ENDBRANCH  18  19
ENDBRANCH  17  18
ENDBRANCH  16  17
ENDBRANCH  15  16
ENDBRANCH  12  15
TORSDOF 7
ENDMDL
MODEL 8
REMARK VINA RESULT:    -7.761      3.247      7.512
REMARK INTER + INTRA:         -11.718
REMARK INTER:                 -10.710
REMARK INTRA:                  -1.008
REMARK UNBOUND:                -1.008
REMARK  7 active torsions:
REMARK  status: ('A' for Active; 'I' for Inactive)
REMARK    1  A    between atoms: C_5  and  O_6 
REMARK    2  A    between atoms: C_13  and  C_14 
REMARK    3  A    between atoms: C_14  and  C_15 
REMARK    4  A    between atoms: C_15  and  C_16 
REMARK    5  A    between atoms: C_16  and  C_17 
REMARK    6  A    between atoms: C_17  and  N_18 
REMARK    7  A    between atoms: N_22  and  C_26 
ROOT
HETATM    1  N   UNL     1      12.069  14.195  27.850  0.00  0.00    -0.191 NA
HETATM    2  C   UNL     1      11.805  14.073  26.728  0.00  0.00     0.102 C 
HETATM    3  C   UNL     1      11.507  13.913  25.327  0.00  0.00     0.078 A 
HETATM    4  C   UNL     1      11.306  12.603  24.819  0.00  0.00     0.039 A 
HETATM    5  C   UNL     1      11.444  15.011  24.469  0.00  0.00     0.088 A 
HETATM    6  C   UNL     1      11.207  14.830  23.103  0.00  0.00     0.068 A 
HETATM    7  C   UNL     1      11.037  13.530  22.626  0.00  0.00     0.045 A 
HETATM    8  C   UNL     1      11.066  12.388  23.438  0.00  0.00    -0.000 A 
HETATM    9  N   UNL     1      10.843  13.105  21.333  0.00  0.00    -0.365 N 
HETATM   10  H   UNL     1      10.819  13.722  20.527  0.00  0.00     0.165 HD
HETATM   11  C   UNL     1      10.752  11.739  21.290  0.00  0.00     0.096 A 
HETATM   12  C   UNL     1      10.864  11.241  22.576  0.00  0.00    -0.030 A 
ENDROOT
BRANCH   5  13
HETATM   13  O   UNL     1      11.614  16.310  24.855  0.00  0.00    -0.359 OA
HETATM   14  H   UNL     1      11.164  16.941  24.269  0.00  0.00     0.217 HD
ENDBRANCH   5  13
BRANCH  12  15
HETATM   15  C   UNL     1      10.883   9.773  22.901  0.00  0.00     0.041 C 
BRANCH  15  16
HETATM   16  C   UNL     1       9.681   9.252  23.726  0.00  0.00     0.006 C 
BRANCH  16  17
HETATM   17  C   UNL     1       8.283   9.754  23.239  0.00  0.00     0.028 C 
BRANCH  17  18
HETATM   18  C   UNL     1       7.863  10.942  24.080  0.00  0.00     0.235 C 
BRANCH  18  19
HETATM   19  N   UNL     1       7.512  12.243  23.377  0.00  0.00    -0.068 N 
HETATM   20  H   UNL     1       8.393  12.634  22.997  0.00  0.00     0.280 HD
HETATM   21  C   UNL     1       6.990  13.238  24.439  0.00  0.00     0.262 C 
HETATM   22  C   UNL     1       5.633  12.737  25.010  0.00  0.00     0.263 C 
HETATM   23  N   UNL     1       4.626  12.435  23.895  0.00  0.00    -0.057 N 
HETATM   24  C   UNL     1       5.156  11.645  22.693  0.00  0.00     0.263 C 
HETATM   25  H   UNL     1       3.953  11.806  24.364  0.00  0.00     0.281 HD
HETATM   26  C   UNL     1       6.515  12.196  22.219  0.00  0.00     0.262 C 
BRANCH  23  27
HETATM   27  C   UNL     1       3.757  13.581  23.431  0.00  0.00     0.233 C 
HETATM   28  C   UNL     1       2.885  14.128  24.535  0.00  0.00     0.007 C 
HETATM   29  C   UNL     1       1.550  14.131  24.478  0.00  0.00    -0.007 C 
HETATM   30  C   UNL     1       0.847  13.771  23.216  0.00  0.00     0.123 C 
HETATM   31  C   UNL     1      -0.529  13.164  23.436  0.00  0.00    -0.008 C 
HETATM   32  C   UNL     1       1.656  13.079  22.167  0.00  0.00    -0.007 C 
HETATM   33  N   UNL     1      -1.670  12.661  23.618  0.00  0.00    -0.101 N 
HETATM   34  C   UNL     1       2.986  13.067  22.235  0.00  0.00     0.007 C 
ENDBRANCH  23  27
ENDBRANCH  18  19
ENDBRANCH  17  18
ENDBRANCH  16  17
ENDBRANCH  15  16
ENDBRANCH  12  15
TORSDOF 7
ENDMDL
MODEL 9
REMARK VINA RESULT:    -7.715      3.387      6.525
REMARK INTER + INTRA:         -11.654
REMARK INTER:                 -10.127
REMARK INTRA:                  -1.527
REMARK UNBOUND:                -1.008
REMARK  7 active torsions:
REMARK  status: ('A' for Active; 'I' for Inactive)
REMARK    1  A    between atoms: C_5  and  O_6 
REMARK    2  A    between atoms: C_13  and  C_14 
REMARK    3  A    between atoms: C_14  and  C_15 
REMARK    4  A    between atoms: C_15  and  C_16 
REMARK    5  A    between atoms: C_16  and  C_17 
REMARK    6  A    between atoms: C_17  and  N_18 
REMARK    7  A    between atoms: N_22  and  C_26 
ROOT
HETATM    1  N   UNL     1      10.289  12.214  26.203  0.00  0.00    -0.191 NA
HETATM    2  C   UNL     1       9.266  12.658  25.885  0.00  0.00     0.102 C 
HETATM    3  C   UNL     1       8.007  13.217  25.462  0.00  0.00     0.078 A 
HETATM    4  C   UNL     1       7.162  12.437  24.630  0.00  0.00     0.039 A 
HETATM    5  C   UNL     1       7.626  14.508  25.829  0.00  0.00     0.088 A 
HETATM    6  C   UNL     1       6.426  15.051  25.364  0.00  0.00     0.068 A 
HETATM    7  C   UNL     1       5.625  14.272  24.528  0.00  0.00     0.045 A 
HETATM    8  C   UNL     1       5.939  12.962  24.141  0.00  0.00    -0.000 A 
HETATM    9  N   UNL     1       4.439  14.604  23.914  0.00  0.00    -0.365 N 
HETATM   10  H   UNL     1       3.994  15.514  23.989  0.00  0.00     0.165 HD
HETATM   11  C   UNL     1       3.991  13.560  23.150  0.00  0.00     0.096 A 
HETATM   12  C   UNL     1       4.876  12.503  23.271  0.00  0.00    -0.030 A 
ENDROOT
BRANCH   5  13
HETATM   13  O   UNL     1       8.360  15.336  26.630  0.00  0.00    -0.359 OA
HETATM   14  H   UNL     1       8.080  15.308  27.561  0.00  0.00     0.217 HD
ENDBRANCH   5  13
BRANCH  12  15
HETATM   15  C   UNL     1       4.739  11.214  22.509  0.00  0.00     0.041 C 
BRANCH  15  16
HETATM   16  C   UNL     1       5.543  11.125  21.190  0.00  0.00     0.006 C 
BRANCH  16  17
HETATM   17  C   UNL     1       6.478  12.345  20.907  0.00  0.00     0.028 C 
BRANCH  17  18
HETATM   18  C   UNL     1       7.903  11.854  20.760  0.00  0.00     0.235 C 
BRANCH  18  19
HETATM   19  N   UNL     1       8.965  12.833  20.285  0.00  0.00    -0.068 N 
HETATM   20  H   UNL     1       8.989  12.782  19.250  0.00  0.00     0.280 HD
HETATM   21  C   UNL     1      10.338  12.340  20.800  0.00  0.00     0.262 C 
HETATM   22  C   UNL     1      10.390  12.447  22.350  0.00  0.00     0.263 C 
HETATM   23  N   UNL     1      10.013  13.852  22.835  0.00  0.00    -0.057 N 
HETATM   24  C   UNL     1       8.783  14.491  22.180  0.00  0.00     0.263 C 
HETATM   25  H   UNL     1       9.747  13.686  23.820  0.00  0.00     0.281 HD
HETATM   26  C   UNL     1       8.806  14.309  20.649  0.00  0.00     0.262 C 
BRANCH  23  27
HETATM   27  C   UNL     1      11.135  14.859  22.946  0.00  0.00     0.233 C 
HETATM   28  C   UNL     1      12.492  14.204  23.019  0.00  0.00     0.007 C 
HETATM   29  C   UNL     1      13.320  14.350  24.059  0.00  0.00    -0.007 C 
HETATM   30  C   UNL     1      13.020  15.341  25.127  0.00  0.00     0.123 C 
HETATM   31  C   UNL     1      13.582  14.961  26.488  0.00  0.00    -0.008 C 
HETATM   32  C   UNL     1      11.628  15.884  25.175  0.00  0.00    -0.007 C 
HETATM   33  N   UNL     1      14.047  14.645  27.616  0.00  0.00    -0.101 N 
HETATM   34  C   UNL     1      10.804  15.725  24.142  0.00  0.00     0.007 C 
ENDBRANCH  23  27
ENDBRANCH  18  19
ENDBRANCH  17  18
ENDBRANCH  16  17
ENDBRANCH  15  16
ENDBRANCH  12  15
TORSDOF 7
ENDMDL
