MODEL 1
REMARK VINA RESULT:    -7.939      0.000      0.000
REMARK INTER + INTRA:         -11.277
REMARK INTER:                 -10.566
REMARK INTRA:                  -0.710
REMARK UNBOUND:                -1.017
REMARK  5 active torsions:
REMARK  status: ('A' for Active; 'I' for Inactive)
REMARK    1  A    between atoms: N8_1  and  C24_2 
REMARK    2  A    between atoms: N8_1  and  C7_8 
REMARK    3  A    between atoms: C2_13  and  N1_14 
REMARK    4  A    between atoms: N1_14  and  C17_15 
REMARK    5  A    between atoms: C14_16  and  C13_19 
ROOT
ATOM      1  C17 FTA A   1       3.968   9.121  24.023  1.00  0.00     0.142 C 
ATOM      2  C14 FTA A   1       3.416   8.131  23.295  1.00  0.00     0.158 C 
ATOM      3  C18 FTA A   1       3.756   6.751  23.567  1.00  0.00     0.069 C 
ATOM      4  N21 FTA A   1       4.165   5.692  23.859  1.00  0.00    -0.197 NA
ENDROOT
BRANCH   2   5
ATOM      5  C13 FTA A   1       2.448   8.467  22.225  1.00  0.00     0.197 A 
ATOM      6  N15 FTA A   1       2.178   7.704  21.091  1.00  0.00    -0.093 NA
ATOM      7  N19 FTA A   1       1.247   8.400  20.332  1.00  0.00    -0.231 N 
ATOM      8  N20 FTA A   1       0.932   9.588  20.974  1.00  0.00    -0.017 NA
ATOM      9  H15 FTA A   1       0.852   8.084  19.434  1.00  0.00     0.200 HD
ATOM     10  N16 FTA A   1       1.668   9.627  22.154  1.00  0.00    -0.090 NA
ENDBRANCH   2   5
BRANCH   1  11
ATOM     11  N1  FTA A   1       4.583  10.135  23.384  1.00  0.00    -0.389 N 
ATOM     12  H11 FTA A   1       4.281  10.344  22.421  1.00  0.00     0.159 HD
BRANCH  11  13
ATOM     13  C2  FTA A   1       5.617  10.940  23.936  1.00  0.00     0.028 A 
ATOM     14  C4  FTA A   1       5.353  11.978  24.826  1.00  0.00     0.031 A 
ATOM     15  C6  FTA A   1       6.381  12.873  25.151  1.00  0.00     0.031 A 
ATOM     16  C7  FTA A   1       7.659  12.759  24.611  1.00  0.00     0.032 A 
ATOM     17  C5  FTA A   1       7.913  11.708  23.748  1.00  0.00     0.031 A 
ATOM     18  C3  FTA A   1       6.903  10.818  23.403  1.00  0.00     0.031 A 
BRANCH  16  19
ATOM     19  N8  FTA A   1       8.649  13.764  24.759  1.00  0.00    -0.356 N 
ATOM     20  H1  FTA A   1       9.443  13.558  25.382  1.00  0.00     0.166 HD
BRANCH  19  21
ATOM     21  C24 FTA A   1       8.636  15.038  24.114  1.00  0.00     0.032 A 
ATOM     22  C26 FTA A   1       9.777  15.796  23.993  1.00  0.00     0.029 A 
ATOM     23  C28 FTA A   1       9.666  17.089  23.517  1.00  0.00     0.002 A 
ATOM     24  C30 FTA A   1       8.455  17.636  23.128  1.00  0.00     0.000 A 
ATOM     25  C29 FTA A   1       7.317  16.878  23.208  1.00  0.00     0.002 A 
ATOM     26  C27 FTA A   1       7.426  15.570  23.694  1.00  0.00     0.029 A 
ENDBRANCH  19  21
ENDBRANCH  16  19
ENDBRANCH  11  13
ENDBRANCH   1  11
TORSDOF 5
ENDMDL
MODEL 2
REMARK VINA RESULT:    -7.593      1.341      2.372
REMARK INTER + INTRA:         -10.829
REMARK INTER:                  -9.914
REMARK INTRA:                  -0.915
REMARK UNBOUND:                -1.017
REMARK  5 active torsions:
REMARK  status: ('A' for Active; 'I' for Inactive)
REMARK    1  A    between atoms: N8_1  and  C24_2 
REMARK    2  A    between atoms: N8_1  and  C7_8 
REMARK    3  A    between atoms: C2_13  and  N1_14 
REMARK    4  A    between atoms: N1_14  and  C17_15 
REMARK    5  A    between atoms: C14_16  and  C13_19 
ROOT
ATOM      1  C17 FTA A   1       2.653  10.963  22.892  1.00  0.00     0.142 C 
ATOM      2  C14 FTA A   1       1.797  10.104  22.304  1.00  0.00     0.158 C 
ATOM      3  C18 FTA A   1       0.404  10.462  22.142  1.00  0.00     0.069 C 
ATOM      4  N21 FTA A   1      -0.699  10.860  22.131  1.00  0.00    -0.197 NA
ENDROOT
BRANCH   2   5
ATOM      5  C13 FTA A   1       2.296   8.800  21.811  1.00  0.00     0.197 A 
ATOM      6  N15 FTA A   1       3.447   8.144  22.244  1.00  0.00    -0.093 NA
ATOM      7  N19 FTA A   1       3.571   6.981  21.495  1.00  0.00    -0.231 N 
ATOM      8  N20 FTA A   1       2.516   6.902  20.598  1.00  0.00    -0.017 NA
ATOM      9  H15 FTA A   1       4.327   6.287  21.590  1.00  0.00     0.200 HD
ATOM     10  N16 FTA A   1       1.718   8.024  20.800  1.00  0.00    -0.090 NA
ENDBRANCH   2   5
BRANCH   1  11
ATOM     11  N1  FTA A   1       3.402  10.531  23.925  1.00  0.00    -0.389 N 
ATOM     12  H11 FTA A   1       3.053   9.723  24.460  1.00  0.00     0.159 HD
BRANCH  11  13
ATOM     13  C2  FTA A   1       4.636  11.106  24.333  1.00  0.00     0.028 A 
ATOM     14  C4  FTA A   1       4.721  12.005  25.393  1.00  0.00     0.031 A 
ATOM     15  C6  FTA A   1       5.917  12.707  25.596  1.00  0.00     0.031 A 
ATOM     16  C7  FTA A   1       7.024  12.537  24.769  1.00  0.00     0.032 A 
ATOM     17  C5  FTA A   1       6.932  11.622  23.735  1.00  0.00     0.031 A 
ATOM     18  C3  FTA A   1       5.751  10.926  23.509  1.00  0.00     0.031 A 
BRANCH  16  19
ATOM     19  N8  FTA A   1       8.163  13.380  24.824  1.00  0.00    -0.356 N 
ATOM     20  H1  FTA A   1       8.968  13.052  25.377  1.00  0.00     0.166 HD
BRANCH  19  21
ATOM     21  C24 FTA A   1       8.285  14.647  24.177  1.00  0.00     0.032 A 
ATOM     22  C26 FTA A   1       9.481  15.324  24.139  1.00  0.00     0.029 A 
ATOM     23  C28 FTA A   1       9.495  16.617  23.652  1.00  0.00     0.002 A 
ATOM     24  C30 FTA A   1       8.357  17.243  23.172  1.00  0.00     0.000 A 
ATOM     25  C29 FTA A   1       7.167  16.565  23.169  1.00  0.00     0.002 A 
ATOM     26  C27 FTA A   1       7.149  15.257  23.666  1.00  0.00     0.029 A 
ENDBRANCH  19  21
ENDBRANCH  16  19
ENDBRANCH  11  13
ENDBRANCH   1  11
TORSDOF 5
ENDMDL
MODEL 3
REMARK VINA RESULT:    -7.421      3.021      4.332
REMARK INTER + INTRA:         -10.607
REMARK INTER:                  -9.624
REMARK INTRA:                  -0.983
REMARK UNBOUND:                -1.017
REMARK  5 active torsions:
REMARK  status: ('A' for Active; 'I' for Inactive)
REMARK    1  A    between atoms: N8_1  and  C24_2 
REMARK    2  A    between atoms: N8_1  and  C7_8 
REMARK    3  A    between atoms: C2_13  and  N1_14 
REMARK    4  A    between atoms: N1_14  and  C17_15 
REMARK    5  A    between atoms: C14_16  and  C13_19 
ROOT
ATOM      1  C17 FTA A   1       1.949   9.704  24.313  1.00  0.00     0.142 C 
ATOM      2  C14 FTA A   1       1.549   9.718  23.026  1.00  0.00     0.158 C 
ATOM      3  C18 FTA A   1       2.177   8.842  22.060  1.00  0.00     0.069 C 
ATOM      4  N21 FTA A   1       2.810   8.125  21.382  1.00  0.00    -0.197 NA
ENDROOT
BRANCH   2   5
ATOM      5  C13 FTA A   1       0.453  10.624  22.614  1.00  0.00     0.197 A 
ATOM      6  N15 FTA A   1      -0.017  11.724  23.328  1.00  0.00    -0.093 NA
ATOM      7  N19 FTA A   1      -1.076  12.266  22.612  1.00  0.00    -0.231 N 
ATOM      8  N20 FTA A   1      -1.277  11.518  21.461  1.00  0.00    -0.017 NA
ATOM      9  H15 FTA A   1      -1.625  13.092  22.890  1.00  0.00     0.200 HD
ATOM     10  N16 FTA A   1      -0.322  10.506  21.455  1.00  0.00    -0.090 NA
ENDBRANCH   2   5
BRANCH   1  11
ATOM     11  N1  FTA A   1       2.299  10.866  24.899  1.00  0.00    -0.389 N 
ATOM     12  H11 FTA A   1       1.572  11.369  25.429  1.00  0.00     0.159 HD
BRANCH  11  13
ATOM     13  C2  FTA A   1       3.593  11.450  24.842  1.00  0.00     0.028 A 
ATOM     14  C4  FTA A   1       4.524  11.095  23.869  1.00  0.00     0.031 A 
ATOM     15  C6  FTA A   1       5.849  11.532  24.005  1.00  0.00     0.031 A 
ATOM     16  C7  FTA A   1       6.266  12.308  25.083  1.00  0.00     0.032 A 
ATOM     17  C5  FTA A   1       5.323  12.673  26.028  1.00  0.00     0.031 A 
ATOM     18  C3  FTA A   1       4.008  12.240  25.918  1.00  0.00     0.031 A 
BRANCH  16  19
ATOM     19  N8  FTA A   1       7.631  12.584  25.351  1.00  0.00    -0.356 N 
ATOM     20  H1  FTA A   1       7.954  13.553  25.211  1.00  0.00     0.166 HD
BRANCH  19  21
ATOM     21  C24 FTA A   1       8.595  11.630  25.797  1.00  0.00     0.032 A 
ATOM     22  C26 FTA A   1       9.733  11.363  25.073  1.00  0.00     0.029 A 
ATOM     23  C28 FTA A   1      10.537  10.310  25.468  1.00  0.00     0.002 A 
ATOM     24  C30 FTA A   1      10.255   9.537  26.581  1.00  0.00     0.000 A 
ATOM     25  C29 FTA A   1       9.145   9.817  27.332  1.00  0.00     0.002 A 
ATOM     26  C27 FTA A   1       8.327  10.880  26.933  1.00  0.00     0.029 A 
ENDBRANCH  19  21
ENDBRANCH  16  19
ENDBRANCH  11  13
ENDBRANCH   1  11
TORSDOF 5
ENDMDL
MODEL 4
REMARK VINA RESULT:    -7.373      2.404      8.373
REMARK INTER + INTRA:         -10.544
REMARK INTER:                  -9.586
REMARK INTRA:                  -0.958
REMARK UNBOUND:                -1.017
REMARK  5 active torsions:
REMARK  status: ('A' for Active; 'I' for Inactive)
REMARK    1  A    between atoms: N8_1  and  C24_2 
REMARK    2  A    between atoms: N8_1  and  C7_8 
REMARK    3  A    between atoms: C2_13  and  N1_14 
REMARK    4  A    between atoms: N1_14  and  C17_15 
REMARK    5  A    between atoms: C14_16  and  C13_19 
ROOT
ATOM      1  C17 FTA A   1       9.049  14.728  24.010  1.00  0.00     0.142 C 
ATOM      2  C14 FTA A   1       9.085  16.063  23.822  1.00  0.00     0.158 C 
ATOM      3  C18 FTA A   1      10.306  16.799  24.069  1.00  0.00     0.069 C 
ATOM      4  N21 FTA A   1      11.340  17.269  24.363  1.00  0.00    -0.197 NA
ENDROOT
BRANCH   2   5
ATOM      5  C13 FTA A   1       7.871  16.764  23.347  1.00  0.00     0.197 A 
ATOM      6  N15 FTA A   1       7.681  18.144  23.307  1.00  0.00    -0.093 NA
ATOM      7  N19 FTA A   1       6.394  18.375  22.840  1.00  0.00    -0.231 N 
ATOM      8  N20 FTA A   1       5.775  17.159  22.589  1.00  0.00    -0.017 NA
ATOM      9  H15 FTA A   1       5.966  19.302  22.701  1.00  0.00     0.200 HD
ATOM     10  N16 FTA A   1       6.693  16.159  22.893  1.00  0.00    -0.090 NA
ENDBRANCH   2   5
BRANCH   1  11
ATOM     11  N1  FTA A   1       8.087  14.207  24.796  1.00  0.00    -0.389 N 
ATOM     12  H11 FTA A   1       7.772  14.770  25.599  1.00  0.00     0.159 HD
BRANCH  11  13
ATOM     13  C2  FTA A   1       7.474  12.939  24.601  1.00  0.00     0.028 A 
ATOM     14  C4  FTA A   1       8.153  11.868  24.026  1.00  0.00     0.031 A 
ATOM     15  C6  FTA A   1       7.430  10.727  23.652  1.00  0.00     0.031 A 
ATOM     16  C7  FTA A   1       6.053  10.630  23.835  1.00  0.00     0.032 A 
ATOM     17  C5  FTA A   1       5.397  11.693  24.430  1.00  0.00     0.031 A 
ATOM     18  C3  FTA A   1       6.093  12.839  24.795  1.00  0.00     0.031 A 
BRANCH  16  19
ATOM     19  N8  FTA A   1       5.275   9.583  23.279  1.00  0.00    -0.356 N 
ATOM     20  H1  FTA A   1       5.760   8.702  23.055  1.00  0.00     0.166 HD
BRANCH  19  21
ATOM     21  C24 FTA A   1       3.876   9.649  23.004  1.00  0.00     0.032 A 
ATOM     22  C26 FTA A   1       3.401  10.004  21.763  1.00  0.00     0.029 A 
ATOM     23  C28 FTA A   1       2.045  10.217  21.608  1.00  0.00     0.002 A 
ATOM     24  C30 FTA A   1       1.145  10.057  22.648  1.00  0.00     0.000 A 
ATOM     25  C29 FTA A   1       1.600   9.667  23.879  1.00  0.00     0.002 A 
ATOM     26  C27 FTA A   1       2.974   9.453  24.039  1.00  0.00     0.029 A 
ENDBRANCH  19  21
ENDBRANCH  16  19
ENDBRANCH  11  13
ENDBRANCH   1  11
TORSDOF 5
ENDMDL
MODEL 5
REMARK VINA RESULT:    -7.218      3.116      4.507
REMARK INTER + INTRA:         -10.344
REMARK INTER:                  -9.347
REMARK INTRA:                  -0.997
REMARK UNBOUND:                -1.017
REMARK  5 active torsions:
REMARK  status: ('A' for Active; 'I' for Inactive)
REMARK    1  A    between atoms: N8_1  and  C24_2 
REMARK    2  A    between atoms: N8_1  and  C7_8 
REMARK    3  A    between atoms: C2_13  and  N1_14 
REMARK    4  A    between atoms: N1_14  and  C17_15 
REMARK    5  A    between atoms: C14_16  and  C13_19 
ROOT
ATOM      1  C17 FTA A   1       1.005  11.226  22.999  1.00  0.00     0.142 C 
ATOM      2  C14 FTA A   1       0.183  10.426  22.291  1.00  0.00     0.158 C 
ATOM      3  C18 FTA A   1      -1.131  10.893  21.904  1.00  0.00     0.069 C 
ATOM      4  N21 FTA A   1      -2.180  11.380  21.713  1.00  0.00    -0.197 NA
ENDROOT
BRANCH   2   5
ATOM      5  C13 FTA A   1       0.641   9.073  21.900  1.00  0.00     0.197 A 
ATOM      6  N15 FTA A   1       0.546   7.917  22.672  1.00  0.00    -0.093 NA
ATOM      7  N19 FTA A   1       1.134   6.885  21.953  1.00  0.00    -0.231 N 
ATOM      8  N20 FTA A   1       1.598   7.379  20.743  1.00  0.00    -0.017 NA
ATOM      9  H15 FTA A   1       1.213   5.907  22.268  1.00  0.00     0.200 HD
ATOM     10  N16 FTA A   1       1.284   8.734  20.703  1.00  0.00    -0.090 NA
ENDBRANCH   2   5
BRANCH   1  11
ATOM     11  N1  FTA A   1       1.541  10.760  24.143  1.00  0.00    -0.389 N 
ATOM     12  H11 FTA A   1       0.947  10.165  24.739  1.00  0.00     0.159 HD
BRANCH  11  13
ATOM     13  C2  FTA A   1       2.864  11.026  24.592  1.00  0.00     0.028 A 
ATOM     14  C4  FTA A   1       3.122  11.793  25.725  1.00  0.00     0.031 A 
ATOM     15  C6  FTA A   1       4.435  12.209  25.980  1.00  0.00     0.031 A 
ATOM     16  C7  FTA A   1       5.492  11.882  25.135  1.00  0.00     0.032 A 
ATOM     17  C5  FTA A   1       5.224  11.098  24.026  1.00  0.00     0.031 A 
ATOM     18  C3  FTA A   1       3.926  10.687  23.749  1.00  0.00     0.031 A 
BRANCH  16  19
ATOM     19  N8  FTA A   1       6.782  12.460  25.255  1.00  0.00    -0.356 N 
ATOM     20  H1  FTA A   1       6.868  13.467  25.057  1.00  0.00     0.166 HD
BRANCH  19  21
ATOM     21  C24 FTA A   1       7.970  11.762  25.629  1.00  0.00     0.032 A 
ATOM     22  C26 FTA A   1       9.059  11.694  24.793  1.00  0.00     0.029 A 
ATOM     23  C28 FTA A   1      10.107  10.862  25.137  1.00  0.00     0.002 A 
ATOM     24  C30 FTA A   1      10.114  10.120  26.306  1.00  0.00     0.000 A 
ATOM     25  C29 FTA A   1       9.052  10.208  27.166  1.00  0.00     0.002 A 
ATOM     26  C27 FTA A   1       7.987  11.047  26.818  1.00  0.00     0.029 A 
ENDBRANCH  19  21
ENDBRANCH  16  19
ENDBRANCH  11  13
ENDBRANCH   1  11
TORSDOF 5
ENDMDL
MODEL 6
REMARK VINA RESULT:    -7.176      3.073      8.241
REMARK INTER + INTRA:         -10.290
REMARK INTER:                  -9.511
REMARK INTRA:                  -0.780
REMARK UNBOUND:                -1.017
REMARK  5 active torsions:
REMARK  status: ('A' for Active; 'I' for Inactive)
REMARK    1  A    between atoms: N8_1  and  C24_2 
REMARK    2  A    between atoms: N8_1  and  C7_8 
REMARK    3  A    between atoms: C2_13  and  N1_14 
REMARK    4  A    between atoms: N1_14  and  C17_15 
REMARK    5  A    between atoms: C14_16  and  C13_19 
ROOT
ATOM      1  C17 FTA A   1       6.724  12.667  24.246  1.00  0.00     0.142 C 
ATOM      2  C14 FTA A   1       7.959  12.912  24.725  1.00  0.00     0.158 C 
ATOM      3  C18 FTA A   1       8.612  14.172  24.442  1.00  0.00     0.069 C 
ATOM      4  N21 FTA A   1       9.038  15.206  24.087  1.00  0.00    -0.197 NA
ENDROOT
BRANCH   2   5
ATOM      5  C13 FTA A   1       8.635  11.889  25.555  1.00  0.00     0.197 A 
ATOM      6  N15 FTA A   1       9.817  11.223  25.238  1.00  0.00    -0.093 NA
ATOM      7  N19 FTA A   1      10.074  10.319  26.261  1.00  0.00    -0.231 N 
ATOM      8  N20 FTA A   1       9.068  10.408  27.211  1.00  0.00    -0.017 NA
ATOM      9  H15 FTA A   1      10.883   9.682  26.306  1.00  0.00     0.200 HD
ATOM     10  N16 FTA A   1       8.180  11.389  26.781  1.00  0.00    -0.090 NA
ENDBRANCH   2   5
BRANCH   1  11
ATOM     11  N1  FTA A   1       6.510  11.537  23.544  1.00  0.00    -0.389 N 
ATOM     12  H11 FTA A   1       7.320  11.108  23.075  1.00  0.00     0.159 HD
BRANCH  11  13
ATOM     13  C2  FTA A   1       5.251  10.893  23.401  1.00  0.00     0.028 A 
ATOM     14  C4  FTA A   1       4.861  10.282  22.211  1.00  0.00     0.031 A 
ATOM     15  C6  FTA A   1       3.530   9.871  22.062  1.00  0.00     0.031 A 
ATOM     16  C7  FTA A   1       2.582  10.056  23.065  1.00  0.00     0.032 A 
ATOM     17  C5  FTA A   1       2.990  10.641  24.251  1.00  0.00     0.031 A 
ATOM     18  C3  FTA A   1       4.302  11.067  24.413  1.00  0.00     0.031 A 
BRANCH  16  19
ATOM     19  N8  FTA A   1       1.194   9.842  22.861  1.00  0.00    -0.356 N 
ATOM     20  H1  FTA A   1       0.833   8.891  23.027  1.00  0.00     0.166 HD
BRANCH  19  21
ATOM     21  C24 FTA A   1       0.257  10.836  22.446  1.00  0.00     0.032 A 
ATOM     22  C26 FTA A   1      -0.327  11.696  23.345  1.00  0.00     0.029 A 
ATOM     23  C28 FTA A   1      -1.350  12.516  22.908  1.00  0.00     0.002 A 
ATOM     24  C30 FTA A   1      -1.786  12.524  21.594  1.00  0.00     0.000 A 
ATOM     25  C29 FTA A   1      -1.186  11.699  20.681  1.00  0.00     0.002 A 
ATOM     26  C27 FTA A   1      -0.152  10.865  21.121  1.00  0.00     0.029 A 
ENDBRANCH  19  21
ENDBRANCH  16  19
ENDBRANCH  11  13
ENDBRANCH   1  11
TORSDOF 5
ENDMDL
MODEL 7
REMARK VINA RESULT:    -7.108      2.427      7.865
REMARK INTER + INTRA:         -10.202
REMARK INTER:                  -9.139
REMARK INTRA:                  -1.063
REMARK UNBOUND:                -1.017
REMARK  5 active torsions:
REMARK  status: ('A' for Active; 'I' for Inactive)
REMARK    1  A    between atoms: N8_1  and  C24_2 
REMARK    2  A    between atoms: N8_1  and  C7_8 
REMARK    3  A    between atoms: C2_13  and  N1_14 
REMARK    4  A    between atoms: N1_14  and  C17_15 
REMARK    5  A    between atoms: C14_16  and  C13_19 
ROOT
ATOM      1  C17 FTA A   1       8.216  11.241  24.108  1.00  0.00     0.142 C 
ATOM      2  C14 FTA A   1       8.182  12.258  24.993  1.00  0.00     0.158 C 
ATOM      3  C18 FTA A   1       8.300  11.993  26.410  1.00  0.00     0.069 C 
ATOM      4  N21 FTA A   1       8.348  11.626  27.523  1.00  0.00    -0.197 NA
ENDROOT
BRANCH   2   5
ATOM      5  C13 FTA A   1       8.040  13.647  24.500  1.00  0.00     0.197 A 
ATOM      6  N15 FTA A   1       9.057  14.595  24.408  1.00  0.00    -0.093 NA
ATOM      7  N19 FTA A   1       8.488  15.774  23.943  1.00  0.00    -0.231 N 
ATOM      8  N20 FTA A   1       7.129  15.576  23.745  1.00  0.00    -0.017 NA
ATOM      9  H15 FTA A   1       8.994  16.655  23.772  1.00  0.00     0.200 HD
ATOM     10  N16 FTA A   1       6.851  14.255  24.079  1.00  0.00    -0.090 NA
ENDBRANCH   2   5
BRANCH   1  11
ATOM     11  N1  FTA A   1       7.221  11.128  23.207  1.00  0.00    -0.389 N 
ATOM     12  H11 FTA A   1       7.382  11.521  22.269  1.00  0.00     0.159 HD
BRANCH  11  13
ATOM     13  C2  FTA A   1       5.966  10.507  23.453  1.00  0.00     0.028 A 
ATOM     14  C4  FTA A   1       5.637   9.264  22.919  1.00  0.00     0.031 A 
ATOM     15  C6  FTA A   1       4.312   8.816  23.006  1.00  0.00     0.031 A 
ATOM     16  C7  FTA A   1       3.311   9.575  23.607  1.00  0.00     0.032 A 
ATOM     17  C5  FTA A   1       3.659  10.797  24.155  1.00  0.00     0.031 A 
ATOM     18  C3  FTA A   1       4.965  11.265  24.067  1.00  0.00     0.031 A 
BRANCH  16  19
ATOM     19  N8  FTA A   1       1.935   9.241  23.522  1.00  0.00    -0.356 N 
ATOM     20  H1  FTA A   1       1.604   8.454  24.097  1.00  0.00     0.166 HD
BRANCH  19  21
ATOM     21  C24 FTA A   1       0.972   9.907  22.705  1.00  0.00     0.032 A 
ATOM     22  C26 FTA A   1       0.931   9.721  21.343  1.00  0.00     0.029 A 
ATOM     23  C28 FTA A   1       0.093  10.522  20.591  1.00  0.00     0.002 A 
ATOM     24  C30 FTA A   1      -0.728  11.481  21.161  1.00  0.00     0.000 A 
ATOM     25  C29 FTA A   1      -0.724  11.649  22.520  1.00  0.00     0.002 A 
ATOM     26  C27 FTA A   1       0.126  10.842  23.284  1.00  0.00     0.029 A 
ENDBRANCH  19  21
ENDBRANCH  16  19
ENDBRANCH  11  13
ENDBRANCH   1  11
TORSDOF 5
ENDMDL
MODEL 8
REMARK VINA RESULT:    -7.009      2.236      8.486
REMARK INTER + INTRA:         -10.074
REMARK INTER:                  -9.057
REMARK INTRA:                  -1.017
REMARK UNBOUND:                -1.017
REMARK  5 active torsions:
REMARK  status: ('A' for Active; 'I' for Inactive)
REMARK    1  A    between atoms: N8_1  and  C24_2 
REMARK    2  A    between atoms: N8_1  and  C7_8 
REMARK    3  A    between atoms: C2_13  and  N1_14 
REMARK    4  A    between atoms: N1_14  and  C17_15 
REMARK    5  A    between atoms: C14_16  and  C13_19 
ROOT
ATOM      1  C17 FTA A   1       7.177  13.557  24.201  1.00  0.00     0.142 C 
ATOM      2  C14 FTA A   1       8.414  13.583  24.734  1.00  0.00     0.158 C 
ATOM      3  C18 FTA A   1       9.220  14.781  24.644  1.00  0.00     0.069 C 
ATOM      4  N21 FTA A   1       9.776  15.794  24.447  1.00  0.00    -0.197 NA
ENDROOT
BRANCH   2   5
ATOM      5  C13 FTA A   1       8.935  12.381  25.425  1.00  0.00     0.197 A 
ATOM      6  N15 FTA A   1       9.649  11.339  24.837  1.00  0.00    -0.093 NA
ATOM      7  N19 FTA A   1       9.903  10.397  25.825  1.00  0.00    -0.231 N 
ATOM      8  N20 FTA A   1       9.355  10.833  27.022  1.00  0.00    -0.017 NA
ATOM      9  H15 FTA A   1      10.417   9.514  25.690  1.00  0.00     0.200 HD
ATOM     10  N16 FTA A   1       8.763  12.069  26.779  1.00  0.00    -0.090 NA
ENDBRANCH   2   5
BRANCH   1  11
ATOM     11  N1  FTA A   1       6.858  12.569  23.342  1.00  0.00    -0.389 N 
ATOM     12  H11 FTA A   1       7.283  12.598  22.404  1.00  0.00     0.159 HD
BRANCH  11  13
ATOM     13  C2  FTA A   1       5.980  11.489  23.632  1.00  0.00     0.028 A 
ATOM     14  C4  FTA A   1       6.181  10.211  23.116  1.00  0.00     0.031 A 
ATOM     15  C6  FTA A   1       5.164   9.256  23.248  1.00  0.00     0.031 A 
ATOM     16  C7  FTA A   1       3.956   9.544  23.878  1.00  0.00     0.032 A 
ATOM     17  C5  FTA A   1       3.782  10.810  24.409  1.00  0.00     0.031 A 
ATOM     18  C3  FTA A   1       4.773  11.775  24.276  1.00  0.00     0.031 A 
BRANCH  16  19
ATOM     19  N8  FTA A   1       2.841   8.669  23.841  1.00  0.00    -0.356 N 
ATOM     20  H1  FTA A   1       2.578   8.200  24.720  1.00  0.00     0.166 HD
BRANCH  19  21
ATOM     21  C24 FTA A   1       2.052   8.385  22.685  1.00  0.00     0.032 A 
ATOM     22  C26 FTA A   1       2.283   7.273  21.911  1.00  0.00     0.029 A 
ATOM     23  C28 FTA A   1       1.603   7.146  20.715  1.00  0.00     0.002 A 
ATOM     24  C30 FTA A   1       0.676   8.080  20.284  1.00  0.00     0.000 A 
ATOM     25  C29 FTA A   1       0.409   9.173  21.065  1.00  0.00     0.002 A 
ATOM     26  C27 FTA A   1       1.099   9.306  22.275  1.00  0.00     0.029 A 
ENDBRANCH  19  21
ENDBRANCH  16  19
ENDBRANCH  11  13
ENDBRANCH   1  11
TORSDOF 5
ENDMDL
MODEL 9
REMARK VINA RESULT:    -6.283      4.464      6.993
REMARK INTER + INTRA:          -9.136
REMARK INTER:                  -8.114
REMARK INTRA:                  -1.022
REMARK UNBOUND:                -1.017
REMARK  5 active torsions:
REMARK  status: ('A' for Active; 'I' for Inactive)
REMARK    1  A    between atoms: N8_1  and  C24_2 
REMARK    2  A    between atoms: N8_1  and  C7_8 
REMARK    3  A    between atoms: C2_13  and  N1_14 
REMARK    4  A    between atoms: N1_14  and  C17_15 
REMARK    5  A    between atoms: C14_16  and  C13_19 
ROOT
ATOM      1  C17 FTA A   1       7.347  13.708  24.343  1.00  0.00     0.142 C 
ATOM      2  C14 FTA A   1       7.103  12.825  25.332  1.00  0.00     0.158 C 
ATOM      3  C18 FTA A   1       5.779  12.726  25.909  1.00  0.00     0.069 C 
ATOM      4  N21 FTA A   1       4.682  12.797  26.317  1.00  0.00    -0.197 NA
ENDROOT
BRANCH   2   5
ATOM      5  C13 FTA A   1       8.195  11.947  25.811  1.00  0.00     0.197 A 
ATOM      6  N15 FTA A   1       9.398  11.699  25.154  1.00  0.00    -0.093 NA
ATOM      7  N19 FTA A   1      10.113  10.788  25.921  1.00  0.00    -0.231 N 
ATOM      8  N20 FTA A   1       9.372  10.461  27.048  1.00  0.00    -0.017 NA
ATOM      9  H15 FTA A   1      11.045  10.415  25.691  1.00  0.00     0.200 HD
ATOM     10  N16 FTA A   1       8.187  11.187  26.986  1.00  0.00    -0.090 NA
ENDBRANCH   2   5
BRANCH   1  11
ATOM     11  N1  FTA A   1       8.373  14.570  24.479  1.00  0.00    -0.389 N 
ATOM     12  H11 FTA A   1       9.039  14.400  25.247  1.00  0.00     0.159 HD
BRANCH  11  13
ATOM     13  C2  FTA A   1       8.606  15.697  23.645  1.00  0.00     0.028 A 
ATOM     14  C4  FTA A   1       7.565  16.429  23.079  1.00  0.00     0.031 A 
ATOM     15  C6  FTA A   1       7.860  17.377  22.089  1.00  0.00     0.031 A 
ATOM     16  C7  FTA A   1       9.160  17.608  21.650  1.00  0.00     0.032 A 
ATOM     17  C5  FTA A   1      10.186  16.891  22.239  1.00  0.00     0.031 A 
ATOM     18  C3  FTA A   1       9.914  15.938  23.213  1.00  0.00     0.031 A 
BRANCH  16  19
ATOM     19  N8  FTA A   1       9.459  18.403  20.513  1.00  0.00    -0.356 N 
ATOM     20  H1  FTA A   1       9.346  19.422  20.607  1.00  0.00     0.166 HD
BRANCH  19  21
ATOM     21  C24 FTA A   1       9.903  17.905  19.251  1.00  0.00     0.032 A 
ATOM     22  C26 FTA A   1       9.235  16.896  18.599  1.00  0.00     0.029 A 
ATOM     23  C28 FTA A   1       9.810  16.343  17.470  1.00  0.00     0.002 A 
ATOM     24  C30 FTA A   1      11.016  16.788  16.957  1.00  0.00     0.000 A 
ATOM     25  C29 FTA A   1      11.673  17.818  17.576  1.00  0.00     0.002 A 
ATOM     26  C27 FTA A   1      11.095  18.378  18.721  1.00  0.00     0.029 A 
ENDBRANCH  19  21
ENDBRANCH  16  19
ENDBRANCH  11  13
ENDBRANCH   1  11
TORSDOF 5
ENDMDL
