MODEL 1
REMARK VINA RESULT:    -8.514      0.000      0.000
REMARK INTER + INTRA:         -12.318
REMARK INTER:                 -11.027
REMARK INTRA:                  -1.291
REMARK UNBOUND:                -1.316
REMARK  6 active torsions:
REMARK  status: ('A' for Active; 'I' for Inactive)
REMARK    1  A    between atoms: C_2  and  C_3 
REMARK    2  A    between atoms: C_6  and  C_7 
REMARK    3  A    between atoms: C_9  and  N_10 
REMARK    4  A    between atoms: C_11  and  C_12 
REMARK       I    between atoms: C_12  and  N_14 
REMARK    5  A    between atoms: N_14  and  C_15 
REMARK    6  A    between atoms: C_27  and  N_28 
ROOT
HETATM    1  C   UNL     1      -0.448   9.667  26.661  0.00  0.00     0.013 C 
HETATM    2  C   UNL     1       0.335   8.494  26.354  0.00  0.00     0.035 C 
HETATM    3  C   UNL     1       0.650   7.719  25.154  0.00  0.00     0.043 C 
HETATM    4  C   UNL     1       1.660   6.786  25.342  0.00  0.00     0.097 C 
HETATM    5  S   UNL     1       2.099   6.692  26.989  0.00  0.00    -0.062 SA
HETATM    6  C   UNL     1       0.991   7.899  27.432  0.00  0.00     0.113 C 
HETATM    7  N   UNL     1       0.870   8.199  28.737  0.00  0.00    -0.227 NA
HETATM    8  C   UNL     1       0.060   9.214  29.026  0.00  0.00     0.123 C 
HETATM    9  C   UNL     1      -0.574   9.988  28.054  0.00  0.00     0.096 C 
HETATM   10  C   UNL     1      -1.290  11.140  28.535  0.00  0.00     0.103 C 
HETATM   11  N   UNL     1      -1.860  12.055  28.962  0.00  0.00    -0.191 NA
ENDROOT
BRANCH   1  12
HETATM   12  C   UNL     1      -0.966  10.583  25.592  0.00  0.00    -0.023 C 
HETATM   13  C   UNL     1      -0.106  11.400  24.835  0.00  0.00     0.013 C 
HETATM   14  C   UNL     1      -0.510  11.990  23.632  0.00  0.00     0.008 C 
HETATM   15  C   UNL     1      -1.836  11.911  23.212  0.00  0.00    -0.059 C 
HETATM   16  C   UNL     1      -2.750  11.250  24.031  0.00  0.00     0.008 C 
HETATM   17  C   UNL     1      -2.309  10.556  25.169  0.00  0.00     0.013 C 
BRANCH  15  18
HETATM   18  C   UNL     1      -2.240  12.449  21.864  0.00  0.00     0.034 C 
HETATM   19  C   UNL     1      -1.040  13.003  21.102  0.00  0.00     0.010 C 
ENDBRANCH  15  18
ENDBRANCH   1  12
BRANCH   8  20
HETATM   20  N   UNL     1      -0.169   9.403  30.391  0.00  0.00    -0.286 NA
HETATM   21  H   UNL     1      -1.011   8.902  30.662  0.00  0.00     0.125 HD
HETATM   22  H   UNL     1       0.618   9.203  30.999  0.00  0.00     0.125 HD
ENDBRANCH   8  20
BRANCH   3  23
HETATM   23  N   UNL     1       0.036   7.885  23.948  0.00  0.00    -0.301 NA
HETATM   24  H   UNL     1      -0.835   8.424  23.931  0.00  0.00     0.124 HD
HETATM   25  H   UNL     1       0.620   8.211  23.175  0.00  0.00     0.124 HD
ENDBRANCH   3  23
BRANCH   4  26
HETATM   26  C   UNL     1       2.344   5.882  24.401  0.00  0.00     0.265 C 
HETATM   27  O   UNL     1       2.762   4.778  24.747  0.00  0.00    -0.267 OA
HETATM   28  N   UNL     1       2.463   6.384  23.117  0.00  0.00    -0.322 N 
HETATM   29  H   UNL     1       1.999   7.271  22.960  0.00  0.00     0.169 HD
BRANCH  28  30
HETATM   30  C   UNL     1       3.095   5.795  21.993  0.00  0.00     0.037 A 
HETATM   31  C   UNL     1       4.442   6.021  21.636  0.00  0.00     0.032 A 
HETATM   32  C   UNL     1       5.010   5.408  20.510  0.00  0.00     0.042 A 
HETATM   33  C   UNL     1       4.214   4.577  19.757  0.00  0.00     0.105 A 
HETATM   34  C   UNL     1       2.902   4.351  20.089  0.00  0.00     0.107 A 
HETATM   35  O   UNL     1       4.596   3.901  18.641  0.00  0.00    -0.323 OA
HETATM   36  C   UNL     1       2.315   4.943  21.194  0.00  0.00     0.069 A 
HETATM   37  O   UNL     1       2.289   3.505  19.217  0.00  0.00    -0.323 OA
HETATM   38  C   UNL     1       3.370   3.224  18.302  0.00  0.00     0.352 A 
ENDBRANCH  28  30
ENDBRANCH   4  26
TORSDOF 6
ENDMDL
MODEL 2
REMARK VINA RESULT:    -8.165      1.132      1.178
REMARK INTER + INTRA:         -11.868
REMARK INTER:                 -10.605
REMARK INTRA:                  -1.263
REMARK UNBOUND:                -1.316
REMARK  6 active torsions:
REMARK  status: ('A' for Active; 'I' for Inactive)
REMARK    1  A    between atoms: C_2  and  C_3 
REMARK    2  A    between atoms: C_6  and  C_7 
REMARK    3  A    between atoms: C_9  and  N_10 
REMARK    4  A    between atoms: C_11  and  C_12 
REMARK       I    between atoms: C_12  and  N_14 
REMARK    5  A    between atoms: N_14  and  C_15 
REMARK    6  A    between atoms: C_27  and  N_28 
ROOT
HETATM    1  C   UNL     1       0.059   9.723  26.689  0.00  0.00     0.013 C 
HETATM    2  C   UNL     1       1.012   8.666  26.446  0.00  0.00     0.035 C 
HETATM    3  C   UNL     1       1.615   8.038  25.272  0.00  0.00     0.043 C 
HETATM    4  C   UNL     1       2.677   7.197  25.572  0.00  0.00     0.097 C 
HETATM    5  S   UNL     1       2.835   7.001  27.261  0.00  0.00    -0.062 SA
HETATM    6  C   UNL     1       1.537   8.046  27.580  0.00  0.00     0.113 C 
HETATM    7  N   UNL     1       1.160   8.215  28.860  0.00  0.00    -0.227 NA
HETATM    8  C   UNL     1       0.201   9.113  29.069  0.00  0.00     0.123 C 
HETATM    9  C   UNL     1      -0.341   9.904  28.055  0.00  0.00     0.096 C 
HETATM   10  C   UNL     1      -1.255  10.930  28.479  0.00  0.00     0.103 C 
HETATM   11  N   UNL     1      -1.991  11.742  28.859  0.00  0.00    -0.191 NA
ENDROOT
BRANCH   1  12
HETATM   12  C   UNL     1      -0.370  10.674  25.611  0.00  0.00    -0.023 C 
HETATM   13  C   UNL     1       0.464  11.718  25.169  0.00  0.00     0.013 C 
HETATM   14  C   UNL     1       0.239  12.388  23.961  0.00  0.00     0.008 C 
HETATM   15  C   UNL     1      -0.913  12.145  23.218  0.00  0.00    -0.059 C 
HETATM   16  C   UNL     1      -1.844  11.236  23.720  0.00  0.00     0.008 C 
HETATM   17  C   UNL     1      -1.549  10.479  24.865  0.00  0.00     0.013 C 
BRANCH  15  18
HETATM   18  C   UNL     1      -1.095  12.784  21.866  0.00  0.00     0.034 C 
HETATM   19  C   UNL     1      -2.553  12.743  21.421  0.00  0.00     0.010 C 
ENDBRANCH  15  18
ENDBRANCH   1  12
BRANCH   8  20
HETATM   20  N   UNL     1      -0.279   9.156  30.380  0.00  0.00    -0.286 NA
HETATM   21  H   UNL     1      -0.992   8.441  30.499  0.00  0.00     0.125 HD
HETATM   22  H   UNL     1       0.430   9.128  31.107  0.00  0.00     0.125 HD
ENDBRANCH   8  20
BRANCH   3  23
HETATM   23  N   UNL     1       1.201   8.248  23.989  0.00  0.00    -0.301 NA
HETATM   24  H   UNL     1       1.573   7.627  23.265  0.00  0.00     0.124 HD
HETATM   25  H   UNL     1       0.193   8.335  23.840  0.00  0.00     0.124 HD
ENDBRANCH   3  23
BRANCH   4  26
HETATM   26  C   UNL     1       3.612   6.454  24.709  0.00  0.00     0.265 C 
HETATM   27  O   UNL     1       4.768   6.217  25.054  0.00  0.00    -0.267 OA
HETATM   28  N   UNL     1       3.070   6.053  23.500  0.00  0.00    -0.322 N 
HETATM   29  H   UNL     1       2.082   6.248  23.389  0.00  0.00     0.169 HD
BRANCH  28  30
HETATM   30  C   UNL     1       3.702   5.363  22.435  0.00  0.00     0.037 A 
HETATM   31  C   UNL     1       4.659   5.944  21.574  0.00  0.00     0.032 A 
HETATM   32  C   UNL     1       5.248   5.208  20.537  0.00  0.00     0.042 A 
HETATM   33  C   UNL     1       4.865   3.897  20.378  0.00  0.00     0.105 A 
HETATM   34  C   UNL     1       3.932   3.320  21.203  0.00  0.00     0.107 A 
HETATM   35  O   UNL     1       5.331   3.038  19.432  0.00  0.00    -0.323 OA
HETATM   36  C   UNL     1       3.335   4.022  22.234  0.00  0.00     0.069 A 
HETATM   37  O   UNL     1       3.690   2.021  20.877  0.00  0.00    -0.323 OA
HETATM   38  C   UNL     1       4.581   1.850  19.753  0.00  0.00     0.352 A 
ENDBRANCH  28  30
ENDBRANCH   4  26
TORSDOF 6
ENDMDL
MODEL 3
REMARK VINA RESULT:    -7.716      3.725      5.560
REMARK INTER + INTRA:         -11.288
REMARK INTER:                 -10.080
REMARK INTRA:                  -1.208
REMARK UNBOUND:                -1.316
REMARK  6 active torsions:
REMARK  status: ('A' for Active; 'I' for Inactive)
REMARK    1  A    between atoms: C_2  and  C_3 
REMARK    2  A    between atoms: C_6  and  C_7 
REMARK    3  A    between atoms: C_9  and  N_10 
REMARK    4  A    between atoms: C_11  and  C_12 
REMARK       I    between atoms: C_12  and  N_14 
REMARK    5  A    between atoms: N_14  and  C_15 
REMARK    6  A    between atoms: C_27  and  N_28 
ROOT
HETATM    1  C   UNL     1       1.283   6.141  28.154  0.00  0.00     0.013 C 
HETATM    2  C   UNL     1       1.927   6.901  27.109  0.00  0.00     0.035 C 
HETATM    3  C   UNL     1       2.398   6.639  25.750  0.00  0.00     0.043 C 
HETATM    4  C   UNL     1       2.747   7.785  25.049  0.00  0.00     0.097 C 
HETATM    5  S   UNL     1       2.703   9.154  26.068  0.00  0.00    -0.062 SA
HETATM    6  C   UNL     1       2.191   8.239  27.402  0.00  0.00     0.113 C 
HETATM    7  N   UNL     1       2.049   8.867  28.583  0.00  0.00    -0.227 NA
HETATM    8  C   UNL     1       1.558   8.131  29.576  0.00  0.00     0.123 C 
HETATM    9  C   UNL     1       1.131   6.813  29.412  0.00  0.00     0.096 C 
HETATM   10  C   UNL     1       0.483   6.216  30.550  0.00  0.00     0.103 C 
HETATM   11  N   UNL     1      -0.029   5.768  31.490  0.00  0.00    -0.191 NA
ENDROOT
BRANCH   1  12
HETATM   12  C   UNL     1       0.673   4.795  27.901  0.00  0.00    -0.023 C 
HETATM   13  C   UNL     1      -0.579   4.655  27.273  0.00  0.00     0.013 C 
HETATM   14  C   UNL     1      -1.004   3.439  26.727  0.00  0.00     0.008 C 
HETATM   15  C   UNL     1      -0.262   2.276  26.917  0.00  0.00    -0.059 C 
HETATM   16  C   UNL     1       0.901   2.353  27.684  0.00  0.00     0.008 C 
HETATM   17  C   UNL     1       1.382   3.597  28.118  0.00  0.00     0.013 C 
BRANCH  15  18
HETATM   18  C   UNL     1      -0.664   0.995  26.233  0.00  0.00     0.034 C 
HETATM   19  C   UNL     1      -2.176   0.801  26.259  0.00  0.00     0.010 C 
ENDBRANCH  15  18
ENDBRANCH   1  12
BRANCH   8  20
HETATM   20  N   UNL     1       1.567   8.758  30.824  0.00  0.00    -0.286 NA
HETATM   21  H   UNL     1       2.472   9.198  30.971  0.00  0.00     0.125 HD
HETATM   22  H   UNL     1       0.792   9.389  31.003  0.00  0.00     0.125 HD
ENDBRANCH   8  20
BRANCH   3  23
HETATM   23  N   UNL     1       2.486   5.398  25.193  0.00  0.00    -0.301 NA
HETATM   24  H   UNL     1       2.567   4.598  25.827  0.00  0.00     0.124 HD
HETATM   25  H   UNL     1       1.788   5.162  24.482  0.00  0.00     0.124 HD
ENDBRANCH   3  23
BRANCH   4  26
HETATM   26  C   UNL     1       3.170   7.987  23.653  0.00  0.00     0.265 C 
HETATM   27  O   UNL     1       3.095   9.085  23.102  0.00  0.00    -0.267 OA
HETATM   28  N   UNL     1       3.654   6.847  23.036  0.00  0.00    -0.322 N 
HETATM   29  H   UNL     1       3.733   6.036  23.638  0.00  0.00     0.169 HD
BRANCH  28  30
HETATM   30  C   UNL     1       4.100   6.688  21.700  0.00  0.00     0.037 A 
HETATM   31  C   UNL     1       5.459   6.676  21.317  0.00  0.00     0.032 A 
HETATM   32  C   UNL     1       5.837   6.515  19.976  0.00  0.00     0.042 A 
HETATM   33  C   UNL     1       4.842   6.372  19.038  0.00  0.00     0.105 A 
HETATM   34  C   UNL     1       3.517   6.387  19.394  0.00  0.00     0.107 A 
HETATM   35  O   UNL     1       5.024   6.205  17.701  0.00  0.00    -0.323 OA
HETATM   36  C   UNL     1       3.115   6.544  20.708  0.00  0.00     0.069 A 
HETATM   37  O   UNL     1       2.694   6.235  18.320  0.00  0.00    -0.323 OA
HETATM   38  C   UNL     1       3.658   6.120  17.251  0.00  0.00     0.352 A 
ENDBRANCH  28  30
ENDBRANCH   4  26
TORSDOF 6
ENDMDL
MODEL 4
REMARK VINA RESULT:    -7.530      2.792      4.245
REMARK INTER + INTRA:         -11.046
REMARK INTER:                  -9.775
REMARK INTRA:                  -1.271
REMARK UNBOUND:                -1.316
REMARK  6 active torsions:
REMARK  status: ('A' for Active; 'I' for Inactive)
REMARK    1  A    between atoms: C_2  and  C_3 
REMARK    2  A    between atoms: C_6  and  C_7 
REMARK    3  A    between atoms: C_9  and  N_10 
REMARK    4  A    between atoms: C_11  and  C_12 
REMARK       I    between atoms: C_12  and  N_14 
REMARK    5  A    between atoms: N_14  and  C_15 
REMARK    6  A    between atoms: C_27  and  N_28 
ROOT
HETATM    1  C   UNL     1       2.745   6.966  26.484  0.00  0.00     0.013 C 
HETATM    2  C   UNL     1       3.071   6.207  25.300  0.00  0.00     0.035 C 
HETATM    3  C   UNL     1       2.490   6.022  23.972  0.00  0.00     0.043 C 
HETATM    4  C   UNL     1       3.323   5.353  23.086  0.00  0.00     0.097 C 
HETATM    5  S   UNL     1       4.714   4.770  23.886  0.00  0.00    -0.062 SA
HETATM    6  C   UNL     1       4.230   5.433  25.372  0.00  0.00     0.113 C 
HETATM    7  N   UNL     1       4.998   5.198  26.450  0.00  0.00    -0.227 NA
HETATM    8  C   UNL     1       4.630   5.814  27.570  0.00  0.00     0.123 C 
HETATM    9  C   UNL     1       3.567   6.716  27.633  0.00  0.00     0.096 C 
HETATM   10  C   UNL     1       3.403   7.408  28.884  0.00  0.00     0.103 C 
HETATM   11  N   UNL     1       3.300   7.941  29.910  0.00  0.00    -0.191 NA
ENDROOT
BRANCH   1  12
HETATM   12  C   UNL     1       1.717   8.057  26.474  0.00  0.00    -0.023 C 
HETATM   13  C   UNL     1       1.908   9.248  25.749  0.00  0.00     0.013 C 
HETATM   14  C   UNL     1       0.849  10.113  25.448  0.00  0.00     0.008 C 
HETATM   15  C   UNL     1      -0.417   9.900  25.988  0.00  0.00    -0.059 C 
HETATM   16  C   UNL     1      -0.594   8.819  26.851  0.00  0.00     0.008 C 
HETATM   17  C   UNL     1       0.440   7.889  27.044  0.00  0.00     0.013 C 
BRANCH  15  18
HETATM   18  C   UNL     1      -1.577  10.766  25.571  0.00  0.00     0.034 C 
HETATM   19  C   UNL     1      -1.642  10.920  24.056  0.00  0.00     0.010 C 
ENDBRANCH  15  18
ENDBRANCH   1  12
BRANCH   8  20
HETATM   20  N   UNL     1       5.347   5.432  28.706  0.00  0.00    -0.286 NA
HETATM   21  H   UNL     1       5.526   6.252  29.280  0.00  0.00     0.125 HD
HETATM   22  H   UNL     1       4.951   4.662  29.236  0.00  0.00     0.125 HD
ENDBRANCH   8  20
BRANCH   3  23
HETATM   23  N   UNL     1       1.254   6.466  23.604  0.00  0.00    -0.301 NA
HETATM   24  H   UNL     1       0.925   7.344  24.016  0.00  0.00     0.124 HD
HETATM   25  H   UNL     1       1.056   6.498  22.601  0.00  0.00     0.124 HD
ENDBRANCH   3  23
BRANCH   4  26
HETATM   26  C   UNL     1       3.181   5.045  21.652  0.00  0.00     0.265 C 
HETATM   27  O   UNL     1       3.428   3.928  21.199  0.00  0.00    -0.267 OA
HETATM   28  N   UNL     1       2.748   6.110  20.883  0.00  0.00    -0.322 N 
HETATM   29  H   UNL     1       2.506   6.944  21.406  0.00  0.00     0.169 HD
BRANCH  28  30
HETATM   30  C   UNL     1       2.548   6.163  19.481  0.00  0.00     0.037 A 
HETATM   31  C   UNL     1       3.590   6.324  18.540  0.00  0.00     0.032 A 
HETATM   32  C   UNL     1       3.327   6.370  17.163  0.00  0.00     0.042 A 
HETATM   33  C   UNL     1       2.020   6.256  16.752  0.00  0.00     0.105 A 
HETATM   34  C   UNL     1       0.997   6.106  17.654  0.00  0.00     0.107 A 
HETATM   35  O   UNL     1       1.584   6.277  15.464  0.00  0.00    -0.323 OA
HETATM   36  C   UNL     1       1.226   6.057  19.018  0.00  0.00     0.069 A 
HETATM   37  O   UNL     1      -0.217   6.016  17.045  0.00  0.00    -0.323 OA
HETATM   38  C   UNL     1       0.164   6.126  15.656  0.00  0.00     0.352 A 
ENDBRANCH  28  30
ENDBRANCH   4  26
TORSDOF 6
ENDMDL
MODEL 5
REMARK VINA RESULT:    -7.442      6.378      9.673
REMARK INTER + INTRA:         -10.933
REMARK INTER:                  -9.783
REMARK INTRA:                  -1.150
REMARK UNBOUND:                -1.316
REMARK  6 active torsions:
REMARK  status: ('A' for Active; 'I' for Inactive)
REMARK    1  A    between atoms: C_2  and  C_3 
REMARK    2  A    between atoms: C_6  and  C_7 
REMARK    3  A    between atoms: C_9  and  N_10 
REMARK    4  A    between atoms: C_11  and  C_12 
REMARK       I    between atoms: C_12  and  N_14 
REMARK    5  A    between atoms: N_14  and  C_15 
REMARK    6  A    between atoms: C_27  and  N_28 
ROOT
HETATM    1  C   UNL     1       2.677   5.477  20.444  0.00  0.00     0.013 C 
HETATM    2  C   UNL     1       1.564   4.854  19.768  0.00  0.00     0.035 C 
HETATM    3  C   UNL     1       0.840   3.589  19.871  0.00  0.00     0.043 C 
HETATM    4  C   UNL     1      -0.333   3.555  19.131  0.00  0.00     0.097 C 
HETATM    5  S   UNL     1      -0.475   4.951  18.158  0.00  0.00    -0.062 SA
HETATM    6  C   UNL     1       0.978   5.600  18.744  0.00  0.00     0.113 C 
HETATM    7  N   UNL     1       1.410   6.761  18.220  0.00  0.00    -0.227 NA
HETATM    8  C   UNL     1       2.503   7.278  18.775  0.00  0.00     0.123 C 
HETATM    9  C   UNL     1       3.135   6.716  19.885  0.00  0.00     0.096 C 
HETATM   10  C   UNL     1       4.210   7.487  20.453  0.00  0.00     0.103 C 
HETATM   11  N   UNL     1       5.075   8.134  20.878  0.00  0.00    -0.191 NA
ENDROOT
BRANCH   1  12
HETATM   12  C   UNL     1       3.221   4.948  21.738  0.00  0.00    -0.023 C 
HETATM   13  C   UNL     1       4.316   4.065  21.775  0.00  0.00     0.013 C 
HETATM   14  C   UNL     1       5.044   3.833  22.948  0.00  0.00     0.008 C 
HETATM   15  C   UNL     1       4.617   4.358  24.165  0.00  0.00    -0.059 C 
HETATM   16  C   UNL     1       3.435   5.098  24.186  0.00  0.00     0.008 C 
HETATM   17  C   UNL     1       2.784   5.429  22.988  0.00  0.00     0.013 C 
BRANCH  15  18
HETATM   18  C   UNL     1       5.464   4.200  25.401  0.00  0.00     0.034 C 
HETATM   19  C   UNL     1       5.731   2.731  25.710  0.00  0.00     0.010 C 
ENDBRANCH  15  18
ENDBRANCH   1  12
BRANCH   8  20
HETATM   20  N   UNL     1       3.017   8.395  18.115  0.00  0.00    -0.286 NA
HETATM   21  H   UNL     1       2.360   9.166  18.197  0.00  0.00     0.125 HD
HETATM   22  H   UNL     1       3.963   8.659  18.372  0.00  0.00     0.125 HD
ENDBRANCH   8  20
BRANCH   3  23
HETATM   23  N   UNL     1       1.248   2.529  20.626  0.00  0.00    -0.301 NA
HETATM   24  H   UNL     1       1.368   2.682  21.631  0.00  0.00     0.124 HD
HETATM   25  H   UNL     1       0.736   1.652  20.502  0.00  0.00     0.124 HD
ENDBRANCH   3  23
BRANCH   4  26
HETATM   26  C   UNL     1      -1.394   2.538  19.025  0.00  0.00     0.265 C 
HETATM   27  O   UNL     1      -1.145   1.334  19.039  0.00  0.00    -0.267 OA
HETATM   28  N   UNL     1      -2.671   3.060  18.917  0.00  0.00    -0.322 N 
HETATM   29  H   UNL     1      -2.730   4.069  19.003  0.00  0.00     0.169 HD
BRANCH  28  30
HETATM   30  C   UNL     1      -3.898   2.368  18.760  0.00  0.00     0.037 A 
HETATM   31  C   UNL     1      -4.273   1.683  17.584  0.00  0.00     0.032 A 
HETATM   32  C   UNL     1      -5.504   1.016  17.490  0.00  0.00     0.042 A 
HETATM   33  C   UNL     1      -6.340   1.050  18.581  0.00  0.00     0.105 A 
HETATM   34  C   UNL     1      -5.992   1.716  19.729  0.00  0.00     0.107 A 
HETATM   35  O   UNL     1      -7.563   0.461  18.668  0.00  0.00    -0.323 OA
HETATM   36  C   UNL     1      -4.785   2.382  19.850  0.00  0.00     0.069 A 
HETATM   37  O   UNL     1      -6.957   1.633  20.685  0.00  0.00    -0.323 OA
HETATM   38  C   UNL     1      -7.950   0.835  20.004  0.00  0.00     0.352 A 
ENDBRANCH  28  30
ENDBRANCH   4  26
TORSDOF 6
ENDMDL
MODEL 6
REMARK VINA RESULT:    -7.395      3.328      9.268
REMARK INTER + INTRA:         -10.873
REMARK INTER:                  -9.834
REMARK INTRA:                  -1.038
REMARK UNBOUND:                -1.316
REMARK  6 active torsions:
REMARK  status: ('A' for Active; 'I' for Inactive)
REMARK    1  A    between atoms: C_2  and  C_3 
REMARK    2  A    between atoms: C_6  and  C_7 
REMARK    3  A    between atoms: C_9  and  N_10 
REMARK    4  A    between atoms: C_11  and  C_12 
REMARK       I    between atoms: C_12  and  N_14 
REMARK    5  A    between atoms: N_14  and  C_15 
REMARK    6  A    between atoms: C_27  and  N_28 
ROOT
HETATM    1  C   UNL     1       3.841   4.026  20.761  0.00  0.00     0.013 C 
HETATM    2  C   UNL     1       3.634   4.800  21.961  0.00  0.00     0.035 C 
HETATM    3  C   UNL     1       3.308   6.190  22.278  0.00  0.00     0.043 C 
HETATM    4  C   UNL     1       2.982   6.397  23.611  0.00  0.00     0.097 C 
HETATM    5  S   UNL     1       3.255   4.982  24.527  0.00  0.00    -0.062 SA
HETATM    6  C   UNL     1       3.758   4.105  23.164  0.00  0.00     0.113 C 
HETATM    7  N   UNL     1       4.182   2.842  23.346  0.00  0.00    -0.227 NA
HETATM    8  C   UNL     1       4.478   2.165  22.240  0.00  0.00     0.123 C 
HETATM    9  C   UNL     1       4.292   2.678  20.956  0.00  0.00     0.096 C 
HETATM   10  C   UNL     1       4.515   1.758  19.872  0.00  0.00     0.103 C 
HETATM   11  N   UNL     1       4.710   0.988  19.026  0.00  0.00    -0.191 NA
ENDROOT
BRANCH   1  12
HETATM   12  C   UNL     1       3.461   4.541  19.404  0.00  0.00    -0.023 C 
HETATM   13  C   UNL     1       2.162   4.379  18.887  0.00  0.00     0.013 C 
HETATM   14  C   UNL     1       1.696   5.130  17.802  0.00  0.00     0.008 C 
HETATM   15  C   UNL     1       2.557   5.965  17.094  0.00  0.00    -0.059 C 
HETATM   16  C   UNL     1       3.896   6.014  17.480  0.00  0.00     0.008 C 
HETATM   17  C   UNL     1       4.322   5.356  18.644  0.00  0.00     0.013 C 
BRANCH  15  18
HETATM   18  C   UNL     1       2.024   6.855  16.001  0.00  0.00     0.034 C 
HETATM   19  C   UNL     1       0.767   6.270  15.368  0.00  0.00     0.010 C 
ENDBRANCH  15  18
ENDBRANCH   1  12
BRANCH   8  20
HETATM   20  N   UNL     1       5.063   0.916  22.462  0.00  0.00    -0.286 NA
HETATM   21  H   UNL     1       5.043   0.379  21.599  0.00  0.00     0.125 HD
HETATM   22  H   UNL     1       5.982   0.933  22.892  0.00  0.00     0.125 HD
ENDBRANCH   8  20
BRANCH   3  23
HETATM   23  N   UNL     1       3.303   7.205  21.368  0.00  0.00    -0.301 NA
HETATM   24  H   UNL     1       2.635   7.968  21.514  0.00  0.00     0.124 HD
HETATM   25  H   UNL     1       4.208   7.622  21.139  0.00  0.00     0.124 HD
ENDBRANCH   3  23
BRANCH   4  26
HETATM   26  C   UNL     1       2.507   7.593  24.328  0.00  0.00     0.265 C 
HETATM   27  O   UNL     1       3.273   8.489  24.679  0.00  0.00    -0.267 OA
HETATM   28  N   UNL     1       1.142   7.611  24.558  0.00  0.00    -0.322 N 
HETATM   29  H   UNL     1       0.627   6.845  24.139  0.00  0.00     0.169 HD
BRANCH  28  30
HETATM   30  C   UNL     1       0.377   8.585  25.248  0.00  0.00     0.037 A 
HETATM   31  C   UNL     1      -0.379   9.593  24.610  0.00  0.00     0.032 A 
HETATM   32  C   UNL     1      -1.116  10.529  25.350  0.00  0.00     0.042 A 
HETATM   33  C   UNL     1      -1.081  10.439  26.721  0.00  0.00     0.105 A 
HETATM   34  C   UNL     1      -0.347   9.468  27.356  0.00  0.00     0.107 A 
HETATM   35  O   UNL     1      -1.732  11.255  27.592  0.00  0.00    -0.323 OA
HETATM   36  C   UNL     1       0.390   8.532  26.652  0.00  0.00     0.069 A 
HETATM   37  O   UNL     1      -0.442   9.554  28.711  0.00  0.00    -0.323 OA
HETATM   38  C   UNL     1      -1.322  10.690  28.852  0.00  0.00     0.352 A 
ENDBRANCH  28  30
ENDBRANCH   4  26
TORSDOF 6
ENDMDL
MODEL 7
REMARK VINA RESULT:    -7.376      3.440      5.334
REMARK INTER + INTRA:         -10.848
REMARK INTER:                  -9.640
REMARK INTRA:                  -1.208
REMARK UNBOUND:                -1.316
REMARK  6 active torsions:
REMARK  status: ('A' for Active; 'I' for Inactive)
REMARK    1  A    between atoms: C_2  and  C_3 
REMARK    2  A    between atoms: C_6  and  C_7 
REMARK    3  A    between atoms: C_9  and  N_10 
REMARK    4  A    between atoms: C_11  and  C_12 
REMARK       I    between atoms: C_12  and  N_14 
REMARK    5  A    between atoms: N_14  and  C_15 
REMARK    6  A    between atoms: C_27  and  N_28 
ROOT
HETATM    1  C   UNL     1       2.620   5.259  26.524  0.00  0.00     0.013 C 
HETATM    2  C   UNL     1       3.133   5.140  25.179  0.00  0.00     0.035 C 
HETATM    3  C   UNL     1       2.830   5.734  23.878  0.00  0.00     0.043 C 
HETATM    4  C   UNL     1       3.782   5.460  22.905  0.00  0.00     0.097 C 
HETATM    5  S   UNL     1       4.931   4.336  23.482  0.00  0.00    -0.062 SA
HETATM    6  C   UNL     1       4.194   4.251  25.008  0.00  0.00     0.113 C 
HETATM    7  N   UNL     1       4.702   3.392  25.909  0.00  0.00    -0.227 NA
HETATM    8  C   UNL     1       4.152   3.427  27.119  0.00  0.00     0.123 C 
HETATM    9  C   UNL     1       3.164   4.343  27.484  0.00  0.00     0.096 C 
HETATM   10  C   UNL     1       2.791   4.345  28.873  0.00  0.00     0.103 C 
HETATM   11  N   UNL     1       2.513   4.313  30.000  0.00  0.00    -0.191 NA
ENDROOT
BRANCH   1  12
HETATM   12  C   UNL     1       1.695   6.368  26.929  0.00  0.00    -0.023 C 
HETATM   13  C   UNL     1       2.165   7.668  27.188  0.00  0.00     0.013 C 
HETATM   14  C   UNL     1       1.309   8.774  27.229  0.00  0.00     0.008 C 
HETATM   15  C   UNL     1      -0.072   8.606  27.164  0.00  0.00    -0.059 C 
HETATM   16  C   UNL     1      -0.576   7.308  27.079  0.00  0.00     0.008 C 
HETATM   17  C   UNL     1       0.294   6.220  26.910  0.00  0.00     0.013 C 
BRANCH  15  18
HETATM   18  C   UNL     1      -0.983   9.805  27.095  0.00  0.00     0.034 C 
HETATM   19  C   UNL     1      -1.291  10.351  28.484  0.00  0.00     0.010 C 
ENDBRANCH  15  18
ENDBRANCH   1  12
BRANCH   8  20
HETATM   20  N   UNL     1       4.587   2.422  27.985  0.00  0.00    -0.286 NA
HETATM   21  H   UNL     1       4.681   2.805  28.923  0.00  0.00     0.125 HD
HETATM   22  H   UNL     1       4.048   1.563  27.966  0.00  0.00     0.125 HD
ENDBRANCH   8  20
BRANCH   3  23
HETATM   23  N   UNL     1       1.732   6.499  23.618  0.00  0.00    -0.301 NA
HETATM   24  H   UNL     1       1.840   7.270  22.952  0.00  0.00     0.124 HD
HETATM   25  H   UNL     1       0.870   6.002  23.383  0.00  0.00     0.124 HD
ENDBRANCH   3  23
BRANCH   4  26
HETATM   26  C   UNL     1       3.922   5.926  21.515  0.00  0.00     0.265 C 
HETATM   27  O   UNL     1       5.004   6.290  21.056  0.00  0.00    -0.267 OA
HETATM   28  N   UNL     1       2.744   5.909  20.789  0.00  0.00    -0.322 N 
HETATM   29  H   UNL     1       1.949   5.506  21.273  0.00  0.00     0.169 HD
BRANCH  28  30
HETATM   30  C   UNL     1       2.524   6.327  19.452  0.00  0.00     0.037 A 
HETATM   31  C   UNL     1       2.730   7.646  18.993  0.00  0.00     0.032 A 
HETATM   32  C   UNL     1       2.493   7.997  17.656  0.00  0.00     0.042 A 
HETATM   33  C   UNL     1       2.049   7.016  16.800  0.00  0.00     0.105 A 
HETATM   34  C   UNL     1       1.839   5.731  17.233  0.00  0.00     0.107 A 
HETATM   35  O   UNL     1       1.772   7.175  15.479  0.00  0.00    -0.323 OA
HETATM   36  C   UNL     1       2.064   5.356  18.546  0.00  0.00     0.069 A 
HETATM   37  O   UNL     1       1.398   4.917  16.235  0.00  0.00    -0.323 OA
HETATM   38  C   UNL     1       1.358   5.841  15.126  0.00  0.00     0.352 A 
ENDBRANCH  28  30
ENDBRANCH   4  26
TORSDOF 6
ENDMDL
MODEL 8
REMARK VINA RESULT:    -7.261      4.600      9.216
REMARK INTER + INTRA:         -10.699
REMARK INTER:                  -9.628
REMARK INTRA:                  -1.071
REMARK UNBOUND:                -1.316
REMARK  6 active torsions:
REMARK  status: ('A' for Active; 'I' for Inactive)
REMARK    1  A    between atoms: C_2  and  C_3 
REMARK    2  A    between atoms: C_6  and  C_7 
REMARK    3  A    between atoms: C_9  and  N_10 
REMARK    4  A    between atoms: C_11  and  C_12 
REMARK       I    between atoms: C_12  and  N_14 
REMARK    5  A    between atoms: N_14  and  C_15 
REMARK    6  A    between atoms: C_27  and  N_28 
ROOT
HETATM    1  C   UNL     1       3.203   6.152  20.420  0.00  0.00     0.013 C 
HETATM    2  C   UNL     1       3.575   6.471  21.778  0.00  0.00     0.035 C 
HETATM    3  C   UNL     1       2.946   6.380  23.094  0.00  0.00     0.043 C 
HETATM    4  C   UNL     1       3.820   6.604  24.148  0.00  0.00     0.097 C 
HETATM    5  S   UNL     1       5.344   7.118  23.571  0.00  0.00    -0.062 SA
HETATM    6  C   UNL     1       4.853   7.003  21.951  0.00  0.00     0.113 C 
HETATM    7  N   UNL     1       5.723   7.384  20.999  0.00  0.00    -0.227 NA
HETATM    8  C   UNL     1       5.330   7.189  19.743  0.00  0.00     0.123 C 
HETATM    9  C   UNL     1       4.133   6.557  19.405  0.00  0.00     0.096 C 
HETATM   10  C   UNL     1       3.936   6.288  18.005  0.00  0.00     0.103 C 
HETATM   11  N   UNL     1       3.812   6.095  16.868  0.00  0.00    -0.191 NA
ENDROOT
BRANCH   1  12
HETATM   12  C   UNL     1       2.002   5.314  20.098  0.00  0.00    -0.023 C 
HETATM   13  C   UNL     1       0.912   5.829  19.372  0.00  0.00     0.013 C 
HETATM   14  C   UNL     1      -0.042   4.998  18.775  0.00  0.00     0.008 C 
HETATM   15  C   UNL     1      -0.032   3.624  19.005  0.00  0.00    -0.059 C 
HETATM   16  C   UNL     1       0.939   3.105  19.862  0.00  0.00     0.008 C 
HETATM   17  C   UNL     1       1.964   3.929  20.352  0.00  0.00     0.013 C 
BRANCH  15  18
HETATM   18  C   UNL     1      -0.990   2.722  18.271  0.00  0.00     0.034 C 
HETATM   19  C   UNL     1      -2.235   2.436  19.104  0.00  0.00     0.010 C 
ENDBRANCH  15  18
ENDBRANCH   1  12
BRANCH   8  20
HETATM   20  N   UNL     1       6.179   7.734  18.777  0.00  0.00    -0.286 NA
HETATM   21  H   UNL     1       5.740   7.658  17.863  0.00  0.00     0.125 HD
HETATM   22  H   UNL     1       6.520   8.670  18.971  0.00  0.00     0.125 HD
ENDBRANCH   8  20
BRANCH   3  23
HETATM   23  N   UNL     1       1.629   6.090  23.299  0.00  0.00    -0.301 NA
HETATM   24  H   UNL     1       0.937   6.660  22.804  0.00  0.00     0.124 HD
HETATM   25  H   UNL     1       1.354   5.110  23.201  0.00  0.00     0.124 HD
ENDBRANCH   3  23
BRANCH   4  26
HETATM   26  C   UNL     1       3.637   6.517  25.607  0.00  0.00     0.265 C 
HETATM   27  O   UNL     1       4.464   5.970  26.335  0.00  0.00    -0.267 OA
HETATM   28  N   UNL     1       2.472   7.103  26.069  0.00  0.00    -0.322 N 
HETATM   29  H   UNL     1       1.928   7.588  25.363  0.00  0.00     0.169 HD
BRANCH  28  30
HETATM   30  C   UNL     1       1.978   7.160  27.396  0.00  0.00     0.037 A 
HETATM   31  C   UNL     1       0.955   6.323  27.894  0.00  0.00     0.032 A 
HETATM   32  C   UNL     1       0.508   6.428  29.220  0.00  0.00     0.042 A 
HETATM   33  C   UNL     1       1.095   7.377  30.024  0.00  0.00     0.105 A 
HETATM   34  C   UNL     1       2.085   8.201  29.553  0.00  0.00     0.107 A 
HETATM   35  O   UNL     1       0.790   7.617  31.327  0.00  0.00    -0.323 OA
HETATM   36  C   UNL     1       2.546   8.120  28.251  0.00  0.00     0.069 A 
HETATM   37  O   UNL     1       2.528   9.069  30.503  0.00  0.00    -0.323 OA
HETATM   38  C   UNL     1       1.701   8.692  31.625  0.00  0.00     0.352 A 
ENDBRANCH  28  30
ENDBRANCH   4  26
TORSDOF 6
ENDMDL
MODEL 9
REMARK VINA RESULT:    -7.161      3.504      6.303
REMARK INTER + INTRA:         -10.570
REMARK INTER:                  -9.254
REMARK INTRA:                  -1.316
REMARK UNBOUND:                -1.316
REMARK  6 active torsions:
REMARK  status: ('A' for Active; 'I' for Inactive)
REMARK    1  A    between atoms: C_2  and  C_3 
REMARK    2  A    between atoms: C_6  and  C_7 
REMARK    3  A    between atoms: C_9  and  N_10 
REMARK    4  A    between atoms: C_11  and  C_12 
REMARK       I    between atoms: C_12  and  N_14 
REMARK    5  A    between atoms: N_14  and  C_15 
REMARK    6  A    between atoms: C_27  and  N_28 
ROOT
HETATM    1  C   UNL     1       2.513   6.908  28.496  0.00  0.00     0.013 C 
HETATM    2  C   UNL     1       2.568   7.619  27.240  0.00  0.00     0.035 C 
HETATM    3  C   UNL     1       3.442   7.626  26.069  0.00  0.00     0.043 C 
HETATM    4  C   UNL     1       2.931   8.341  24.995  0.00  0.00     0.097 C 
HETATM    5  S   UNL     1       1.505   9.167  25.442  0.00  0.00    -0.062 SA
HETATM    6  C   UNL     1       1.553   8.550  27.022  0.00  0.00     0.113 C 
HETATM    7  N   UNL     1       0.615   8.966  27.892  0.00  0.00    -0.227 NA
HETATM    8  C   UNL     1       0.636   8.386  29.089  0.00  0.00     0.123 C 
HETATM    9  C   UNL     1       1.511   7.351  29.422  0.00  0.00     0.096 C 
HETATM   10  C   UNL     1       1.296   6.733  30.704  0.00  0.00     0.103 C 
HETATM   11  N   UNL     1       1.093   6.265  31.746  0.00  0.00    -0.191 NA
ENDROOT
BRANCH   1  12
HETATM   12  C   UNL     1       3.342   5.686  28.757  0.00  0.00    -0.023 C 
HETATM   13  C   UNL     1       2.973   4.421  28.262  0.00  0.00     0.013 C 
HETATM   14  C   UNL     1       3.878   3.356  28.197  0.00  0.00     0.008 C 
HETATM   15  C   UNL     1       5.146   3.466  28.762  0.00  0.00    -0.059 C 
HETATM   16  C   UNL     1       5.479   4.654  29.413  0.00  0.00     0.008 C 
HETATM   17  C   UNL     1       4.612   5.756  29.361  0.00  0.00     0.013 C 
BRANCH  15  18
HETATM   18  C   UNL     1       6.155   2.359  28.590  0.00  0.00     0.034 C 
HETATM   19  C   UNL     1       7.108   2.648  27.435  0.00  0.00     0.010 C 
ENDBRANCH  15  18
ENDBRANCH   1  12
BRANCH   8  20
HETATM   20  N   UNL     1      -0.242   8.943  30.021  0.00  0.00    -0.286 NA
HETATM   21  H   UNL     1      -0.541   9.859  29.694  0.00  0.00     0.125 HD
HETATM   22  H   UNL     1      -1.021   8.353  30.296  0.00  0.00     0.125 HD
ENDBRANCH   8  20
BRANCH   3  23
HETATM   23  N   UNL     1       4.646   6.990  26.004  0.00  0.00    -0.301 NA
HETATM   24  H   UNL     1       4.650   6.015  25.691  0.00  0.00     0.124 HD
HETATM   25  H   UNL     1       5.399   7.478  25.512  0.00  0.00     0.124 HD
ENDBRANCH   3  23
BRANCH   4  26
HETATM   26  C   UNL     1       3.422   8.524  23.618  0.00  0.00     0.265 C 
HETATM   27  O   UNL     1       3.543   9.640  23.113  0.00  0.00    -0.267 OA
HETATM   28  N   UNL     1       3.733   7.345  22.965  0.00  0.00    -0.322 N 
HETATM   29  H   UNL     1       3.662   6.509  23.534  0.00  0.00     0.169 HD
BRANCH  28  30
HETATM   30  C   UNL     1       4.187   7.166  21.634  0.00  0.00     0.037 A 
HETATM   31  C   UNL     1       5.514   7.405  21.214  0.00  0.00     0.032 A 
HETATM   32  C   UNL     1       5.902   7.209  19.880  0.00  0.00     0.042 A 
HETATM   33  C   UNL     1       4.949   6.779  18.988  0.00  0.00     0.105 A 
HETATM   34  C   UNL     1       3.654   6.549  19.380  0.00  0.00     0.107 A 
HETATM   35  O   UNL     1       5.146   6.537  17.664  0.00  0.00    -0.323 OA
HETATM   36  C   UNL     1       3.243   6.732  20.688  0.00  0.00     0.069 A 
HETATM   37  O   UNL     1       2.870   6.134  18.348  0.00  0.00    -0.323 OA
HETATM   38  C   UNL     1       3.823   6.129  17.263  0.00  0.00     0.352 A 
ENDBRANCH  28  30
ENDBRANCH   4  26
TORSDOF 6
ENDMDL
