MODEL 1
REMARK VINA RESULT:    -6.760      0.000      0.000
REMARK INTER + INTRA:          -9.503
REMARK INTER:                  -8.192
REMARK INTRA:                  -1.311
REMARK UNBOUND:                -1.163
REMARK  5 active torsions:
REMARK  status: ('A' for Active; 'I' for Inactive)
REMARK    1  A    between atoms: O_1  and  C_2 
REMARK    2  A    between atoms: C_4  and  O_5 
REMARK    3  A    between atoms: C_6  and  C_9 
REMARK    4  A    between atoms: N_15  and  C_16 
REMARK    5  A    between atoms: C_17  and  C_18 
ROOT
HETATM    1  C   UNL     1       8.016  11.630  22.879  0.00  0.00     0.171 C 
HETATM    2  N   UNL     1       8.813  10.635  23.165  0.00  0.00    -0.151 NA
HETATM    3  N   UNL     1       9.540  11.062  24.236  0.00  0.00    -0.226 N 
HETATM    4  H   UNL     1      10.126  10.437  24.773  0.00  0.00     0.194 HD
HETATM    5  C   UNL     1       9.130  12.325  24.635  0.00  0.00     0.349 C 
HETATM    6  O   UNL     1       9.485  12.888  25.661  0.00  0.00    -0.245 OA
HETATM    7  N   UNL     1       8.221  12.730  23.682  0.00  0.00    -0.244 N 
ENDROOT
BRANCH   1   8
HETATM    8  C   UNL     1       6.994  11.554  21.784  0.00  0.00     0.045 A 
HETATM    9  C   UNL     1       7.386  11.580  20.433  0.00  0.00     0.082 A 
HETATM   10  C   UNL     1       6.456  11.425  19.394  0.00  0.00     0.074 A 
HETATM   11  C   UNL     1       5.116  11.240  19.703  0.00  0.00     0.068 A 
HETATM   12  C   UNL     1       4.688  11.279  21.020  0.00  0.00     0.037 A 
HETATM   13  C   UNL     1       5.619  11.459  22.052  0.00  0.00     0.021 A 
BRANCH   9  14
HETATM   14  O   UNL     1       8.700  11.732  20.078  0.00  0.00    -0.360 OA
HETATM   15  H   UNL     1       8.807  11.575  19.127  0.00  0.00     0.217 HD
ENDBRANCH   9  14
BRANCH  11  16
HETATM   16  O   UNL     1       4.187  11.008  18.735  0.00  0.00    -0.361 OA
HETATM   17  H   UNL     1       3.930  11.854  18.331  0.00  0.00     0.217 HD
ENDBRANCH  11  16
ENDBRANCH   1   8
BRANCH   7  18
HETATM   18  C   UNL     1       7.471  13.907  23.811  0.00  0.00     0.052 C 
HETATM   19  C   UNL     1       7.691  14.993  22.938  0.00  0.00    -0.031 C 
HETATM   20  C   UNL     1       6.761  16.046  22.938  0.00  0.00     0.009 C 
HETATM   21  C   UNL     1       5.710  16.075  23.857  0.00  0.00     0.001 C 
HETATM   22  C   UNL     1       5.579  15.057  24.799  0.00  0.00     0.002 C 
HETATM   23  C   UNL     1       6.443  13.964  24.764  0.00  0.00     0.031 C 
BRANCH  19  24
HETATM   24  C   UNL     1       8.877  15.080  22.005  0.00  0.00     0.036 C 
HETATM   25  C   UNL     1       9.184  16.480  21.502  0.00  0.00     0.010 C 
ENDBRANCH  19  24
ENDBRANCH   7  18
TORSDOF 5
ENDMDL
MODEL 2
REMARK VINA RESULT:    -6.722      2.241      3.056
REMARK INTER + INTRA:          -9.457
REMARK INTER:                  -8.121
REMARK INTRA:                  -1.336
REMARK UNBOUND:                -1.163
REMARK  5 active torsions:
REMARK  status: ('A' for Active; 'I' for Inactive)
REMARK    1  A    between atoms: O_1  and  C_2 
REMARK    2  A    between atoms: C_4  and  O_5 
REMARK    3  A    between atoms: C_6  and  C_9 
REMARK    4  A    between atoms: N_15  and  C_16 
REMARK    5  A    between atoms: C_17  and  C_18 
ROOT
HETATM    1  C   UNL     1       7.875  12.508  21.154  0.00  0.00     0.171 C 
HETATM    2  N   UNL     1       8.806  12.322  20.256  0.00  0.00    -0.151 NA
HETATM    3  N   UNL     1       9.512  13.487  20.235  0.00  0.00    -0.226 N 
HETATM    4  H   UNL     1      10.393  13.575  19.747  0.00  0.00     0.194 HD
HETATM    5  C   UNL     1       9.023  14.375  21.182  0.00  0.00     0.349 C 
HETATM    6  O   UNL     1       9.558  15.428  21.502  0.00  0.00    -0.245 OA
HETATM    7  N   UNL     1       7.894  13.775  21.693  0.00  0.00    -0.244 N 
ENDROOT
BRANCH   1   8
HETATM    8  C   UNL     1       6.899  11.435  21.535  0.00  0.00     0.045 A 
HETATM    9  C   UNL     1       7.346  10.220  22.087  0.00  0.00     0.082 A 
HETATM   10  C   UNL     1       6.448   9.237  22.530  0.00  0.00     0.074 A 
HETATM   11  C   UNL     1       5.084   9.466  22.423  0.00  0.00     0.068 A 
HETATM   12  C   UNL     1       4.612  10.621  21.821  0.00  0.00     0.037 A 
HETATM   13  C   UNL     1       5.514  11.588  21.359  0.00  0.00     0.021 A 
BRANCH   9  14
HETATM   14  O   UNL     1       8.683   9.960  22.239  0.00  0.00    -0.360 OA
HETATM   15  H   UNL     1       8.814   9.028  22.476  0.00  0.00     0.217 HD
ENDBRANCH   9  14
BRANCH  11  16
HETATM   16  O   UNL     1       4.172   8.578  22.908  0.00  0.00    -0.361 OA
HETATM   17  H   UNL     1       3.857   8.017  22.181  0.00  0.00     0.217 HD
ENDBRANCH  11  16
ENDBRANCH   1   8
BRANCH   7  18
HETATM   18  C   UNL     1       7.191  14.303  22.785  0.00  0.00     0.052 C 
HETATM   19  C   UNL     1       7.718  14.203  24.089  0.00  0.00    -0.031 C 
HETATM   20  C   UNL     1       7.113  14.955  25.112  0.00  0.00     0.009 C 
HETATM   21  C   UNL     1       5.953  15.692  24.869  0.00  0.00     0.001 C 
HETATM   22  C   UNL     1       5.371  15.680  23.603  0.00  0.00     0.002 C 
HETATM   23  C   UNL     1       5.998  15.005  22.557  0.00  0.00     0.031 C 
BRANCH  19  24
HETATM   24  C   UNL     1       8.898  13.326  24.443  0.00  0.00     0.036 C 
HETATM   25  C   UNL     1       8.530  12.007  25.101  0.00  0.00     0.010 C 
ENDBRANCH  19  24
ENDBRANCH   7  18
TORSDOF 5
ENDMDL
MODEL 3
REMARK VINA RESULT:    -6.534      2.624      3.908
REMARK INTER + INTRA:          -9.225
REMARK INTER:                  -8.119
REMARK INTRA:                  -1.106
REMARK UNBOUND:                -1.163
REMARK  5 active torsions:
REMARK  status: ('A' for Active; 'I' for Inactive)
REMARK    1  A    between atoms: O_1  and  C_2 
REMARK    2  A    between atoms: C_4  and  O_5 
REMARK    3  A    between atoms: C_6  and  C_9 
REMARK    4  A    between atoms: N_15  and  C_16 
REMARK    5  A    between atoms: C_17  and  C_18 
ROOT
HETATM    1  C   UNL     1       6.301  12.686  21.573  0.00  0.00     0.171 C 
HETATM    2  N   UNL     1       6.077  11.921  20.538  0.00  0.00    -0.151 NA
HETATM    3  N   UNL     1       7.310  11.494  20.143  0.00  0.00    -0.226 N 
HETATM    4  H   UNL     1       7.432  10.758  19.460  0.00  0.00     0.194 HD
HETATM    5  C   UNL     1       8.292  11.972  20.997  0.00  0.00     0.349 C 
HETATM    6  O   UNL     1       9.464  11.621  20.988  0.00  0.00    -0.245 OA
HETATM    7  N   UNL     1       7.641  12.833  21.853  0.00  0.00    -0.244 N 
ENDROOT
BRANCH   1   8
HETATM    8  C   UNL     1       5.193  13.324  22.357  0.00  0.00     0.045 A 
HETATM    9  C   UNL     1       3.983  12.640  22.578  0.00  0.00     0.082 A 
HETATM   10  C   UNL     1       2.966  13.182  23.378  0.00  0.00     0.074 A 
HETATM   11  C   UNL     1       3.156  14.423  23.969  0.00  0.00     0.068 A 
HETATM   12  C   UNL     1       4.306  15.152  23.716  0.00  0.00     0.037 A 
HETATM   13  C   UNL     1       5.307  14.615  22.896  0.00  0.00     0.021 A 
BRANCH   9  14
HETATM   14  O   UNL     1       3.760  11.401  22.038  0.00  0.00    -0.360 OA
HETATM   15  H   UNL     1       4.601  10.929  21.934  0.00  0.00     0.217 HD
ENDBRANCH   9  14
BRANCH  11  16
HETATM   16  O   UNL     1       2.233  14.957  24.816  0.00  0.00    -0.361 OA
HETATM   17  H   UNL     1       1.495  15.317  24.296  0.00  0.00     0.217 HD
ENDBRANCH  11  16
ENDBRANCH   1   8
BRANCH   7  18
HETATM   18  C   UNL     1       8.275  13.414  22.960  0.00  0.00     0.052 C 
HETATM   19  C   UNL     1       8.861  14.693  22.857  0.00  0.00    -0.031 C 
HETATM   20  C   UNL     1       9.262  15.339  24.039  0.00  0.00     0.009 C 
HETATM   21  C   UNL     1       9.188  14.689  25.272  0.00  0.00     0.001 C 
HETATM   22  C   UNL     1       8.724  13.377  25.342  0.00  0.00     0.002 C 
HETATM   23  C   UNL     1       8.249  12.747  24.193  0.00  0.00     0.031 C 
BRANCH  19  24
HETATM   24  C   UNL     1       9.082  15.401  21.539  0.00  0.00     0.036 C 
HETATM   25  C   UNL     1       9.558  16.838  21.666  0.00  0.00     0.010 C 
ENDBRANCH  19  24
ENDBRANCH   7  18
TORSDOF 5
ENDMDL
MODEL 4
REMARK VINA RESULT:    -6.530      2.057      3.333
REMARK INTER + INTRA:          -9.220
REMARK INTER:                  -7.847
REMARK INTRA:                  -1.373
REMARK UNBOUND:                -1.163
REMARK  5 active torsions:
REMARK  status: ('A' for Active; 'I' for Inactive)
REMARK    1  A    between atoms: O_1  and  C_2 
REMARK    2  A    between atoms: C_4  and  O_5 
REMARK    3  A    between atoms: C_6  and  C_9 
REMARK    4  A    between atoms: N_15  and  C_16 
REMARK    5  A    between atoms: C_17  and  C_18 
ROOT
HETATM    1  C   UNL     1       8.267  13.239  24.142  0.00  0.00     0.171 C 
HETATM    2  N   UNL     1       9.414  13.100  24.753  0.00  0.00    -0.151 NA
HETATM    3  N   UNL     1       9.374  13.992  25.783  0.00  0.00    -0.226 N 
HETATM    4  H   UNL     1      10.064  13.992  26.523  0.00  0.00     0.194 HD
HETATM    5  C   UNL     1       8.151  14.643  25.821  0.00  0.00     0.349 C 
HETATM    6  O   UNL     1       7.770  15.372  26.727  0.00  0.00    -0.245 OA
HETATM    7  N   UNL     1       7.484  14.231  24.689  0.00  0.00    -0.244 N 
ENDROOT
BRANCH   1   8
HETATM    8  C   UNL     1       7.873  12.393  22.969  0.00  0.00     0.045 A 
HETATM    9  C   UNL     1       7.870  10.989  23.064  0.00  0.00     0.082 A 
HETATM   10  C   UNL     1       7.423  10.180  22.008  0.00  0.00     0.074 A 
HETATM   11  C   UNL     1       6.973  10.776  20.840  0.00  0.00     0.068 A 
HETATM   12  C   UNL     1       7.028  12.152  20.688  0.00  0.00     0.037 A 
HETATM   13  C   UNL     1       7.498  12.952  21.737  0.00  0.00     0.021 A 
BRANCH   9  14
HETATM   14  O   UNL     1       8.279  10.355  24.208  0.00  0.00    -0.360 OA
HETATM   15  H   UNL     1       8.083   9.406  24.149  0.00  0.00     0.217 HD
ENDBRANCH   9  14
BRANCH  11  16
HETATM   16  O   UNL     1       6.458  10.039  19.817  0.00  0.00    -0.361 OA
HETATM   17  H   UNL     1       5.759  10.551  19.377  0.00  0.00     0.217 HD
ENDBRANCH  11  16
ENDBRANCH   1   8
BRANCH   7  18
HETATM   18  C   UNL     1       6.145  14.565  24.442  0.00  0.00     0.052 C 
HETATM   19  C   UNL     1       5.104  13.742  24.919  0.00  0.00    -0.031 C 
HETATM   20  C   UNL     1       3.789  14.235  24.869  0.00  0.00     0.009 C 
HETATM   21  C   UNL     1       3.505  15.457  24.259  0.00  0.00     0.001 C 
HETATM   22  C   UNL     1       4.529  16.202  23.678  0.00  0.00     0.002 C 
HETATM   23  C   UNL     1       5.849  15.769  23.787  0.00  0.00     0.031 C 
BRANCH  19  24
HETATM   24  C   UNL     1       5.332  12.356  25.480  0.00  0.00     0.036 C 
HETATM   25  C   UNL     1       4.611  11.246  24.734  0.00  0.00     0.010 C 
ENDBRANCH  19  24
ENDBRANCH   7  18
TORSDOF 5
ENDMDL
MODEL 5
REMARK VINA RESULT:    -6.398      1.096      1.485
REMARK INTER + INTRA:          -9.056
REMARK INTER:                  -7.716
REMARK INTRA:                  -1.340
REMARK UNBOUND:                -1.163
REMARK  5 active torsions:
REMARK  status: ('A' for Active; 'I' for Inactive)
REMARK    1  A    between atoms: O_1  and  C_2 
REMARK    2  A    between atoms: C_4  and  O_5 
REMARK    3  A    between atoms: C_6  and  C_9 
REMARK    4  A    between atoms: N_15  and  C_16 
REMARK    5  A    between atoms: C_17  and  C_18 
ROOT
HETATM    1  C   UNL     1       8.036  11.304  22.941  0.00  0.00     0.171 C 
HETATM    2  N   UNL     1       8.837  10.326  23.270  0.00  0.00    -0.151 NA
HETATM    3  N   UNL     1       9.558  10.801  24.325  0.00  0.00    -0.226 N 
HETATM    4  H   UNL     1      10.146  10.202  24.889  0.00  0.00     0.194 HD
HETATM    5  C   UNL     1       9.141  12.077  24.669  0.00  0.00     0.349 C 
HETATM    6  O   UNL     1       9.491  12.685  25.672  0.00  0.00    -0.245 OA
HETATM    7  N   UNL     1       8.233  12.438  23.698  0.00  0.00    -0.244 N 
ENDROOT
BRANCH   1   8
HETATM    8  C   UNL     1       7.018  11.177  21.847  0.00  0.00     0.045 A 
HETATM    9  C   UNL     1       5.742  10.647  22.112  0.00  0.00     0.082 A 
HETATM   10  C   UNL     1       4.746  10.597  21.124  0.00  0.00     0.074 A 
HETATM   11  C   UNL     1       5.023  11.084  19.856  0.00  0.00     0.068 A 
HETATM   12  C   UNL     1       6.290  11.549  19.544  0.00  0.00     0.037 A 
HETATM   13  C   UNL     1       7.288  11.573  20.527  0.00  0.00     0.021 A 
BRANCH   9  14
HETATM   14  O   UNL     1       5.412  10.179  23.356  0.00  0.00    -0.360 OA
HETATM   15  H   UNL     1       5.354  10.918  23.983  0.00  0.00     0.217 HD
ENDBRANCH   9  14
BRANCH  11  16
HETATM   16  O   UNL     1       4.068  11.130  18.886  0.00  0.00    -0.361 OA
HETATM   17  H   UNL     1       4.265  10.457  18.213  0.00  0.00     0.217 HD
ENDBRANCH  11  16
ENDBRANCH   1   8
BRANCH   7  18
HETATM   18  C   UNL     1       7.478  13.615  23.775  0.00  0.00     0.052 C 
HETATM   19  C   UNL     1       7.744  14.693  22.905  0.00  0.00    -0.031 C 
HETATM   20  C   UNL     1       6.814  15.746  22.845  0.00  0.00     0.009 C 
HETATM   21  C   UNL     1       5.716  15.782  23.706  0.00  0.00     0.001 C 
HETATM   22  C   UNL     1       5.535  14.773  24.649  0.00  0.00     0.002 C 
HETATM   23  C   UNL     1       6.400  13.681  24.671  0.00  0.00     0.031 C 
BRANCH  19  24
HETATM   24  C   UNL     1       8.978  14.772  22.036  0.00  0.00     0.036 C 
HETATM   25  C   UNL     1       9.422  16.185  21.696  0.00  0.00     0.010 C 
ENDBRANCH  19  24
ENDBRANCH   7  18
TORSDOF 5
ENDMDL
MODEL 6
REMARK VINA RESULT:    -6.349      2.852      4.972
REMARK INTER + INTRA:          -8.997
REMARK INTER:                  -7.547
REMARK INTRA:                  -1.450
REMARK UNBOUND:                -1.163
REMARK  5 active torsions:
REMARK  status: ('A' for Active; 'I' for Inactive)
REMARK    1  A    between atoms: O_1  and  C_2 
REMARK    2  A    between atoms: C_4  and  O_5 
REMARK    3  A    between atoms: C_6  and  C_9 
REMARK    4  A    between atoms: N_15  and  C_16 
REMARK    5  A    between atoms: C_17  and  C_18 
ROOT
HETATM    1  C   UNL     1       5.070  12.468  21.881  0.00  0.00     0.171 C 
HETATM    2  N   UNL     1       4.220  11.957  21.030  0.00  0.00    -0.151 NA
HETATM    3  N   UNL     1       4.900  10.946  20.419  0.00  0.00    -0.226 N 
HETATM    4  H   UNL     1       4.440  10.269  19.825  0.00  0.00     0.194 HD
HETATM    5  C   UNL     1       6.172  10.815  20.955  0.00  0.00     0.349 C 
HETATM    6  O   UNL     1       6.943   9.895  20.720  0.00  0.00    -0.245 OA
HETATM    7  N   UNL     1       6.312  11.876  21.822  0.00  0.00    -0.244 N 
ENDROOT
BRANCH   1   8
HETATM    8  C   UNL     1       4.703  13.585  22.813  0.00  0.00     0.045 A 
HETATM    9  C   UNL     1       3.643  13.438  23.728  0.00  0.00     0.082 A 
HETATM   10  C   UNL     1       3.337  14.436  24.666  0.00  0.00     0.074 A 
HETATM   11  C   UNL     1       4.096  15.596  24.695  0.00  0.00     0.068 A 
HETATM   12  C   UNL     1       5.101  15.801  23.763  0.00  0.00     0.037 A 
HETATM   13  C   UNL     1       5.385  14.812  22.813  0.00  0.00     0.021 A 
BRANCH   9  14
HETATM   14  O   UNL     1       2.883  12.299  23.756  0.00  0.00    -0.360 OA
HETATM   15  H   UNL     1       3.245  11.644  23.138  0.00  0.00     0.217 HD
ENDBRANCH   9  14
BRANCH  11  16
HETATM   16  O   UNL     1       3.889  16.560  25.635  0.00  0.00    -0.361 OA
HETATM   17  H   UNL     1       4.722  17.034  25.793  0.00  0.00     0.217 HD
ENDBRANCH  11  16
ENDBRANCH   1   8
BRANCH   7  18
HETATM   18  C   UNL     1       7.420  12.013  22.670  0.00  0.00     0.052 C 
HETATM   19  C   UNL     1       8.454  12.917  22.353  0.00  0.00    -0.031 C 
HETATM   20  C   UNL     1       9.413  13.205  23.339  0.00  0.00     0.009 C 
HETATM   21  C   UNL     1       9.410  12.530  24.560  0.00  0.00     0.001 C 
HETATM   22  C   UNL     1       8.455  11.547  24.812  0.00  0.00     0.002 C 
HETATM   23  C   UNL     1       7.449  11.302  23.879  0.00  0.00     0.031 C 
BRANCH  19  24
HETATM   24  C   UNL     1       8.584  13.589  21.004  0.00  0.00     0.036 C 
HETATM   25  C   UNL     1       9.288  12.755  19.948  0.00  0.00     0.010 C 
ENDBRANCH  19  24
ENDBRANCH   7  18
TORSDOF 5
ENDMDL
MODEL 7
REMARK VINA RESULT:    -6.344      2.505      3.736
REMARK INTER + INTRA:          -8.990
REMARK INTER:                  -7.725
REMARK INTRA:                  -1.265
REMARK UNBOUND:                -1.163
REMARK  5 active torsions:
REMARK  status: ('A' for Active; 'I' for Inactive)
REMARK    1  A    between atoms: O_1  and  C_2 
REMARK    2  A    between atoms: C_4  and  O_5 
REMARK    3  A    between atoms: C_6  and  C_9 
REMARK    4  A    between atoms: N_15  and  C_16 
REMARK    5  A    between atoms: C_17  and  C_18 
ROOT
HETATM    1  C   UNL     1       8.403  12.660  21.735  0.00  0.00     0.171 C 
HETATM    2  N   UNL     1       8.792  12.574  20.491  0.00  0.00    -0.151 NA
HETATM    3  N   UNL     1       9.204  13.831  20.164  0.00  0.00    -0.226 N 
HETATM    4  H   UNL     1       9.708  14.028  19.310  0.00  0.00     0.194 HD
HETATM    5  C   UNL     1       9.108  14.679  21.257  0.00  0.00     0.349 C 
HETATM    6  O   UNL     1       9.558  15.816  21.307  0.00  0.00    -0.245 OA
HETATM    7  N   UNL     1       8.484  13.939  22.237  0.00  0.00    -0.244 N 
ENDROOT
BRANCH   1   8
HETATM    8  C   UNL     1       7.921  11.470  22.511  0.00  0.00     0.045 A 
HETATM    9  C   UNL     1       6.586  11.037  22.406  0.00  0.00     0.082 A 
HETATM   10  C   UNL     1       6.135   9.878  23.056  0.00  0.00     0.074 A 
HETATM   11  C   UNL     1       7.025   9.138  23.821  0.00  0.00     0.068 A 
HETATM   12  C   UNL     1       8.327   9.575  24.001  0.00  0.00     0.037 A 
HETATM   13  C   UNL     1       8.764  10.747  23.369  0.00  0.00     0.021 A 
BRANCH   9  14
HETATM   14  O   UNL     1       5.677  11.718  21.641  0.00  0.00    -0.360 OA
HETATM   15  H   UNL     1       5.915  11.647  20.703  0.00  0.00     0.217 HD
ENDBRANCH   9  14
BRANCH  11  16
HETATM   16  O   UNL     1       6.657   7.965  24.407  0.00  0.00    -0.361 OA
HETATM   17  H   UNL     1       7.326   7.288  24.211  0.00  0.00     0.217 HD
ENDBRANCH  11  16
ENDBRANCH   1   8
BRANCH   7  18
HETATM   18  C   UNL     1       8.332  14.407  23.550  0.00  0.00     0.052 C 
HETATM   19  C   UNL     1       7.100  14.945  23.978  0.00  0.00    -0.031 C 
HETATM   20  C   UNL     1       6.913  15.169  25.352  0.00  0.00     0.009 C 
HETATM   21  C   UNL     1       7.956  14.974  26.259  0.00  0.00     0.001 C 
HETATM   22  C   UNL     1       9.207  14.563  25.805  0.00  0.00     0.002 C 
HETATM   23  C   UNL     1       9.391  14.259  24.457  0.00  0.00     0.031 C 
BRANCH  19  24
HETATM   24  C   UNL     1       5.973  15.293  23.032  0.00  0.00     0.036 C 
HETATM   25  C   UNL     1       4.841  16.085  23.663  0.00  0.00     0.010 C 
ENDBRANCH  19  24
ENDBRANCH   7  18
TORSDOF 5
ENDMDL
MODEL 8
REMARK VINA RESULT:    -6.290      2.264      5.189
REMARK INTER + INTRA:          -8.924
REMARK INTER:                  -7.507
REMARK INTRA:                  -1.416
REMARK UNBOUND:                -1.163
REMARK  5 active torsions:
REMARK  status: ('A' for Active; 'I' for Inactive)
REMARK    1  A    between atoms: O_1  and  C_2 
REMARK    2  A    between atoms: C_4  and  O_5 
REMARK    3  A    between atoms: C_6  and  C_9 
REMARK    4  A    between atoms: N_15  and  C_16 
REMARK    5  A    between atoms: C_17  and  C_18 
ROOT
HETATM    1  C   UNL     1       7.845  14.315  22.062  0.00  0.00     0.171 C 
HETATM    2  N   UNL     1       8.734  15.184  21.659  0.00  0.00    -0.151 NA
HETATM    3  N   UNL     1       9.546  14.490  20.814  0.00  0.00    -0.226 N 
HETATM    4  H   UNL     1      10.230  14.948  20.226  0.00  0.00     0.194 HD
HETATM    5  C   UNL     1       9.101  13.185  20.665  0.00  0.00     0.349 C 
HETATM    6  O   UNL     1       9.532  12.384  19.847  0.00  0.00    -0.245 OA
HETATM    7  N   UNL     1       8.065  13.051  21.563  0.00  0.00    -0.244 N 
ENDROOT
BRANCH   1   8
HETATM    8  C   UNL     1       6.713  14.685  22.974  0.00  0.00     0.045 A 
HETATM    9  C   UNL     1       6.965  15.189  24.263  0.00  0.00     0.082 A 
HETATM   10  C   UNL     1       5.926  15.621  25.101  0.00  0.00     0.074 A 
HETATM   11  C   UNL     1       4.616  15.552  24.649  0.00  0.00     0.068 A 
HETATM   12  C   UNL     1       4.329  14.996  23.413  0.00  0.00     0.037 A 
HETATM   13  C   UNL     1       5.370  14.544  22.591  0.00  0.00     0.021 A 
BRANCH   9  14
HETATM   14  O   UNL     1       8.243  15.303  24.743  0.00  0.00    -0.360 OA
HETATM   15  H   UNL     1       8.796  15.780  24.104  0.00  0.00     0.217 HD
ENDBRANCH   9  14
BRANCH  11  16
HETATM   16  O   UNL     1       3.580  16.029  25.392  0.00  0.00    -0.361 OA
HETATM   17  H   UNL     1       3.877  16.153  26.309  0.00  0.00     0.217 HD
ENDBRANCH  11  16
ENDBRANCH   1   8
BRANCH   7  18
HETATM   18  C   UNL     1       7.258  11.906  21.613  0.00  0.00     0.052 C 
HETATM   19  C   UNL     1       7.388  10.986  22.675  0.00  0.00    -0.031 C 
HETATM   20  C   UNL     1       6.403   9.995  22.822  0.00  0.00     0.009 C 
HETATM   21  C   UNL     1       5.385   9.850  21.877  0.00  0.00     0.001 C 
HETATM   22  C   UNL     1       5.343  10.686  20.764  0.00  0.00     0.002 C 
HETATM   23  C   UNL     1       6.263  11.726  20.641  0.00  0.00     0.031 C 
BRANCH  19  24
HETATM   24  C   UNL     1       8.534  11.014  23.661  0.00  0.00     0.036 C 
HETATM   25  C   UNL     1       8.262  11.815  24.923  0.00  0.00     0.010 C 
ENDBRANCH  19  24
ENDBRANCH   7  18
TORSDOF 5
ENDMDL
MODEL 9
REMARK VINA RESULT:    -6.176      2.335      3.677
REMARK INTER + INTRA:          -8.783
REMARK INTER:                  -7.620
REMARK INTRA:                  -1.163
REMARK UNBOUND:                -1.163
REMARK  5 active torsions:
REMARK  status: ('A' for Active; 'I' for Inactive)
REMARK    1  A    between atoms: O_1  and  C_2 
REMARK    2  A    between atoms: C_4  and  O_5 
REMARK    3  A    between atoms: C_6  and  C_9 
REMARK    4  A    between atoms: N_15  and  C_16 
REMARK    5  A    between atoms: C_17  and  C_18 
ROOT
HETATM    1  C   UNL     1       6.192  11.729  23.234  0.00  0.00     0.171 C 
HETATM    2  N   UNL     1       6.087  10.493  23.645  0.00  0.00    -0.151 NA
HETATM    3  N   UNL     1       7.369  10.036  23.715  0.00  0.00    -0.226 N 
HETATM    4  H   UNL     1       7.604   9.158  24.158  0.00  0.00     0.194 HD
HETATM    5  C   UNL     1       8.267  11.040  23.388  0.00  0.00     0.349 C 
HETATM    6  O   UNL     1       9.481  10.969  23.523  0.00  0.00    -0.245 OA
HETATM    7  N   UNL     1       7.492  12.100  22.971  0.00  0.00    -0.244 N 
ENDROOT
BRANCH   1   8
HETATM    8  C   UNL     1       5.002  12.628  23.074  0.00  0.00     0.045 A 
HETATM    9  C   UNL     1       3.956  12.287  22.196  0.00  0.00     0.082 A 
HETATM   10  C   UNL     1       2.796  13.069  22.094  0.00  0.00     0.074 A 
HETATM   11  C   UNL     1       2.672  14.206  22.878  0.00  0.00     0.068 A 
HETATM   12  C   UNL     1       3.712  14.608  23.701  0.00  0.00     0.037 A 
HETATM   13  C   UNL     1       4.878  13.836  23.780  0.00  0.00     0.021 A 
BRANCH   9  14
HETATM   14  O   UNL     1       4.020  11.158  21.422  0.00  0.00    -0.360 OA
HETATM   15  H   UNL     1       3.132  10.785  21.307  0.00  0.00     0.217 HD
ENDBRANCH   9  14
BRANCH  11  16
HETATM   16  O   UNL     1       1.535  14.955  22.873  0.00  0.00    -0.361 OA
HETATM   17  H   UNL     1       1.708  15.793  22.412  0.00  0.00     0.217 HD
ENDBRANCH  11  16
ENDBRANCH   1   8
BRANCH   7  18
HETATM   18  C   UNL     1       8.033  13.361  22.687  0.00  0.00     0.052 C 
HETATM   19  C   UNL     1       8.519  14.179  23.728  0.00  0.00    -0.031 C 
HETATM   20  C   UNL     1       9.273  15.315  23.386  0.00  0.00     0.009 C 
HETATM   21  C   UNL     1       9.439  15.689  22.051  0.00  0.00     0.001 C 
HETATM   22  C   UNL     1       8.846  14.941  21.037  0.00  0.00     0.002 C 
HETATM   23  C   UNL     1       8.162  13.767  21.351  0.00  0.00     0.031 C 
BRANCH  19  24
HETATM   24  C   UNL     1       8.269  13.896  25.192  0.00  0.00     0.036 C 
HETATM   25  C   UNL     1       7.597  15.030  25.949  0.00  0.00     0.010 C 
ENDBRANCH  19  24
ENDBRANCH   7  18
TORSDOF 5
ENDMDL
