REMARK  5 active torsions:
REMARK  status: ('A' for Active; 'I' for Inactive)
REMARK    1  A    between atoms: O_1  and  C_2 
REMARK    2  A    between atoms: C_4  and  O_5 
REMARK    3  A    between atoms: C_6  and  C_9 
REMARK    4  A    between atoms: N_15  and  C_16 
REMARK    5  A    between atoms: C_17  and  C_18 
ROOT
HETATM    1  C   UNL     1       6.726   0.177  -0.462  0.00  0.00     0.171 C 
HETATM    2  N   UNL     1       7.452   1.263  -0.489  0.00  0.00    -0.151 NA
HETATM    3  N   UNL     1       8.695   0.846  -0.861  0.00  0.00    -0.226 N 
HETATM    4  H   UNL     1       9.426   1.495  -1.120  0.00  0.00     0.194 HD
HETATM    5  C   UNL     1       8.700  -0.517  -1.115  0.00  0.00     0.349 C 
HETATM    6  O   UNL     1       9.627  -1.135  -1.621  0.00  0.00    -0.245 OA
HETATM    7  N   UNL     1       7.449  -0.960  -0.746  0.00  0.00    -0.244 N 
ENDROOT
BRANCH   1   8
HETATM    8  C   UNL     1       5.259   0.197  -0.150  0.00  0.00     0.045 A 
HETATM    9  C   UNL     1       4.494   1.358  -0.368  0.00  0.00     0.082 A 
HETATM   10  C   UNL     1       3.106   1.374  -0.164  0.00  0.00     0.074 A 
HETATM   11  C   UNL     1       2.469   0.218   0.262  0.00  0.00     0.068 A 
HETATM   12  C   UNL     1       3.202  -0.921   0.552  0.00  0.00     0.037 A 
HETATM   13  C   UNL     1       4.591  -0.923   0.370  0.00  0.00     0.021 A 
BRANCH   9  14
HETATM   14  O   UNL     1       5.074   2.516  -0.815  0.00  0.00    -0.360 OA
HETATM   15  H   UNL     1       4.517   3.276  -0.583  0.00  0.00     0.217 HD
ENDBRANCH   9  14
BRANCH  11  16
HETATM   16  O   UNL     1       1.115   0.160   0.400  0.00  0.00    -0.361 OA
HETATM   17  H   UNL     1       0.723   0.969   0.031  0.00  0.00     0.217 HD
ENDBRANCH  11  16
ENDBRANCH   1   8
BRANCH   7  18
HETATM   18  C   UNL     1       7.015  -2.271  -0.986  0.00  0.00     0.052 C 
HETATM   19  C   UNL     1       7.305  -3.299  -0.065  0.00  0.00    -0.031 C 
HETATM   20  C   UNL     1       6.647  -4.532  -0.214  0.00  0.00     0.009 C 
HETATM   21  C   UNL     1       5.816  -4.773  -1.309  0.00  0.00     0.001 C 
HETATM   22  C   UNL     1       5.638  -3.790  -2.280  0.00  0.00     0.002 C 
HETATM   23  C   UNL     1       6.218  -2.534  -2.110  0.00  0.00     0.031 C 
BRANCH  19  24
HETATM   24  C   UNL     1       8.289  -3.141   1.072  0.00  0.00     0.036 C 
HETATM   25  C   UNL     1       7.702  -2.536   2.336  0.00  0.00     0.010 C 
ENDBRANCH  19  24
ENDBRANCH   7  18
TORSDOF 5
