MODEL 1
REMARK VINA RESULT:    -9.586      0.000      0.000
REMARK INTER + INTRA:         -14.327
REMARK INTER:                 -13.458
REMARK INTRA:                  -0.869
REMARK UNBOUND:                -1.099
REMARK  7 active torsions:
REMARK  status: ('A' for Active; 'I' for Inactive)
REMARK    1  A    between atoms: N_6  and  C_8 
REMARK    2  A    between atoms: C_8  and  C_9 
REMARK    3  A    between atoms: C_14  and  N_15 
REMARK       I    between atoms: N_15  and  C_17 
REMARK    4  A    between atoms: C_17  and  C_19 
REMARK    5  A    between atoms: C_20  and  O_22 
REMARK    6  A    between atoms: C_26  and  C_30 
REMARK    7  A    between atoms: C_30  and  C_31 
ROOT
HETATM    1  C   UNL     1       9.378  14.885  21.411  0.00  0.00     0.066 A 
HETATM    2  C   UNL     1      10.291  15.935  21.251  0.00  0.00     0.083 A 
HETATM    3  C   UNL     1      11.614  15.704  20.852  0.00  0.00     0.069 A 
HETATM    4  C   UNL     1       9.825  13.550  21.278  0.00  0.00     0.035 A 
HETATM    5  C   UNL     1      11.159  13.294  20.890  0.00  0.00     0.020 A 
HETATM    6  C   UNL     1      12.008  14.375  20.684  0.00  0.00     0.065 A 
HETATM    7  C   UNL     1      11.961  12.144  20.615  0.00  0.00     0.071 A 
HETATM    8  N   UNL     1      13.222  12.488  20.307  0.00  0.00    -0.178 NA
HETATM    9  N   UNL     1      13.213  13.829  20.332  0.00  0.00    -0.277 N 
HETATM   10  H   UNL     1      14.073  14.317  20.110  0.00  0.00     0.189 HD
ENDROOT
BRANCH   1  11
HETATM   11  C   UNL     1       7.947  15.076  21.797  0.00  0.00     0.260 C 
HETATM   12  N   UNL     1       7.357  14.284  22.808  0.00  0.00    -0.318 N 
HETATM   13  C   UNL     1       8.079  13.423  23.750  0.00  0.00     0.159 C 
HETATM   14  O   UNL     1       7.315  15.918  21.154  0.00  0.00    -0.267 OA
BRANCH  12  15
HETATM   15  C   UNL     1       5.986  14.501  23.123  0.00  0.00     0.037 C 
HETATM   16  C   UNL     1       5.060  13.466  22.997  0.00  0.00     0.030 C 
HETATM   17  C   UNL     1       3.745  13.633  23.430  0.00  0.00     0.011 C 
HETATM   18  C   UNL     1       3.355  14.821  24.067  0.00  0.00    -0.032 C 
HETATM   19  C   UNL     1       4.256  15.895  24.098  0.00  0.00     0.011 C 
HETATM   20  C   UNL     1       5.559  15.746  23.604  0.00  0.00     0.030 C 
BRANCH  18  21
HETATM   21  C   UNL     1       2.055  14.866  24.828  0.00  0.00     0.273 C 
BRANCH  21  22
HETATM   22  N   UNL     1       1.156  13.677  24.512  0.00  0.00    -0.063 N 
HETATM   23  C   UNL     1       0.137  13.440  25.619  0.00  0.00     0.261 C 
HETATM   24  C   UNL     1      -0.788  12.274  25.254  0.00  0.00     0.195 C 
HETATM   25  O   UNL     1      -1.442  12.515  24.005  0.00  0.00    -0.388 OA
HETATM   26  C   UNL     1      -0.497  12.615  22.937  0.00  0.00     0.195 C 
HETATM   27  C   UNL     1       0.454  13.794  23.155  0.00  0.00     0.261 C 
HETATM   28  H   UNL     1       1.769  12.854  24.455  0.00  0.00     0.280 HD
ENDBRANCH  21  22
ENDBRANCH  18  21
ENDBRANCH  12  15
ENDBRANCH   1  11
BRANCH   2  29
HETATM   29  O   UNL     1       9.995  17.248  21.508  0.00  0.00    -0.360 OA
HETATM   30  H   UNL     1       9.961  17.732  20.666  0.00  0.00     0.217 HD
ENDBRANCH   2  29
BRANCH   7  31
HETATM   31  C   UNL     1      11.581  10.695  20.664  0.00  0.00     0.100 C 
BRANCH  31  32
HETATM   32  C   UNL     1      10.930  10.434  22.007  0.00  0.00    -0.052 A 
HETATM   33  C   UNL     1      11.632  10.626  23.208  0.00  0.00     0.007 A 
HETATM   34  C   UNL     1      11.017  10.403  24.440  0.00  0.00     0.001 A 
HETATM   35  C   UNL     1       9.683  10.011  24.494  0.00  0.00     0.007 A 
HETATM   36  C   UNL     1       8.947   9.846  23.314  0.00  0.00    -0.061 A 
HETATM   37  C   UNL     1       9.574  10.070  22.078  0.00  0.00     0.014 A 
HETATM   38  C   UNL     1       7.485   9.519  23.385  0.00  0.00     0.048 C 
ENDBRANCH  31  32
ENDBRANCH   7  31
TORSDOF 7
ENDMDL
MODEL 2
REMARK VINA RESULT:    -9.474      2.605      3.664
REMARK INTER + INTRA:         -14.173
REMARK INTER:                 -12.661
REMARK INTRA:                  -1.511
REMARK UNBOUND:                -1.099
REMARK  7 active torsions:
REMARK  status: ('A' for Active; 'I' for Inactive)
REMARK    1  A    between atoms: N_6  and  C_8 
REMARK    2  A    between atoms: C_8  and  C_9 
REMARK    3  A    between atoms: C_14  and  N_15 
REMARK       I    between atoms: N_15  and  C_17 
REMARK    4  A    between atoms: C_17  and  C_19 
REMARK    5  A    between atoms: C_20  and  O_22 
REMARK    6  A    between atoms: C_26  and  C_30 
REMARK    7  A    between atoms: C_30  and  C_31 
ROOT
HETATM    1  C   UNL     1       9.319  13.956  25.568  0.00  0.00     0.066 A 
HETATM    2  C   UNL     1       9.932  14.607  26.646  0.00  0.00     0.083 A 
HETATM    3  C   UNL     1      11.209  14.245  27.094  0.00  0.00     0.069 A 
HETATM    4  C   UNL     1       9.951  12.831  24.988  0.00  0.00     0.035 A 
HETATM    5  C   UNL     1      11.233  12.440  25.434  0.00  0.00     0.020 A 
HETATM    6  C   UNL     1      11.823  13.160  26.466  0.00  0.00     0.065 A 
HETATM    7  C   UNL     1      12.190  11.434  25.099  0.00  0.00     0.071 A 
HETATM    8  N   UNL     1      13.270  11.501  25.895  0.00  0.00    -0.178 NA
HETATM    9  N   UNL     1      13.033  12.557  26.685  0.00  0.00    -0.277 N 
HETATM   10  H   UNL     1      13.736  12.811  27.369  0.00  0.00     0.189 HD
ENDROOT
BRANCH   1  11
HETATM   11  C   UNL     1       7.978  14.324  25.023  0.00  0.00     0.260 C 
HETATM   12  N   UNL     1       6.800  13.737  25.538  0.00  0.00    -0.318 N 
HETATM   13  C   UNL     1       6.705  12.955  26.776  0.00  0.00     0.159 C 
HETATM   14  O   UNL     1       7.970  15.121  24.082  0.00  0.00    -0.267 OA
BRANCH  12  15
HETATM   15  C   UNL     1       5.551  14.116  24.971  0.00  0.00     0.037 C 
HETATM   16  C   UNL     1       5.023  13.410  23.890  0.00  0.00     0.030 C 
HETATM   17  C   UNL     1       3.742  13.692  23.416  0.00  0.00     0.011 C 
HETATM   18  C   UNL     1       2.938  14.639  24.069  0.00  0.00    -0.032 C 
HETATM   19  C   UNL     1       3.507  15.419  25.086  0.00  0.00     0.011 C 
HETATM   20  C   UNL     1       4.818  15.177  25.519  0.00  0.00     0.030 C 
BRANCH  18  21
HETATM   21  C   UNL     1       1.461  14.692  23.775  0.00  0.00     0.273 C 
BRANCH  21  22
HETATM   22  N   UNL     1       0.749  13.397  24.147  0.00  0.00    -0.063 N 
HETATM   23  C   UNL     1      -0.020  13.541  25.454  0.00  0.00     0.261 C 
HETATM   24  C   UNL     1      -0.770  12.244  25.779  0.00  0.00     0.195 C 
HETATM   25  O   UNL     1      -1.649  11.884  24.711  0.00  0.00    -0.388 OA
HETATM   26  C   UNL     1      -0.923  11.625  23.508  0.00  0.00     0.195 C 
HETATM   27  C   UNL     1      -0.173  12.875  23.040  0.00  0.00     0.261 C 
HETATM   28  H   UNL     1       1.481  12.689  24.278  0.00  0.00     0.280 HD
ENDBRANCH  21  22
ENDBRANCH  18  21
ENDBRANCH  12  15
ENDBRANCH   1  11
BRANCH   2  29
HETATM   29  O   UNL     1       9.335  15.604  27.372  0.00  0.00    -0.360 OA
HETATM   30  H   UNL     1       9.972  16.327  27.496  0.00  0.00     0.217 HD
ENDBRANCH   2  29
BRANCH   7  31
HETATM   31  C   UNL     1      12.110  10.367  24.050  0.00  0.00     0.100 C 
BRANCH  31  32
HETATM   32  C   UNL     1      12.257  11.037  22.698  0.00  0.00    -0.052 A 
HETATM   33  C   UNL     1      13.518  11.384  22.189  0.00  0.00     0.007 A 
HETATM   34  C   UNL     1      13.644  11.983  20.935  0.00  0.00     0.001 A 
HETATM   35  C   UNL     1      12.513  12.219  20.158  0.00  0.00     0.007 A 
HETATM   36  C   UNL     1      11.246  11.851  20.624  0.00  0.00    -0.061 A 
HETATM   37  C   UNL     1      11.128  11.252  21.888  0.00  0.00     0.014 A 
HETATM   38  C   UNL     1      10.046  12.021  19.740  0.00  0.00     0.048 C 
ENDBRANCH  31  32
ENDBRANCH   7  31
TORSDOF 7
ENDMDL
MODEL 3
REMARK VINA RESULT:    -9.468      2.545      3.620
REMARK INTER + INTRA:         -14.165
REMARK INTER:                 -12.865
REMARK INTRA:                  -1.300
REMARK UNBOUND:                -1.099
REMARK  7 active torsions:
REMARK  status: ('A' for Active; 'I' for Inactive)
REMARK    1  A    between atoms: N_6  and  C_8 
REMARK    2  A    between atoms: C_8  and  C_9 
REMARK    3  A    between atoms: C_14  and  N_15 
REMARK       I    between atoms: N_15  and  C_17 
REMARK    4  A    between atoms: C_17  and  C_19 
REMARK    5  A    between atoms: C_20  and  O_22 
REMARK    6  A    between atoms: C_26  and  C_30 
REMARK    7  A    between atoms: C_30  and  C_31 
ROOT
HETATM    1  C   UNL     1       8.909  13.752  25.771  0.00  0.00     0.066 A 
HETATM    2  C   UNL     1       9.594  14.554  26.693  0.00  0.00     0.083 A 
HETATM    3  C   UNL     1      10.961  14.379  26.944  0.00  0.00     0.069 A 
HETATM    4  C   UNL     1       9.580  12.666  25.162  0.00  0.00     0.035 A 
HETATM    5  C   UNL     1      10.955  12.463  25.413  0.00  0.00     0.020 A 
HETATM    6  C   UNL     1      11.603  13.326  26.289  0.00  0.00     0.065 A 
HETATM    7  C   UNL     1      11.968  11.552  24.984  0.00  0.00     0.071 A 
HETATM    8  N   UNL     1      13.142  11.805  25.586  0.00  0.00    -0.178 NA
HETATM    9  N   UNL     1      12.898  12.887  26.340  0.00  0.00    -0.277 N 
HETATM   10  H   UNL     1      13.662  13.273  26.883  0.00  0.00     0.189 HD
ENDROOT
BRANCH   1  11
HETATM   11  C   UNL     1       7.462  13.918  25.434  0.00  0.00     0.260 C 
HETATM   12  N   UNL     1       7.060  14.291  24.131  0.00  0.00    -0.318 N 
HETATM   13  C   UNL     1       7.915  14.293  22.939  0.00  0.00     0.159 C 
HETATM   14  O   UNL     1       6.664  13.759  26.360  0.00  0.00    -0.267 OA
BRANCH  12  15
HETATM   15  C   UNL     1       5.669  14.447  23.872  0.00  0.00     0.037 C 
HETATM   16  C   UNL     1       4.870  13.334  23.609  0.00  0.00     0.030 C 
HETATM   17  C   UNL     1       3.488  13.466  23.486  0.00  0.00     0.011 C 
HETATM   18  C   UNL     1       2.873  14.709  23.701  0.00  0.00    -0.032 C 
HETATM   19  C   UNL     1       3.684  15.842  23.861  0.00  0.00     0.011 C 
HETATM   20  C   UNL     1       5.078  15.717  23.920  0.00  0.00     0.030 C 
BRANCH  18  21
HETATM   21  C   UNL     1       1.382  14.778  23.905  0.00  0.00     0.273 C 
BRANCH  21  22
HETATM   22  N   UNL     1       0.775  13.414  24.214  0.00  0.00    -0.063 N 
HETATM   23  C   UNL     1      -0.003  13.435  25.524  0.00  0.00     0.261 C 
HETATM   24  C   UNL     1      -0.646  12.068  25.784  0.00  0.00     0.195 C 
HETATM   25  O   UNL     1      -1.494  11.689  24.697  0.00  0.00    -0.388 OA
HETATM   26  C   UNL     1      -0.748  11.546  23.486  0.00  0.00     0.195 C 
HETATM   27  C   UNL     1      -0.101  12.872  23.080  0.00  0.00     0.261 C 
HETATM   28  H   UNL     1       1.562  12.761  24.315  0.00  0.00     0.280 HD
ENDBRANCH  21  22
ENDBRANCH  18  21
ENDBRANCH  12  15
ENDBRANCH   1  11
BRANCH   2  29
HETATM   29  O   UNL     1       8.996  15.528  27.447  0.00  0.00    -0.360 OA
HETATM   30  H   UNL     1       9.524  16.342  27.384  0.00  0.00     0.217 HD
ENDBRANCH   2  29
BRANCH   7  31
HETATM   31  C   UNL     1      11.861  10.403  24.028  0.00  0.00     0.100 C 
BRANCH  31  32
HETATM   32  C   UNL     1      12.033  10.953  22.626  0.00  0.00    -0.052 A 
HETATM   33  C   UNL     1      13.299  11.028  22.022  0.00  0.00     0.007 A 
HETATM   34  C   UNL     1      13.444  11.517  20.723  0.00  0.00     0.001 A 
HETATM   35  C   UNL     1      12.324  11.913  19.998  0.00  0.00     0.007 A 
HETATM   36  C   UNL     1      11.046  11.816  20.560  0.00  0.00    -0.061 A 
HETATM   37  C   UNL     1      10.909  11.325  21.869  0.00  0.00     0.014 A 
HETATM   38  C   UNL     1       9.839  12.153  19.737  0.00  0.00     0.048 C 
ENDBRANCH  31  32
ENDBRANCH   7  31
TORSDOF 7
ENDMDL
MODEL 4
REMARK VINA RESULT:    -9.380      2.751      4.733
REMARK INTER + INTRA:         -14.044
REMARK INTER:                 -12.562
REMARK INTRA:                  -1.482
REMARK UNBOUND:                -1.099
REMARK  7 active torsions:
REMARK  status: ('A' for Active; 'I' for Inactive)
REMARK    1  A    between atoms: N_6  and  C_8 
REMARK    2  A    between atoms: C_8  and  C_9 
REMARK    3  A    between atoms: C_14  and  N_15 
REMARK       I    between atoms: N_15  and  C_17 
REMARK    4  A    between atoms: C_17  and  C_19 
REMARK    5  A    between atoms: C_20  and  O_22 
REMARK    6  A    between atoms: C_26  and  C_30 
REMARK    7  A    between atoms: C_30  and  C_31 
ROOT
HETATM    1  C   UNL     1       7.738  11.501  24.717  0.00  0.00     0.066 A 
HETATM    2  C   UNL     1       8.107  10.158  24.566  0.00  0.00     0.083 A 
HETATM    3  C   UNL     1       9.435   9.740  24.720  0.00  0.00     0.069 A 
HETATM    4  C   UNL     1       8.741  12.478  24.917  0.00  0.00     0.035 A 
HETATM    5  C   UNL     1      10.089  12.079  25.061  0.00  0.00     0.020 A 
HETATM    6  C   UNL     1      10.393  10.726  24.964  0.00  0.00     0.065 A 
HETATM    7  C   UNL     1      11.343  12.717  25.307  0.00  0.00     0.071 A 
HETATM    8  N   UNL     1      12.351  11.829  25.315  0.00  0.00    -0.178 NA
HETATM    9  N   UNL     1      11.749  10.645  25.133  0.00  0.00    -0.277 N 
HETATM   10  H   UNL     1      12.326   9.812  25.120  0.00  0.00     0.189 HD
ENDROOT
BRANCH   1  11
HETATM   11  C   UNL     1       6.334  11.999  24.603  0.00  0.00     0.260 C 
HETATM   12  N   UNL     1       5.870  12.591  23.407  0.00  0.00    -0.318 N 
HETATM   13  C   UNL     1       6.555  12.551  22.111  0.00  0.00     0.159 C 
HETATM   14  O   UNL     1       5.637  11.904  25.616  0.00  0.00    -0.267 OA
BRANCH  12  15
HETATM   15  C   UNL     1       4.526  13.059  23.361  0.00  0.00     0.037 C 
HETATM   16  C   UNL     1       3.490  12.194  23.009  0.00  0.00     0.030 C 
HETATM   17  C   UNL     1       2.161  12.609  23.090  0.00  0.00     0.011 C 
HETATM   18  C   UNL     1       1.846  13.878  23.600  0.00  0.00    -0.032 C 
HETATM   19  C   UNL     1       2.889  14.780  23.853  0.00  0.00     0.011 C 
HETATM   20  C   UNL     1       4.225  14.381  23.709  0.00  0.00     0.030 C 
BRANCH  18  21
HETATM   21  C   UNL     1       0.427  14.188  24.003  0.00  0.00     0.273 C 
BRANCH  21  22
HETATM   22  N   UNL     1      -0.394  12.927  24.249  0.00  0.00    -0.063 N 
HETATM   23  C   UNL     1      -0.713  12.750  25.728  0.00  0.00     0.261 C 
HETATM   24  C   UNL     1      -1.583  11.507  25.942  0.00  0.00     0.195 C 
HETATM   25  O   UNL     1      -2.784  11.587  25.171  0.00  0.00    -0.388 OA
HETATM   26  C   UNL     1      -2.498  11.628  23.771  0.00  0.00     0.195 C 
HETATM   27  C   UNL     1      -1.678  12.871  23.415  0.00  0.00     0.261 C 
HETATM   28  H   UNL     1       0.187  12.136  23.946  0.00  0.00     0.280 HD
ENDBRANCH  21  22
ENDBRANCH  18  21
ENDBRANCH  12  15
ENDBRANCH   1  11
BRANCH   2  29
HETATM   29  O   UNL     1       7.233   9.163  24.218  0.00  0.00    -0.360 OA
HETATM   30  H   UNL     1       6.764   8.864  25.016  0.00  0.00     0.217 HD
ENDBRANCH   2  29
BRANCH   7  31
HETATM   31  C   UNL     1      11.638  14.173  25.508  0.00  0.00     0.100 C 
BRANCH  31  32
HETATM   32  C   UNL     1      11.320  14.891  24.211  0.00  0.00    -0.052 A 
HETATM   33  C   UNL     1      10.513  16.039  24.192  0.00  0.00     0.007 A 
HETATM   34  C   UNL     1      10.243  16.704  22.996  0.00  0.00     0.001 A 
HETATM   35  C   UNL     1      10.797  16.248  21.803  0.00  0.00     0.007 A 
HETATM   36  C   UNL     1      11.634  15.127  21.796  0.00  0.00    -0.061 A 
HETATM   37  C   UNL     1      11.899  14.461  23.004  0.00  0.00     0.014 A 
HETATM   38  C   UNL     1      12.304  14.701  20.523  0.00  0.00     0.048 C 
ENDBRANCH  31  32
ENDBRANCH   7  31
TORSDOF 7
ENDMDL
MODEL 5
REMARK VINA RESULT:    -9.298      2.265      3.236
REMARK INTER + INTRA:         -13.930
REMARK INTER:                 -12.706
REMARK INTRA:                  -1.225
REMARK UNBOUND:                -1.099
REMARK  7 active torsions:
REMARK  status: ('A' for Active; 'I' for Inactive)
REMARK    1  A    between atoms: N_6  and  C_8 
REMARK    2  A    between atoms: C_8  and  C_9 
REMARK    3  A    between atoms: C_14  and  N_15 
REMARK       I    between atoms: N_15  and  C_17 
REMARK    4  A    between atoms: C_17  and  C_19 
REMARK    5  A    between atoms: C_20  and  O_22 
REMARK    6  A    between atoms: C_26  and  C_30 
REMARK    7  A    between atoms: C_30  and  C_31 
ROOT
HETATM    1  C   UNL     1       9.246  13.017  21.675  0.00  0.00     0.066 A 
HETATM    2  C   UNL     1       9.146  12.372  20.436  0.00  0.00     0.083 A 
HETATM    3  C   UNL     1      10.283  11.989  19.713  0.00  0.00     0.069 A 
HETATM    4  C   UNL     1      10.520  13.396  22.159  0.00  0.00     0.035 A 
HETATM    5  C   UNL     1      11.679  13.032  21.439  0.00  0.00     0.020 A 
HETATM    6  C   UNL     1      11.526  12.337  20.245  0.00  0.00     0.065 A 
HETATM    7  C   UNL     1      13.092  13.176  21.597  0.00  0.00     0.071 A 
HETATM    8  N   UNL     1      13.758  12.649  20.556  0.00  0.00    -0.178 NA
HETATM    9  N   UNL     1      12.797  12.133  19.777  0.00  0.00    -0.277 N 
HETATM   10  H   UNL     1      13.074  11.661  18.924  0.00  0.00     0.189 HD
ENDROOT
BRANCH   1  11
HETATM   11  C   UNL     1       8.070  13.414  22.508  0.00  0.00     0.260 C 
HETATM   12  N   UNL     1       7.884  14.756  22.907  0.00  0.00    -0.318 N 
HETATM   13  C   UNL     1       8.605  15.916  22.370  0.00  0.00     0.159 C 
HETATM   14  O   UNL     1       7.315  12.503  22.856  0.00  0.00    -0.267 OA
BRANCH  12  15
HETATM   15  C   UNL     1       6.753  15.073  23.710  0.00  0.00     0.037 C 
HETATM   16  C   UNL     1       5.598  15.598  23.128  0.00  0.00     0.030 C 
HETATM   17  C   UNL     1       4.444  15.785  23.887  0.00  0.00     0.011 C 
HETATM   18  C   UNL     1       4.405  15.376  25.229  0.00  0.00    -0.032 C 
HETATM   19  C   UNL     1       5.593  14.948  25.838  0.00  0.00     0.011 C 
HETATM   20  C   UNL     1       6.770  14.821  25.088  0.00  0.00     0.030 C 
BRANCH  18  21
HETATM   21  C   UNL     1       3.078  15.262  25.935  0.00  0.00     0.273 C 
BRANCH  21  22
HETATM   22  N   UNL     1       2.112  14.333  25.208  0.00  0.00    -0.063 N 
HETATM   23  C   UNL     1       2.735  12.965  24.963  0.00  0.00     0.261 C 
HETATM   24  C   UNL     1       1.727  12.034  24.279  0.00  0.00     0.195 C 
HETATM   25  O   UNL     1       0.534  11.916  25.057  0.00  0.00    -0.388 OA
HETATM   26  C   UNL     1      -0.125  13.178  25.188  0.00  0.00     0.195 C 
HETATM   27  C   UNL     1       0.763  14.187  25.919  0.00  0.00     0.261 C 
HETATM   28  H   UNL     1       1.918  14.768  24.298  0.00  0.00     0.280 HD
ENDBRANCH  21  22
ENDBRANCH  18  21
ENDBRANCH  12  15
ENDBRANCH   1  11
BRANCH   2  29
HETATM   29  O   UNL     1       7.956  12.103  19.812  0.00  0.00    -0.360 OA
HETATM   30  H   UNL     1       7.385  11.610  20.424  0.00  0.00     0.217 HD
ENDBRANCH   2  29
BRANCH   7  31
HETATM   31  C   UNL     1      13.855  13.835  22.706  0.00  0.00     0.100 C 
BRANCH  31  32
HETATM   32  C   UNL     1      13.392  13.221  24.012  0.00  0.00    -0.052 A 
HETATM   33  C   UNL     1      13.543  11.848  24.268  0.00  0.00     0.007 A 
HETATM   34  C   UNL     1      13.132  11.297  25.482  0.00  0.00     0.001 A 
HETATM   35  C   UNL     1      12.588  12.113  26.470  0.00  0.00     0.007 A 
HETATM   36  C   UNL     1      12.457  13.490  26.257  0.00  0.00    -0.061 A 
HETATM   37  C   UNL     1      12.871  14.037  25.032  0.00  0.00     0.014 A 
HETATM   38  C   UNL     1      11.960  14.374  27.363  0.00  0.00     0.048 C 
ENDBRANCH  31  32
ENDBRANCH   7  31
TORSDOF 7
ENDMDL
MODEL 6
REMARK VINA RESULT:    -9.278      1.346      2.041
REMARK INTER + INTRA:         -13.902
REMARK INTER:                 -13.043
REMARK INTRA:                  -0.860
REMARK UNBOUND:                -1.099
REMARK  7 active torsions:
REMARK  status: ('A' for Active; 'I' for Inactive)
REMARK    1  A    between atoms: N_6  and  C_8 
REMARK    2  A    between atoms: C_8  and  C_9 
REMARK    3  A    between atoms: C_14  and  N_15 
REMARK       I    between atoms: N_15  and  C_17 
REMARK    4  A    between atoms: C_17  and  C_19 
REMARK    5  A    between atoms: C_20  and  O_22 
REMARK    6  A    between atoms: C_26  and  C_30 
REMARK    7  A    between atoms: C_30  and  C_31 
ROOT
HETATM    1  C   UNL     1       9.720  14.684  22.450  0.00  0.00     0.066 A 
HETATM    2  C   UNL     1      10.251  15.632  21.566  0.00  0.00     0.083 A 
HETATM    3  C   UNL     1      11.375  15.353  20.778  0.00  0.00     0.069 A 
HETATM    4  C   UNL     1      10.397  13.456  22.640  0.00  0.00     0.035 A 
HETATM    5  C   UNL     1      11.541  13.161  21.865  0.00  0.00     0.020 A 
HETATM    6  C   UNL     1      11.990  14.112  20.957  0.00  0.00     0.065 A 
HETATM    7  C   UNL     1      12.449  12.067  21.724  0.00  0.00     0.071 A 
HETATM    8  N   UNL     1      13.412  12.341  20.830  0.00  0.00    -0.178 NA
HETATM    9  N   UNL     1      13.097  13.561  20.370  0.00  0.00    -0.277 N 
HETATM   10  H   UNL     1      13.690  13.972  19.658  0.00  0.00     0.189 HD
ENDROOT
BRANCH   1  11
HETATM   11  C   UNL     1       8.502  14.911  23.286  0.00  0.00     0.260 C 
HETATM   12  N   UNL     1       7.241  14.427  22.874  0.00  0.00    -0.318 N 
HETATM   13  C   UNL     1       7.005  13.462  21.795  0.00  0.00     0.159 C 
HETATM   14  O   UNL     1       8.660  15.577  24.311  0.00  0.00    -0.267 OA
BRANCH  12  15
HETATM   15  C   UNL     1       6.113  14.686  23.704  0.00  0.00     0.037 C 
HETATM   16  C   UNL     1       5.298  15.792  23.463  0.00  0.00     0.030 C 
HETATM   17  C   UNL     1       4.121  15.977  24.187  0.00  0.00     0.011 C 
HETATM   18  C   UNL     1       3.702  15.012  25.115  0.00  0.00    -0.032 C 
HETATM   19  C   UNL     1       4.571  13.958  25.430  0.00  0.00     0.011 C 
HETATM   20  C   UNL     1       5.785  13.809  24.746  0.00  0.00     0.030 C 
BRANCH  18  21
HETATM   21  C   UNL     1       2.287  15.042  25.633  0.00  0.00     0.273 C 
BRANCH  21  22
HETATM   22  N   UNL     1       1.436  13.914  25.060  0.00  0.00    -0.063 N 
HETATM   23  C   UNL     1       0.179  13.688  25.890  0.00  0.00     0.261 C 
HETATM   24  C   UNL     1      -0.685  12.588  25.264  0.00  0.00     0.195 C 
HETATM   25  O   UNL     1      -1.021  12.912  23.913  0.00  0.00    -0.388 OA
HETATM   26  C   UNL     1       0.148  13.004  23.096  0.00  0.00     0.195 C 
HETATM   27  C   UNL     1       1.072  14.122  23.586  0.00  0.00     0.261 C 
HETATM   28  H   UNL     1       2.010  13.064  25.103  0.00  0.00     0.280 HD
ENDBRANCH  21  22
ENDBRANCH  18  21
ENDBRANCH  12  15
ENDBRANCH   1  11
BRANCH   2  29
HETATM   29  O   UNL     1       9.759  16.903  21.428  0.00  0.00    -0.360 OA
HETATM   30  H   UNL     1      10.407  17.531  21.789  0.00  0.00     0.217 HD
ENDBRANCH   2  29
BRANCH   7  31
HETATM   31  C   UNL     1      12.460  10.751  22.442  0.00  0.00     0.100 C 
BRANCH  31  32
HETATM   32  C   UNL     1      11.624  10.904  23.697  0.00  0.00    -0.052 A 
HETATM   33  C   UNL     1      10.348  10.328  23.799  0.00  0.00     0.007 A 
HETATM   34  C   UNL     1       9.595  10.458  24.967  0.00  0.00     0.001 A 
HETATM   35  C   UNL     1      10.117  11.142  26.061  0.00  0.00     0.007 A 
HETATM   36  C   UNL     1      11.400  11.696  26.002  0.00  0.00    -0.061 A 
HETATM   37  C   UNL     1      12.151  11.564  24.822  0.00  0.00     0.014 A 
HETATM   38  C   UNL     1      11.991  12.347  27.217  0.00  0.00     0.048 C 
ENDBRANCH  31  32
ENDBRANCH   7  31
TORSDOF 7
ENDMDL
MODEL 7
REMARK VINA RESULT:    -9.221      3.095      4.740
REMARK INTER + INTRA:         -13.823
REMARK INTER:                 -12.639
REMARK INTRA:                  -1.185
REMARK UNBOUND:                -1.099
REMARK  7 active torsions:
REMARK  status: ('A' for Active; 'I' for Inactive)
REMARK    1  A    between atoms: N_6  and  C_8 
REMARK    2  A    between atoms: C_8  and  C_9 
REMARK    3  A    between atoms: C_14  and  N_15 
REMARK       I    between atoms: N_15  and  C_17 
REMARK    4  A    between atoms: C_17  and  C_19 
REMARK    5  A    between atoms: C_20  and  O_22 
REMARK    6  A    between atoms: C_26  and  C_30 
REMARK    7  A    between atoms: C_30  and  C_31 
ROOT
HETATM    1  C   UNL     1       6.826  14.270  24.855  0.00  0.00     0.066 A 
HETATM    2  C   UNL     1       7.561  14.249  26.048  0.00  0.00     0.083 A 
HETATM    3  C   UNL     1       8.867  14.751  26.115  0.00  0.00     0.069 A 
HETATM    4  C   UNL     1       7.451  14.702  23.663  0.00  0.00     0.035 A 
HETATM    5  C   UNL     1       8.773  15.200  23.706  0.00  0.00     0.020 A 
HETATM    6  C   UNL     1       9.436  15.215  24.927  0.00  0.00     0.065 A 
HETATM    7  C   UNL     1       9.709  15.749  22.777  0.00  0.00     0.071 A 
HETATM    8  N   UNL     1      10.878  16.039  23.373  0.00  0.00    -0.178 NA
HETATM    9  N   UNL     1      10.675  15.732  24.662  0.00  0.00    -0.277 N 
HETATM   10  H   UNL     1      11.434  15.887  25.316  0.00  0.00     0.189 HD
ENDROOT
BRANCH   1  11
HETATM   11  C   UNL     1       5.418  13.784  24.734  0.00  0.00     0.260 C 
HETATM   12  N   UNL     1       4.361  14.685  24.474  0.00  0.00    -0.318 N 
HETATM   13  C   UNL     1       4.511  16.078  24.038  0.00  0.00     0.159 C 
HETATM   14  O   UNL     1       5.238  12.579  24.920  0.00  0.00    -0.267 OA
BRANCH  12  15
HETATM   15  C   UNL     1       3.038  14.167  24.383  0.00  0.00     0.037 C 
HETATM   16  C   UNL     1       2.652  13.408  23.277  0.00  0.00     0.030 C 
HETATM   17  C   UNL     1       1.404  12.788  23.243  0.00  0.00     0.011 C 
HETATM   18  C   UNL     1       0.549  12.857  24.354  0.00  0.00    -0.032 C 
HETATM   19  C   UNL     1       0.893  13.703  25.417  0.00  0.00     0.011 C 
HETATM   20  C   UNL     1       2.122  14.377  25.421  0.00  0.00     0.030 C 
BRANCH  18  21
HETATM   21  C   UNL     1      -0.627  11.918  24.448  0.00  0.00     0.273 C 
BRANCH  21  22
HETATM   22  N   UNL     1      -0.678  11.185  25.784  0.00  0.00    -0.063 N 
HETATM   23  C   UNL     1      -1.977  11.472  26.526  0.00  0.00     0.261 C 
HETATM   24  C   UNL     1      -2.027  10.682  27.839  0.00  0.00     0.195 C 
HETATM   25  O   UNL     1      -1.880   9.281  27.597  0.00  0.00    -0.388 OA
HETATM   26  C   UNL     1      -0.609   8.988  27.012  0.00  0.00     0.195 C 
HETATM   27  C   UNL     1      -0.459   9.675  25.652  0.00  0.00     0.261 C 
HETATM   28  H   UNL     1       0.103  11.547  26.345  0.00  0.00     0.280 HD
ENDBRANCH  21  22
ENDBRANCH  18  21
ENDBRANCH  12  15
ENDBRANCH   1  11
BRANCH   2  29
HETATM   29  O   UNL     1       7.098  13.707  27.218  0.00  0.00    -0.360 OA
HETATM   30  H   UNL     1       6.659  14.404  27.734  0.00  0.00     0.217 HD
ENDBRANCH   2  29
BRANCH   7  31
HETATM   31  C   UNL     1       9.550  15.989  21.306  0.00  0.00     0.100 C 
BRANCH  31  32
HETATM   32  C   UNL     1       9.646  14.647  20.608  0.00  0.00    -0.052 A 
HETATM   33  C   UNL     1       8.607  14.173  19.790  0.00  0.00     0.007 A 
HETATM   34  C   UNL     1       8.714  12.946  19.136  0.00  0.00     0.001 A 
HETATM   35  C   UNL     1       9.871  12.185  19.266  0.00  0.00     0.007 A 
HETATM   36  C   UNL     1      10.938  12.647  20.046  0.00  0.00    -0.061 A 
HETATM   37  C   UNL     1      10.822  13.882  20.703  0.00  0.00     0.014 A 
HETATM   38  C   UNL     1      12.218  11.866  20.101  0.00  0.00     0.048 C 
ENDBRANCH  31  32
ENDBRANCH   7  31
TORSDOF 7
ENDMDL
MODEL 8
REMARK VINA RESULT:    -9.187      2.569      3.433
REMARK INTER + INTRA:         -13.778
REMARK INTER:                 -12.584
REMARK INTRA:                  -1.194
REMARK UNBOUND:                -1.099
REMARK  7 active torsions:
REMARK  status: ('A' for Active; 'I' for Inactive)
REMARK    1  A    between atoms: N_6  and  C_8 
REMARK    2  A    between atoms: C_8  and  C_9 
REMARK    3  A    between atoms: C_14  and  N_15 
REMARK       I    between atoms: N_15  and  C_17 
REMARK    4  A    between atoms: C_17  and  C_19 
REMARK    5  A    between atoms: C_20  and  O_22 
REMARK    6  A    between atoms: C_26  and  C_30 
REMARK    7  A    between atoms: C_30  and  C_31 
ROOT
HETATM    1  C   UNL     1       9.523  12.508  21.899  0.00  0.00     0.066 A 
HETATM    2  C   UNL     1       9.877  11.338  21.214  0.00  0.00     0.083 A 
HETATM    3  C   UNL     1      11.196  10.867  21.198  0.00  0.00     0.069 A 
HETATM    4  C   UNL     1      10.535  13.297  22.494  0.00  0.00     0.035 A 
HETATM    5  C   UNL     1      11.874  12.847  22.477  0.00  0.00     0.020 A 
HETATM    6  C   UNL     1      12.162  11.647  21.837  0.00  0.00     0.065 A 
HETATM    7  C   UNL     1      13.132  13.303  22.977  0.00  0.00     0.071 A 
HETATM    8  N   UNL     1      14.128  12.471  22.632  0.00  0.00    -0.178 NA
HETATM    9  N   UNL     1      13.513  11.478  21.973  0.00  0.00    -0.277 N 
HETATM   10  H   UNL     1      14.080  10.712  21.626  0.00  0.00     0.189 HD
ENDROOT
BRANCH   1  11
HETATM   11  C   UNL     1       8.127  13.036  21.983  0.00  0.00     0.260 C 
HETATM   12  N   UNL     1       7.407  12.990  23.198  0.00  0.00    -0.318 N 
HETATM   13  C   UNL     1       7.975  12.701  24.519  0.00  0.00     0.159 C 
HETATM   14  O   UNL     1       7.640  13.460  20.933  0.00  0.00    -0.267 OA
BRANCH  12  15
HETATM   15  C   UNL     1       6.076  13.495  23.214  0.00  0.00     0.037 C 
HETATM   16  C   UNL     1       4.991  12.632  23.057  0.00  0.00     0.030 C 
HETATM   17  C   UNL     1       3.686  13.100  23.205  0.00  0.00     0.011 C 
HETATM   18  C   UNL     1       3.449  14.429  23.588  0.00  0.00    -0.032 C 
HETATM   19  C   UNL     1       4.533  15.317  23.643  0.00  0.00     0.011 C 
HETATM   20  C   UNL     1       5.840  14.859  23.431  0.00  0.00     0.030 C 
BRANCH  18  21
HETATM   21  C   UNL     1       2.081  14.832  24.075  0.00  0.00     0.273 C 
BRANCH  21  22
HETATM   22  N   UNL     1       1.143  13.639  24.219  0.00  0.00    -0.063 N 
HETATM   23  C   UNL     1       0.337  13.718  25.510  0.00  0.00     0.261 C 
HETATM   24  C   UNL     1      -0.636  12.537  25.606  0.00  0.00     0.195 C 
HETATM   25  O   UNL     1      -1.502  12.498  24.469  0.00  0.00    -0.388 OA
HETATM   26  C   UNL     1      -0.763  12.299  23.262  0.00  0.00     0.195 C 
HETATM   27  C   UNL     1       0.210  13.455  23.018  0.00  0.00     0.261 C 
HETATM   28  H   UNL     1       1.738  12.803  24.259  0.00  0.00     0.280 HD
ENDBRANCH  21  22
ENDBRANCH  18  21
ENDBRANCH  12  15
ENDBRANCH   1  11
BRANCH   2  29
HETATM   29  O   UNL     1       8.996  10.590  20.479  0.00  0.00    -0.360 OA
HETATM   30  H   UNL     1       8.947  10.957  19.580  0.00  0.00     0.217 HD
ENDBRANCH   2  29
BRANCH   7  31
HETATM   31  C   UNL     1      13.443  14.542  23.762  0.00  0.00     0.100 C 
BRANCH  31  32
HETATM   32  C   UNL     1      12.845  14.373  25.144  0.00  0.00    -0.052 A 
HETATM   33  C   UNL     1      13.625  13.939  26.228  0.00  0.00     0.007 A 
HETATM   34  C   UNL     1      13.070  13.806  27.501  0.00  0.00     0.001 A 
HETATM   35  C   UNL     1      11.734  14.132  27.718  0.00  0.00     0.007 A 
HETATM   36  C   UNL     1      10.942  14.601  26.664  0.00  0.00    -0.061 A 
HETATM   37  C   UNL     1      11.507  14.730  25.385  0.00  0.00     0.014 A 
HETATM   38  C   UNL     1       9.532  15.041  26.928  0.00  0.00     0.048 C 
ENDBRANCH  31  32
ENDBRANCH   7  31
TORSDOF 7
ENDMDL
MODEL 9
REMARK VINA RESULT:    -9.108      2.298      3.088
REMARK INTER + INTRA:         -13.669
REMARK INTER:                 -12.570
REMARK INTRA:                  -1.099
REMARK UNBOUND:                -1.099
REMARK  7 active torsions:
REMARK  status: ('A' for Active; 'I' for Inactive)
REMARK    1  A    between atoms: N_6  and  C_8 
REMARK    2  A    between atoms: C_8  and  C_9 
REMARK    3  A    between atoms: C_14  and  N_15 
REMARK       I    between atoms: N_15  and  C_17 
REMARK    4  A    between atoms: C_17  and  C_19 
REMARK    5  A    between atoms: C_20  and  O_22 
REMARK    6  A    between atoms: C_26  and  C_30 
REMARK    7  A    between atoms: C_30  and  C_31 
ROOT
HETATM    1  C   UNL     1       9.198  13.773  22.153  0.00  0.00     0.066 A 
HETATM    2  C   UNL     1       9.875  14.476  21.148  0.00  0.00     0.083 A 
HETATM    3  C   UNL     1      11.246  14.300  20.925  0.00  0.00     0.069 A 
HETATM    4  C   UNL     1       9.931  12.951  23.039  0.00  0.00     0.035 A 
HETATM    5  C   UNL     1      11.318  12.770  22.841  0.00  0.00     0.020 A 
HETATM    6  C   UNL     1      11.930  13.443  21.790  0.00  0.00     0.065 A 
HETATM    7  C   UNL     1      12.370  12.024  23.457  0.00  0.00     0.071 A 
HETATM    8  N   UNL     1      13.550  12.256  22.859  0.00  0.00    -0.178 NA
HETATM    9  N   UNL     1      13.251  13.088  21.851  0.00  0.00    -0.277 N 
HETATM   10  H   UNL     1      14.003  13.391  21.242  0.00  0.00     0.189 HD
ENDROOT
BRANCH   1  11
HETATM   11  C   UNL     1       7.730  13.891  22.410  0.00  0.00     0.260 C 
HETATM   12  N   UNL     1       7.246  14.258  23.686  0.00  0.00    -0.318 N 
HETATM   13  C   UNL     1       8.051  14.808  24.781  0.00  0.00     0.159 C 
HETATM   14  O   UNL     1       6.986  13.607  21.469  0.00  0.00    -0.267 OA
BRANCH  12  15
HETATM   15  C   UNL     1       5.837  14.341  23.876  0.00  0.00     0.037 C 
HETATM   16  C   UNL     1       5.203  15.583  23.912  0.00  0.00     0.030 C 
HETATM   17  C   UNL     1       3.812  15.668  23.964  0.00  0.00     0.011 C 
HETATM   18  C   UNL     1       3.029  14.505  23.905  0.00  0.00    -0.032 C 
HETATM   19  C   UNL     1       3.669  13.259  23.975  0.00  0.00     0.011 C 
HETATM   20  C   UNL     1       5.068  13.177  23.987  0.00  0.00     0.030 C 
BRANCH  18  21
HETATM   21  C   UNL     1       1.554  14.613  23.618  0.00  0.00     0.273 C 
BRANCH  21  22
HETATM   22  N   UNL     1       0.786  13.370  24.052  0.00  0.00    -0.063 N 
HETATM   23  C   UNL     1       0.046  13.603  25.364  0.00  0.00     0.261 C 
HETATM   24  C   UNL     1      -0.760  12.359  25.751  0.00  0.00     0.195 C 
HETATM   25  O   UNL     1      -1.674  12.000  24.711  0.00  0.00    -0.388 OA
HETATM   26  C   UNL     1      -0.980  11.659  23.509  0.00  0.00     0.195 C 
HETATM   27  C   UNL     1      -0.179  12.851  22.981  0.00  0.00     0.261 C 
HETATM   28  H   UNL     1       1.484  12.632  24.201  0.00  0.00     0.280 HD
ENDBRANCH  21  22
ENDBRANCH  18  21
ENDBRANCH  12  15
ENDBRANCH   1  11
BRANCH   2  29
HETATM   29  O   UNL     1       9.282  15.410  20.341  0.00  0.00    -0.360 OA
HETATM   30  H   UNL     1       9.233  16.254  20.821  0.00  0.00     0.217 HD
ENDBRANCH   2  29
BRANCH   7  31
HETATM   31  C   UNL     1      12.307  11.102  24.637  0.00  0.00     0.100 C 
BRANCH  31  32
HETATM   32  C   UNL     1      12.669  11.907  25.869  0.00  0.00    -0.052 A 
HETATM   33  C   UNL     1      13.915  11.758  26.499  0.00  0.00     0.007 A 
HETATM   34  C   UNL     1      14.246  12.518  27.621  0.00  0.00     0.001 A 
HETATM   35  C   UNL     1      13.348  13.460  28.115  0.00  0.00     0.007 A 
HETATM   36  C   UNL     1      12.113  13.657  27.487  0.00  0.00    -0.061 A 
HETATM   37  C   UNL     1      11.786  12.885  26.360  0.00  0.00     0.014 A 
HETATM   38  C   UNL     1      11.194  14.740  27.968  0.00  0.00     0.048 C 
ENDBRANCH  31  32
ENDBRANCH   7  31
TORSDOF 7
ENDMDL
