REMARK  7 active torsions:
REMARK  status: ('A' for Active; 'I' for Inactive)
REMARK    1  A    between atoms: N_6  and  C_8 
REMARK    2  A    between atoms: C_8  and  C_9 
REMARK    3  A    between atoms: C_14  and  N_15 
REMARK       I    between atoms: N_15  and  C_17 
REMARK    4  A    between atoms: C_17  and  C_19 
REMARK    5  A    between atoms: C_20  and  O_22 
REMARK    6  A    between atoms: C_26  and  C_30 
REMARK    7  A    between atoms: C_30  and  C_31 
ROOT
HETATM    1  C   UNL     1       6.793   5.759  -3.433  0.00  0.00     0.066 A 
HETATM    2  C   UNL     1       6.793   7.024  -2.831  0.00  0.00     0.083 A 
HETATM    3  C   UNL     1       7.112   8.181  -3.553  0.00  0.00     0.069 A 
HETATM    4  C   UNL     1       7.235   5.627  -4.770  0.00  0.00     0.035 A 
HETATM    5  C   UNL     1       7.575   6.780  -5.512  0.00  0.00     0.020 A 
HETATM    6  C   UNL     1       7.498   8.018  -4.885  0.00  0.00     0.065 A 
HETATM    7  C   UNL     1       8.007   7.072  -6.842  0.00  0.00     0.071 A 
HETATM    8  N   UNL     1       8.224   8.387  -7.009  0.00  0.00    -0.178 NA
HETATM    9  N   UNL     1       7.887   8.929  -5.830  0.00  0.00    -0.277 N 
HETATM   10  H   UNL     1       7.958   9.935  -5.728  0.00  0.00     0.189 HD
ENDROOT
BRANCH   1  11
HETATM   11  C   UNL     1       6.424   4.497  -2.723  0.00  0.00     0.260 C 
HETATM   12  N   UNL     1       5.292   4.445  -1.879  0.00  0.00    -0.318 N 
HETATM   13  C   UNL     1       4.234   5.458  -1.803  0.00  0.00     0.159 C 
HETATM   14  O   UNL     1       7.184   3.539  -2.881  0.00  0.00    -0.267 OA
BRANCH  12  15
HETATM   15  C   UNL     1       4.997   3.219  -1.218  0.00  0.00     0.037 C 
HETATM   16  C   UNL     1       4.836   2.043  -1.951  0.00  0.00     0.030 C 
HETATM   17  C   UNL     1       4.679   0.819  -1.302  0.00  0.00     0.011 C 
HETATM   18  C   UNL     1       4.757   0.744   0.097  0.00  0.00    -0.032 C 
HETATM   19  C   UNL     1       4.814   1.936   0.833  0.00  0.00     0.011 C 
HETATM   20  C   UNL     1       4.907   3.172   0.179  0.00  0.00     0.030 C 
BRANCH  18  21
HETATM   21  C   UNL     1       4.931  -0.597   0.763  0.00  0.00     0.273 C 
BRANCH  21  22
HETATM   22  N   UNL     1       6.397  -0.992   0.897  0.00  0.00    -0.063 N 
HETATM   23  C   UNL     1       6.554  -2.292   1.676  0.00  0.00     0.261 C 
HETATM   24  C   UNL     1       8.031  -2.695   1.751  0.00  0.00     0.195 C 
HETATM   25  O   UNL     1       8.592  -2.818   0.442  0.00  0.00    -0.388 OA
HETATM   26  C   UNL     1       8.562  -1.569  -0.253  0.00  0.00     0.195 C 
HETATM   27  C   UNL     1       7.123  -1.085  -0.449  0.00  0.00     0.261 C 
HETATM   28  H   UNL     1       6.855  -0.240   1.426  0.00  0.00     0.280 HD
ENDBRANCH  21  22
ENDBRANCH  18  21
ENDBRANCH  12  15
ENDBRANCH   1  11
BRANCH   2  29
HETATM   29  O   UNL     1       6.531   7.235  -1.503  0.00  0.00    -0.360 OA
HETATM   30  H   UNL     1       6.630   6.394  -1.026  0.00  0.00     0.217 HD
ENDBRANCH   2  29
BRANCH   7  31
HETATM   31  C   UNL     1       8.259   6.131  -7.981  0.00  0.00     0.100 C 
BRANCH  31  32
HETATM   32  C   UNL     1       6.932   5.873  -8.667  0.00  0.00    -0.052 A 
HETATM   33  C   UNL     1       6.187   6.920  -9.233  0.00  0.00     0.007 A 
HETATM   34  C   UNL     1       4.977   6.669  -9.880  0.00  0.00     0.001 A 
HETATM   35  C   UNL     1       4.505   5.365  -9.996  0.00  0.00     0.007 A 
HETATM   36  C   UNL     1       5.243   4.297  -9.473  0.00  0.00    -0.061 A 
HETATM   37  C   UNL     1       6.459   4.558  -8.821  0.00  0.00     0.014 A 
HETATM   38  C   UNL     1       4.775   2.888  -9.688  0.00  0.00     0.048 C 
ENDBRANCH  31  32
ENDBRANCH   7  31
TORSDOF 7
