REMARK  5 active torsions:
REMARK  status: ('A' for Active; 'I' for Inactive)
REMARK    1  A    between atoms: C_2  and  N_3 
REMARK       I    between atoms: N_3  and  C_4 
REMARK    2  A    between atoms: C_4  and  C_6 
REMARK    3  A    between atoms: C_6  and  C_10 
REMARK    4  A    between atoms: C_17  and  N_18 
REMARK    5  A    between atoms: C_20  and  C_21 
REMARK       I    between atoms: C_21  and  N_23 
ROOT
HETATM    1  C   UNL     1       4.580  -1.226  -3.314  0.00  0.00    -0.039 A 
HETATM    2  C   UNL     1       4.827   0.159  -3.372  0.00  0.00     0.024 A 
HETATM    3  C   UNL     1       4.484   0.960  -4.498  0.00  0.00     0.028 A 
HETATM    4  C   UNL     1       3.894   0.364  -5.611  0.00  0.00     0.073 A 
HETATM    5  C   UNL     1       3.671  -1.002  -5.580  0.00  0.00     0.033 A 
HETATM    6  C   UNL     1       4.007  -1.785  -4.468  0.00  0.00     0.011 A 
HETATM    7  N   UNL     1       3.548   1.043  -6.711  0.00  0.00    -0.218 NA
HETATM    8  C   UNL     1       3.757   2.356  -6.728  0.00  0.00     0.200 A 
HETATM    9  N   UNL     1       4.337   3.036  -5.753  0.00  0.00    -0.212 NA
HETATM   10  C   UNL     1       4.695   2.331  -4.652  0.00  0.00     0.140 A 
ENDROOT
BRANCH  10  11
HETATM   11  C   UNL     1       5.356   3.165  -3.587  0.00  0.00     0.274 C 
HETATM   12  O   UNL     1       5.041   3.029  -2.407  0.00  0.00    -0.266 OA
HETATM   13  N   UNL     1       6.309   4.084  -3.997  0.00  0.00    -0.338 N 
HETATM   14  C   UNL     1       6.861   5.082  -3.081  0.00  0.00     0.165 C 
HETATM   15  C   UNL     1       7.065   4.001  -5.246  0.00  0.00     0.165 C 
HETATM   16  C   UNL     1       7.902   5.772  -3.909  0.00  0.00    -0.032 A 
HETATM   17  C   UNL     1       8.680   6.875  -3.603  0.00  0.00     0.009 A 
HETATM   18  C   UNL     1       8.033   5.131  -5.146  0.00  0.00    -0.032 A 
HETATM   19  C   UNL     1       9.599   7.322  -4.559  0.00  0.00     0.001 A 
HETATM   20  C   UNL     1       9.733   6.667  -5.794  0.00  0.00     0.001 A 
HETATM   21  C   UNL     1       8.944   5.558  -6.095  0.00  0.00     0.009 A 
ENDBRANCH  10  11
BRANCH   8  22
HETATM   22  N   UNL     1       3.408   3.047  -7.864  0.00  0.00    -0.271 NA
HETATM   23  H   UNL     1       3.359   2.429  -8.662  0.00  0.00     0.127 HD
HETATM   24  H   UNL     1       3.950   3.894  -7.954  0.00  0.00     0.127 HD
ENDBRANCH   8  22
BRANCH   1  25
HETATM   25  C   UNL     1       4.948  -2.113  -2.017  0.00  0.00     0.068 C 
HETATM   26  C   UNL     1       3.892  -3.207  -1.590  0.00  0.00     0.024 C 
HETATM   27  C   UNL     1       3.303  -2.194  -0.599  0.00  0.00     0.003 C 
HETATM   28  C   UNL     1       4.662  -1.483  -0.600  0.00  0.00     0.024 C 
BRANCH  25  29
HETATM   29  C   UNL     1       6.424  -2.664  -2.229  0.00  0.00     0.231 C 
HETATM   30  N   UNL     1       7.412  -1.746  -1.910  0.00  0.00    -0.360 N 
HETATM   31  H   UNL     1       7.143  -0.800  -1.676  0.00  0.00     0.162 HD
HETATM   32  O   UNL     1       6.702  -3.795  -2.633  0.00  0.00    -0.272 OA
BRANCH  30  33
HETATM   33  C   UNL     1       8.821  -2.043  -2.054  0.00  0.00     0.118 C 
HETATM   34  C   UNL     1       9.324  -1.702  -3.444  0.00  0.00     0.026 C 
ENDBRANCH  30  33
ENDBRANCH  25  29
ENDBRANCH   1  25
TORSDOF 5
