MODEL 1
REMARK VINA RESULT:    -7.323      0.000      0.000
REMARK INTER + INTRA:          -9.456
REMARK INTER:                  -8.521
REMARK INTRA:                  -0.934
REMARK UNBOUND:                -0.848
REMARK  4 active torsions:
REMARK  status: ('A' for Active; 'I' for Inactive)
REMARK    1  A    between atoms: O_1  and  C_2 
REMARK    2  A    between atoms: C_5  and  C_6 
REMARK    3  A    between atoms: N_12  and  C_13 
REMARK    4  A    between atoms: C_20  and  O_21 
ROOT
HETATM    1  C   UNL     1       7.194  14.802  22.275  0.00  0.00     0.170 A 
HETATM    2  N   UNL     1       7.777  15.779  21.623  0.00  0.00    -0.153 NA
HETATM    3  N   UNL     1       8.422  15.191  20.596  0.00  0.00    -0.251 N 
HETATM    4  H   UNL     1       8.885  15.733  19.867  0.00  0.00     0.191 HD
HETATM    5  C   UNL     1       8.190  13.828  20.580  0.00  0.00     0.201 A 
HETATM    6  S   UNL     1       8.710  12.900  19.301  0.00  0.00    -0.038 SA
HETATM    7  N   UNL     1       7.432  13.554  21.718  0.00  0.00    -0.266 N 
ENDROOT
BRANCH   1   8
HETATM    8  C   UNL     1       6.369  15.142  23.463  0.00  0.00     0.045 C 
HETATM    9  C   UNL     1       5.180  15.852  23.185  0.00  0.00     0.021 C 
HETATM   10  C   UNL     1       4.249  16.128  24.187  0.00  0.00     0.037 C 
HETATM   11  C   UNL     1       4.491  15.678  25.474  0.00  0.00     0.068 C 
HETATM   12  C   UNL     1       5.692  15.048  25.789  0.00  0.00     0.074 C 
HETATM   13  C   UNL     1       6.655  14.838  24.796  0.00  0.00     0.082 C 
BRANCH  11  14
HETATM   14  O   UNL     1       3.569  15.841  26.465  0.00  0.00    -0.361 OA
HETATM   15  H   UNL     1       3.802  16.628  26.984  0.00  0.00     0.217 HD
ENDBRANCH  11  14
BRANCH  13  16
HETATM   16  O   UNL     1       7.853  14.350  25.237  0.00  0.00    -0.360 OA
HETATM   17  H   UNL     1       7.866  14.369  26.208  0.00  0.00     0.217 HD
ENDBRANCH  13  16
ENDBRANCH   1   8
BRANCH   7  18
HETATM   18  C   UNL     1       7.005  12.258  22.141  0.00  0.00     0.082 A 
HETATM   19  C   UNL     1       5.726  11.785  21.784  0.00  0.00     0.033 A 
HETATM   20  C   UNL     1       5.324  10.472  22.055  0.00  0.00     0.002 A 
HETATM   21  C   UNL     1       6.207   9.585  22.659  0.00  0.00     0.003 A 
HETATM   22  C   UNL     1       7.458  10.041  23.064  0.00  0.00     0.044 A 
HETATM   23  C   UNL     1       7.824  11.371  22.846  0.00  0.00     0.143 A 
HETATM   24  F   UNL     1       8.989  11.786  23.366  0.00  0.00    -0.204 F 
ENDBRANCH   7  18
TORSDOF 4
ENDMDL
MODEL 2
REMARK VINA RESULT:    -6.772      5.603      7.160
REMARK INTER + INTRA:          -8.807
REMARK INTER:                  -7.942
REMARK INTRA:                  -0.866
REMARK UNBOUND:                -0.848
REMARK  4 active torsions:
REMARK  status: ('A' for Active; 'I' for Inactive)
REMARK    1  A    between atoms: O_1  and  C_2 
REMARK    2  A    between atoms: C_5  and  C_6 
REMARK    3  A    between atoms: N_12  and  C_13 
REMARK    4  A    between atoms: C_20  and  O_21 
ROOT
HETATM    1  C   UNL     1       1.629  11.146  24.581  0.00  0.00     0.170 A 
HETATM    2  N   UNL     1       1.780   9.859  24.781  0.00  0.00    -0.153 NA
HETATM    3  N   UNL     1       3.076   9.697  25.112  0.00  0.00    -0.251 N 
HETATM    4  H   UNL     1       3.449   8.798  25.415  0.00  0.00     0.191 HD
HETATM    5  C   UNL     1       3.729  10.915  25.171  0.00  0.00     0.201 A 
HETATM    6  S   UNL     1       5.286  11.009  25.749  0.00  0.00    -0.038 SA
HETATM    7  N   UNL     1       2.798  11.870  24.763  0.00  0.00    -0.266 N 
ENDROOT
BRANCH   1   8
HETATM    8  C   UNL     1       0.277  11.649  24.224  0.00  0.00     0.045 C 
HETATM    9  C   UNL     1       0.231  12.501  23.099  0.00  0.00     0.021 C 
HETATM   10  C   UNL     1      -0.984  12.947  22.577  0.00  0.00     0.037 C 
HETATM   11  C   UNL     1      -2.165  12.527  23.165  0.00  0.00     0.068 C 
HETATM   12  C   UNL     1      -2.144  11.754  24.323  0.00  0.00     0.074 C 
HETATM   13  C   UNL     1      -0.922  11.370  24.886  0.00  0.00     0.082 C 
BRANCH  11  14
HETATM   14  O   UNL     1      -3.376  12.859  22.633  0.00  0.00    -0.361 OA
HETATM   15  H   UNL     1      -4.026  12.927  23.353  0.00  0.00     0.217 HD
ENDBRANCH  11  14
BRANCH  13  16
HETATM   16  O   UNL     1      -1.007  10.745  26.098  0.00  0.00    -0.360 OA
HETATM   17  H   UNL     1      -1.892  10.352  26.192  0.00  0.00     0.217 HD
ENDBRANCH  13  16
ENDBRANCH   1   8
BRANCH   7  18
HETATM   18  C   UNL     1       3.051  13.268  24.615  0.00  0.00     0.082 A 
HETATM   19  C   UNL     1       2.652  14.168  25.624  0.00  0.00     0.033 A 
HETATM   20  C   UNL     1       3.005  15.521  25.586  0.00  0.00     0.002 A 
HETATM   21  C   UNL     1       3.800  16.004  24.553  0.00  0.00     0.003 A 
HETATM   22  C   UNL     1       4.167  15.146  23.520  0.00  0.00     0.044 A 
HETATM   23  C   UNL     1       3.754  13.811  23.535  0.00  0.00     0.143 A 
HETATM   24  F   UNL     1       4.032  13.065  22.457  0.00  0.00    -0.204 F 
ENDBRANCH   7  18
TORSDOF 4
ENDMDL
MODEL 3
REMARK VINA RESULT:    -6.650      7.651      8.848
REMARK INTER + INTRA:          -8.664
REMARK INTER:                  -7.794
REMARK INTRA:                  -0.869
REMARK UNBOUND:                -0.848
REMARK  4 active torsions:
REMARK  status: ('A' for Active; 'I' for Inactive)
REMARK    1  A    between atoms: O_1  and  C_2 
REMARK    2  A    between atoms: C_5  and  C_6 
REMARK    3  A    between atoms: N_12  and  C_13 
REMARK    4  A    between atoms: C_20  and  O_21 
ROOT
HETATM    1  C   UNL     1      -1.589  11.367  24.588  0.00  0.00     0.170 A 
HETATM    2  N   UNL     1      -2.680  11.169  23.888  0.00  0.00    -0.153 NA
HETATM    3  N   UNL     1      -2.504  11.864  22.747  0.00  0.00    -0.251 N 
HETATM    4  H   UNL     1      -3.164  11.810  21.973  0.00  0.00     0.191 HD
HETATM    5  C   UNL     1      -1.255  12.460  22.716  0.00  0.00     0.201 A 
HETATM    6  S   UNL     1      -0.714  13.211  21.334  0.00  0.00    -0.038 SA
HETATM    7  N   UNL     1      -0.670  12.188  23.953  0.00  0.00    -0.266 N 
ENDROOT
BRANCH   1   8
HETATM    8  C   UNL     1      -1.469  10.695  25.909  0.00  0.00     0.045 C 
HETATM    9  C   UNL     1      -2.195  11.299  26.959  0.00  0.00     0.021 C 
HETATM   10  C   UNL     1      -2.274  10.708  28.220  0.00  0.00     0.037 C 
HETATM   11  C   UNL     1      -1.643   9.495  28.436  0.00  0.00     0.068 C 
HETATM   12  C   UNL     1      -0.855   8.920  27.442  0.00  0.00     0.074 C 
HETATM   13  C   UNL     1      -0.718   9.554  26.202  0.00  0.00     0.082 C 
BRANCH  11  14
HETATM   14  O   UNL     1      -1.771   8.832  29.621  0.00  0.00    -0.361 OA
HETATM   15  H   UNL     1      -1.163   8.075  29.623  0.00  0.00     0.217 HD
ENDBRANCH  11  14
BRANCH  13  16
HETATM   16  O   UNL     1       0.192   8.989  25.354  0.00  0.00    -0.360 OA
HETATM   17  H   UNL     1       0.315   9.572  24.586  0.00  0.00     0.217 HD
ENDBRANCH  13  16
ENDBRANCH   1   8
BRANCH   7  18
HETATM   18  C   UNL     1       0.607  12.657  24.390  0.00  0.00     0.082 A 
HETATM   19  C   UNL     1       1.780  12.208  23.751  0.00  0.00     0.033 A 
HETATM   20  C   UNL     1       3.035  12.749  24.052  0.00  0.00     0.002 A 
HETATM   21  C   UNL     1       3.145  13.781  24.976  0.00  0.00     0.003 A 
HETATM   22  C   UNL     1       2.008  14.210  25.654  0.00  0.00     0.044 A 
HETATM   23  C   UNL     1       0.769  13.618  25.393  0.00  0.00     0.143 A 
HETATM   24  F   UNL     1      -0.267  13.984  26.162  0.00  0.00    -0.204 F 
ENDBRANCH   7  18
TORSDOF 4
ENDMDL
MODEL 4
REMARK VINA RESULT:    -6.506      3.163      5.432
REMARK INTER + INTRA:          -8.495
REMARK INTER:                  -7.743
REMARK INTRA:                  -0.752
REMARK UNBOUND:                -0.848
REMARK  4 active torsions:
REMARK  status: ('A' for Active; 'I' for Inactive)
REMARK    1  A    between atoms: O_1  and  C_2 
REMARK    2  A    between atoms: C_5  and  C_6 
REMARK    3  A    between atoms: N_12  and  C_13 
REMARK    4  A    between atoms: C_20  and  O_21 
ROOT
HETATM    1  C   UNL     1       7.500  12.462  23.864  0.00  0.00     0.170 A 
HETATM    2  N   UNL     1       8.672  11.893  24.010  0.00  0.00    -0.153 NA
HETATM    3  N   UNL     1       9.370  12.710  24.823  0.00  0.00    -0.251 N 
HETATM    4  H   UNL     1      10.290  12.459  25.182  0.00  0.00     0.191 HD
HETATM    5  C   UNL     1       8.596  13.781  25.233  0.00  0.00     0.201 A 
HETATM    6  S   UNL     1       9.156  14.829  26.396  0.00  0.00    -0.038 SA
HETATM    7  N   UNL     1       7.382  13.658  24.557  0.00  0.00    -0.266 N 
ENDROOT
BRANCH   1   8
HETATM    8  C   UNL     1       6.481  11.773  23.030  0.00  0.00     0.045 C 
HETATM    9  C   UNL     1       6.779  11.706  21.652  0.00  0.00     0.021 C 
HETATM   10  C   UNL     1       5.975  10.982  20.771  0.00  0.00     0.037 C 
HETATM   11  C   UNL     1       4.876  10.302  21.266  0.00  0.00     0.068 C 
HETATM   12  C   UNL     1       4.515  10.419  22.606  0.00  0.00     0.074 C 
HETATM   13  C   UNL     1       5.283  11.206  23.471  0.00  0.00     0.082 C 
BRANCH  11  14
HETATM   14  O   UNL     1       4.116   9.504  20.462  0.00  0.00    -0.361 OA
HETATM   15  H   UNL     1       3.231   9.897  20.377  0.00  0.00     0.217 HD
ENDBRANCH  11  14
BRANCH  13  16
HETATM   16  O   UNL     1       4.763  11.377  24.723  0.00  0.00    -0.360 OA
HETATM   17  H   UNL     1       5.144  10.711  25.320  0.00  0.00     0.217 HD
ENDBRANCH  13  16
ENDBRANCH   1   8
BRANCH   7  18
HETATM   18  C   UNL     1       6.292  14.579  24.630  0.00  0.00     0.082 A 
HETATM   19  C   UNL     1       5.880  15.277  23.477  0.00  0.00     0.033 A 
HETATM   20  C   UNL     1       4.731  16.077  23.472  0.00  0.00     0.002 A 
HETATM   21  C   UNL     1       3.944  16.171  24.613  0.00  0.00     0.003 A 
HETATM   22  C   UNL     1       4.355  15.529  25.778  0.00  0.00     0.044 A 
HETATM   23  C   UNL     1       5.538  14.786  25.790  0.00  0.00     0.143 A 
HETATM   24  F   UNL     1       5.948  14.293  26.967  0.00  0.00    -0.204 F 
ENDBRANCH   7  18
TORSDOF 4
ENDMDL
MODEL 5
REMARK VINA RESULT:    -6.453      3.127      5.124
REMARK INTER + INTRA:          -8.432
REMARK INTER:                  -7.432
REMARK INTRA:                  -1.001
REMARK UNBOUND:                -0.848
REMARK  4 active torsions:
REMARK  status: ('A' for Active; 'I' for Inactive)
REMARK    1  A    between atoms: O_1  and  C_2 
REMARK    2  A    between atoms: C_5  and  C_6 
REMARK    3  A    between atoms: N_12  and  C_13 
REMARK    4  A    between atoms: C_20  and  O_21 
ROOT
HETATM    1  C   UNL     1       7.235  12.430  23.788  0.00  0.00     0.170 A 
HETATM    2  N   UNL     1       8.434  11.982  23.506  0.00  0.00    -0.153 NA
HETATM    3  N   UNL     1       9.256  13.041  23.648  0.00  0.00    -0.251 N 
HETATM    4  H   UNL     1      10.269  12.952  23.581  0.00  0.00     0.191 HD
HETATM    5  C   UNL     1       8.559  14.155  24.080  0.00  0.00     0.201 A 
HETATM    6  S   UNL     1       9.371  15.538  24.521  0.00  0.00    -0.038 SA
HETATM    7  N   UNL     1       7.216  13.778  24.116  0.00  0.00    -0.266 N 
ENDROOT
BRANCH   1   8
HETATM    8  C   UNL     1       6.098  11.474  23.747  0.00  0.00     0.045 C 
HETATM    9  C   UNL     1       5.369  11.354  24.951  0.00  0.00     0.021 C 
HETATM   10  C   UNL     1       4.205  10.590  25.021  0.00  0.00     0.037 C 
HETATM   11  C   UNL     1       3.748   9.951  23.879  0.00  0.00     0.068 C 
HETATM   12  C   UNL     1       4.492   9.987  22.703  0.00  0.00     0.074 C 
HETATM   13  C   UNL     1       5.698  10.695  22.658  0.00  0.00     0.082 C 
BRANCH  11  14
HETATM   14  O   UNL     1       2.566   9.271  23.875  0.00  0.00    -0.361 OA
HETATM   15  H   UNL     1       2.115   9.434  23.030  0.00  0.00     0.217 HD
ENDBRANCH  11  14
BRANCH  13  16
HETATM   16  O   UNL     1       6.423  10.544  21.509  0.00  0.00    -0.360 OA
HETATM   17  H   UNL     1       6.241   9.667  21.131  0.00  0.00     0.217 HD
ENDBRANCH  13  16
ENDBRANCH   1   8
BRANCH   7  18
HETATM   18  C   UNL     1       6.121  14.631  24.453  0.00  0.00     0.082 A 
HETATM   19  C   UNL     1       5.337  15.208  23.434  0.00  0.00     0.033 A 
HETATM   20  C   UNL     1       4.173  15.931  23.720  0.00  0.00     0.002 A 
HETATM   21  C   UNL     1       3.744  16.066  25.034  0.00  0.00     0.003 A 
HETATM   22  C   UNL     1       4.526  15.547  26.061  0.00  0.00     0.044 A 
HETATM   23  C   UNL     1       5.719  14.882  25.768  0.00  0.00     0.143 A 
HETATM   24  F   UNL     1       6.492  14.512  26.800  0.00  0.00    -0.204 F 
ENDBRANCH   7  18
TORSDOF 4
ENDMDL
MODEL 6
REMARK VINA RESULT:    -6.430      5.635      6.543
REMARK INTER + INTRA:          -8.406
REMARK INTER:                  -7.604
REMARK INTRA:                  -0.802
REMARK UNBOUND:                -0.848
REMARK  4 active torsions:
REMARK  status: ('A' for Active; 'I' for Inactive)
REMARK    1  A    between atoms: O_1  and  C_2 
REMARK    2  A    between atoms: C_5  and  C_6 
REMARK    3  A    between atoms: N_12  and  C_13 
REMARK    4  A    between atoms: C_20  and  O_21 
ROOT
HETATM    1  C   UNL     1       1.456  13.279  25.086  0.00  0.00     0.170 A 
HETATM    2  N   UNL     1       1.321  14.257  25.950  0.00  0.00    -0.153 NA
HETATM    3  N   UNL     1       2.575  14.648  26.248  0.00  0.00    -0.251 N 
HETATM    4  H   UNL     1       2.764  15.464  26.829  0.00  0.00     0.191 HD
HETATM    5  C   UNL     1       3.505  13.935  25.513  0.00  0.00     0.201 A 
HETATM    6  S   UNL     1       5.113  14.361  25.548  0.00  0.00    -0.038 SA
HETATM    7  N   UNL     1       2.780  12.989  24.790  0.00  0.00    -0.266 N 
ENDROOT
BRANCH   1   8
HETATM    8  C   UNL     1       0.227  12.649  24.538  0.00  0.00     0.045 C 
HETATM    9  C   UNL     1      -0.591  12.001  25.490  0.00  0.00     0.021 C 
HETATM   10  C   UNL     1      -1.835  11.475  25.139  0.00  0.00     0.037 C 
HETATM   11  C   UNL     1      -2.279  11.609  23.834  0.00  0.00     0.068 C 
HETATM   12  C   UNL     1      -1.457  12.170  22.860  0.00  0.00     0.074 C 
HETATM   13  C   UNL     1      -0.180  12.631  23.202  0.00  0.00     0.082 C 
BRANCH  11  14
HETATM   14  O   UNL     1      -3.525  11.196  23.465  0.00  0.00    -0.361 OA
HETATM   15  H   UNL     1      -3.690  11.478  22.550  0.00  0.00     0.217 HD
ENDBRANCH  11  14
BRANCH  13  16
HETATM   16  O   UNL     1       0.601  13.023  22.151  0.00  0.00    -0.360 OA
HETATM   17  H   UNL     1       1.374  12.436  22.093  0.00  0.00     0.217 HD
ENDBRANCH  13  16
ENDBRANCH   1   8
BRANCH   7  18
HETATM   18  C   UNL     1       3.336  11.991  23.932  0.00  0.00     0.082 A 
HETATM   19  C   UNL     1       3.942  12.365  22.716  0.00  0.00     0.033 A 
HETATM   20  C   UNL     1       4.623  11.439  21.917  0.00  0.00     0.002 A 
HETATM   21  C   UNL     1       4.747  10.120  22.334  0.00  0.00     0.003 A 
HETATM   22  C   UNL     1       4.118   9.715  23.507  0.00  0.00     0.044 A 
HETATM   23  C   UNL     1       3.386  10.634  24.264  0.00  0.00     0.143 A 
HETATM   24  F   UNL     1       2.701  10.163  25.316  0.00  0.00    -0.204 F 
ENDBRANCH   7  18
TORSDOF 4
ENDMDL
MODEL 7
REMARK VINA RESULT:    -6.398      3.220      5.589
REMARK INTER + INTRA:          -8.368
REMARK INTER:                  -7.522
REMARK INTRA:                  -0.846
REMARK UNBOUND:                -0.848
REMARK  4 active torsions:
REMARK  status: ('A' for Active; 'I' for Inactive)
REMARK    1  A    between atoms: O_1  and  C_2 
REMARK    2  A    between atoms: C_5  and  C_6 
REMARK    3  A    between atoms: N_12  and  C_13 
REMARK    4  A    between atoms: C_20  and  O_21 
ROOT
HETATM    1  C   UNL     1       7.856  12.662  23.579  0.00  0.00     0.170 A 
HETATM    2  N   UNL     1       9.056  12.271  23.934  0.00  0.00    -0.153 NA
HETATM    3  N   UNL     1       9.371  13.014  25.014  0.00  0.00    -0.251 N 
HETATM    4  H   UNL     1      10.218  12.849  25.555  0.00  0.00     0.191 HD
HETATM    5  C   UNL     1       8.322  13.844  25.368  0.00  0.00     0.201 A 
HETATM    6  S   UNL     1       8.381  14.719  26.781  0.00  0.00    -0.038 SA
HETATM    7  N   UNL     1       7.343  13.663  24.391  0.00  0.00    -0.266 N 
ENDROOT
BRANCH   1   8
HETATM    8  C   UNL     1       7.213  11.996  22.417  0.00  0.00     0.045 C 
HETATM    9  C   UNL     1       7.854  12.204  21.176  0.00  0.00     0.021 C 
HETATM   10  C   UNL     1       7.434  11.539  20.022  0.00  0.00     0.037 C 
HETATM   11  C   UNL     1       6.380  10.646  20.106  0.00  0.00     0.068 C 
HETATM   12  C   UNL     1       5.681  10.485  21.299  0.00  0.00     0.074 C 
HETATM   13  C   UNL     1       6.059  11.208  22.436  0.00  0.00     0.082 C 
BRANCH  11  14
HETATM   14  O   UNL     1       5.996   9.903  19.028  0.00  0.00    -0.361 OA
HETATM   15  H   UNL     1       5.188   9.414  19.257  0.00  0.00     0.217 HD
ENDBRANCH  11  14
BRANCH  13  16
HETATM   16  O   UNL     1       5.220  11.093  23.508  0.00  0.00    -0.360 OA
HETATM   17  H   UNL     1       4.353  10.779  23.202  0.00  0.00     0.217 HD
ENDBRANCH  13  16
ENDBRANCH   1   8
BRANCH   7  18
HETATM   18  C   UNL     1       6.100  14.363  24.320  0.00  0.00     0.082 A 
HETATM   19  C   UNL     1       5.082  14.091  25.256  0.00  0.00     0.033 A 
HETATM   20  C   UNL     1       3.908  14.852  25.310  0.00  0.00     0.002 A 
HETATM   21  C   UNL     1       3.738  15.930  24.450  0.00  0.00     0.003 A 
HETATM   22  C   UNL     1       4.707  16.190  23.486  0.00  0.00     0.044 A 
HETATM   23  C   UNL     1       5.845  15.384  23.399  0.00  0.00     0.143 A 
HETATM   24  F   UNL     1       6.683  15.604  22.375  0.00  0.00    -0.204 F 
ENDBRANCH   7  18
TORSDOF 4
ENDMDL
MODEL 8
REMARK VINA RESULT:    -6.328      2.590      4.689
REMARK INTER + INTRA:          -8.286
REMARK INTER:                  -7.456
REMARK INTRA:                  -0.829
REMARK UNBOUND:                -0.848
REMARK  4 active torsions:
REMARK  status: ('A' for Active; 'I' for Inactive)
REMARK    1  A    between atoms: O_1  and  C_2 
REMARK    2  A    between atoms: C_5  and  C_6 
REMARK    3  A    between atoms: N_12  and  C_13 
REMARK    4  A    between atoms: C_20  and  O_21 
ROOT
HETATM    1  C   UNL     1       7.460  12.984  21.602  0.00  0.00     0.170 A 
HETATM    2  N   UNL     1       8.326  12.881  20.623  0.00  0.00    -0.153 NA
HETATM    3  N   UNL     1       8.993  14.052  20.609  0.00  0.00    -0.251 N 
HETATM    4  H   UNL     1       9.796  14.209  20.002  0.00  0.00     0.191 HD
HETATM    5  C   UNL     1       8.568  14.877  21.635  0.00  0.00     0.201 A 
HETATM    6  S   UNL     1       9.369  16.298  21.958  0.00  0.00    -0.038 SA
HETATM    7  N   UNL     1       7.516  14.206  22.257  0.00  0.00    -0.266 N 
ENDROOT
BRANCH   1   8
HETATM    8  C   UNL     1       6.581  11.821  21.891  0.00  0.00     0.045 C 
HETATM    9  C   UNL     1       5.237  12.141  22.181  0.00  0.00     0.021 C 
HETATM   10  C   UNL     1       4.274  11.145  22.348  0.00  0.00     0.037 C 
HETATM   11  C   UNL     1       4.646   9.818  22.208  0.00  0.00     0.068 C 
HETATM   12  C   UNL     1       5.980   9.475  22.003  0.00  0.00     0.074 C 
HETATM   13  C   UNL     1       6.954  10.474  21.909  0.00  0.00     0.082 C 
BRANCH  11  14
HETATM   14  O   UNL     1       3.724   8.815  22.268  0.00  0.00    -0.361 OA
HETATM   15  H   UNL     1       4.082   8.033  21.817  0.00  0.00     0.217 HD
ENDBRANCH  11  14
BRANCH  13  16
HETATM   16  O   UNL     1       8.245  10.030  21.860  0.00  0.00    -0.360 OA
HETATM   17  H   UNL     1       8.730  10.375  22.628  0.00  0.00     0.217 HD
ENDBRANCH  13  16
ENDBRANCH   1   8
BRANCH   7  18
HETATM   18  C   UNL     1       6.732  14.710  23.340  0.00  0.00     0.082 A 
HETATM   19  C   UNL     1       5.628  15.547  23.082  0.00  0.00     0.033 A 
HETATM   20  C   UNL     1       4.752  15.945  24.098  0.00  0.00     0.002 A 
HETATM   21  C   UNL     1       4.937  15.485  25.396  0.00  0.00     0.003 A 
HETATM   22  C   UNL     1       6.047  14.696  25.685  0.00  0.00     0.044 A 
HETATM   23  C   UNL     1       6.951  14.358  24.675  0.00  0.00     0.143 A 
HETATM   24  F   UNL     1       8.064  13.701  25.034  0.00  0.00    -0.204 F 
ENDBRANCH   7  18
TORSDOF 4
ENDMDL
MODEL 9
REMARK VINA RESULT:    -6.326      4.400      6.301
REMARK INTER + INTRA:          -8.284
REMARK INTER:                  -7.436
REMARK INTRA:                  -0.848
REMARK UNBOUND:                -0.848
REMARK  4 active torsions:
REMARK  status: ('A' for Active; 'I' for Inactive)
REMARK    1  A    between atoms: O_1  and  C_2 
REMARK    2  A    between atoms: C_5  and  C_6 
REMARK    3  A    between atoms: N_12  and  C_13 
REMARK    4  A    between atoms: C_20  and  O_21 
ROOT
HETATM    1  C   UNL     1       3.948  11.337  24.698  0.00  0.00     0.170 A 
HETATM    2  N   UNL     1       3.445  10.150  24.459  0.00  0.00    -0.153 NA
HETATM    3  N   UNL     1       2.128  10.353  24.257  0.00  0.00    -0.251 N 
HETATM    4  H   UNL     1       1.506   9.604  23.955  0.00  0.00     0.191 HD
HETATM    5  C   UNL     1       1.819  11.700  24.318  0.00  0.00     0.201 A 
HETATM    6  S   UNL     1       0.298  12.234  23.908  0.00  0.00    -0.038 SA
HETATM    7  N   UNL     1       3.002  12.350  24.669  0.00  0.00    -0.266 N 
ENDROOT
BRANCH   1   8
HETATM    8  C   UNL     1       5.412  11.446  24.936  0.00  0.00     0.045 C 
HETATM    9  C   UNL     1       5.786  12.307  25.991  0.00  0.00     0.021 C 
HETATM   10  C   UNL     1       7.114  12.410  26.406  0.00  0.00     0.037 C 
HETATM   11  C   UNL     1       8.077  11.637  25.780  0.00  0.00     0.068 C 
HETATM   12  C   UNL     1       7.746  10.843  24.685  0.00  0.00     0.074 C 
HETATM   13  C   UNL     1       6.426  10.799  24.226  0.00  0.00     0.082 C 
BRANCH  11  14
HETATM   14  O   UNL     1       9.371  11.632  26.213  0.00  0.00    -0.361 OA
HETATM   15  H   UNL     1       9.886  11.027  25.653  0.00  0.00     0.217 HD
ENDBRANCH  11  14
BRANCH  13  16
HETATM   16  O   UNL     1       6.235  10.112  23.060  0.00  0.00    -0.360 OA
HETATM   17  H   UNL     1       6.881   9.388  23.007  0.00  0.00     0.217 HD
ENDBRANCH  13  16
ENDBRANCH   1   8
BRANCH   7  18
HETATM   18  C   UNL     1       3.142  13.752  24.903  0.00  0.00     0.082 A 
HETATM   19  C   UNL     1       2.670  14.319  26.103  0.00  0.00     0.033 A 
HETATM   20  C   UNL     1       2.914  15.657  26.433  0.00  0.00     0.002 A 
HETATM   21  C   UNL     1       3.671  16.455  25.584  0.00  0.00     0.003 A 
HETATM   22  C   UNL     1       4.109  15.933  24.371  0.00  0.00     0.044 A 
HETATM   23  C   UNL     1       3.804  14.615  24.023  0.00  0.00     0.143 A 
HETATM   24  F   UNL     1       4.144  14.204  22.792  0.00  0.00    -0.204 F 
ENDBRANCH   7  18
TORSDOF 4
ENDMDL
