REMARK  4 active torsions:
REMARK  status: ('A' for Active; 'I' for Inactive)
REMARK    1  A    between atoms: O_1  and  C_2 
REMARK    2  A    between atoms: C_5  and  C_6 
REMARK    3  A    between atoms: N_12  and  C_13 
REMARK    4  A    between atoms: C_20  and  O_21 
ROOT
HETATM    1  C   UNL     1       6.563  -0.162  -0.363  0.00  0.00     0.170 A 
HETATM    2  N   UNL     1       7.273   0.939  -0.308  0.00  0.00    -0.153 NA
HETATM    3  N   UNL     1       8.512   0.587  -0.704  0.00  0.00    -0.251 N 
HETATM    4  H   UNL     1       9.250   1.275  -0.847  0.00  0.00     0.191 HD
HETATM    5  C   UNL     1       8.557  -0.748  -1.064  0.00  0.00     0.201 A 
HETATM    6  S   UNL     1       9.920  -1.383  -1.775  0.00  0.00    -0.038 SA
HETATM    7  N   UNL     1       7.292  -1.264  -0.784  0.00  0.00    -0.266 N 
ENDROOT
BRANCH   1   8
HETATM    8  C   UNL     1       5.122  -0.089  -0.006  0.00  0.00     0.045 C 
HETATM    9  C   UNL     1       4.452   1.073  -0.447  0.00  0.00     0.021 C 
HETATM   10  C   UNL     1       3.073   1.218  -0.292  0.00  0.00     0.037 C 
HETATM   11  C   UNL     1       2.349   0.191   0.290  0.00  0.00     0.068 C 
HETATM   12  C   UNL     1       2.997  -0.928   0.806  0.00  0.00     0.074 C 
HETATM   13  C   UNL     1       4.389  -1.036   0.714  0.00  0.00     0.082 C 
BRANCH  11  14
HETATM   14  O   UNL     1       0.989   0.246   0.377  0.00  0.00    -0.361 OA
HETATM   15  H   UNL     1       0.677   1.035  -0.096  0.00  0.00     0.217 HD
ENDBRANCH  11  14
BRANCH  13  16
HETATM   16  O   UNL     1       4.939  -2.094   1.381  0.00  0.00    -0.360 OA
HETATM   17  H   UNL     1       5.892  -1.939   1.493  0.00  0.00     0.217 HD
ENDBRANCH  13  16
ENDBRANCH   1   8
BRANCH   7  18
HETATM   18  C   UNL     1       6.895  -2.627  -0.946  0.00  0.00     0.082 A 
HETATM   19  C   UNL     1       7.785  -3.666  -0.608  0.00  0.00     0.033 A 
HETATM   20  C   UNL     1       7.388  -5.008  -0.616  0.00  0.00     0.002 A 
HETATM   21  C   UNL     1       6.076  -5.343  -0.928  0.00  0.00     0.003 A 
HETATM   22  C   UNL     1       5.191  -4.340  -1.311  0.00  0.00     0.044 A 
HETATM   23  C   UNL     1       5.616  -3.010  -1.362  0.00  0.00     0.143 A 
HETATM   24  F   UNL     1       4.759  -2.104  -1.855  0.00  0.00    -0.204 F 
ENDBRANCH   7  18
TORSDOF 4
