MODEL 1
REMARK VINA RESULT:    -8.828      0.000      0.000
REMARK INTER + INTRA:         -11.224
REMARK INTER:                 -10.198
REMARK INTRA:                  -1.026
REMARK UNBOUND:                -0.847
REMARK  3 active torsions:
REMARK  status: ('A' for Active; 'I' for Inactive)
REMARK    1  A    between atoms: C_10  and  C_11 
REMARK       I    between atoms: C_11  and  N_13 
REMARK    2  A    between atoms: N_13  and  C_14 
REMARK    3  A    between atoms: C_23  and  C_27 
ROOT
HETATM    1  C   UNL     1       1.644   7.343  28.120  0.00  0.00     0.153 C 
HETATM    2  C   UNL     1       2.242   7.652  26.763  0.00  0.00    -0.020 A 
HETATM    3  C   UNL     1       1.453   8.631  26.108  0.00  0.00    -0.016 A 
HETATM    4  C   UNL     1       3.306   7.013  26.133  0.00  0.00     0.010 A 
HETATM    5  C   UNL     1       3.573   7.328  24.799  0.00  0.00     0.001 A 
HETATM    6  C   UNL     1       2.759   8.237  24.117  0.00  0.00     0.001 A 
HETATM    7  C   UNL     1       1.700   8.879  24.769  0.00  0.00     0.013 A 
HETATM    8  C   UNL     1       0.688   8.512  28.304  0.00  0.00    -0.019 A 
HETATM    9  C   UNL     1       0.481   9.192  27.060  0.00  0.00    -0.003 A 
HETATM   10  C   UNL     1      -0.516  10.184  26.969  0.00  0.00     0.022 A 
HETATM   11  C   UNL     1      -1.252  10.464  28.145  0.00  0.00     0.016 A 
HETATM   12  C   UNL     1      -0.999   9.812  29.365  0.00  0.00     0.002 A 
HETATM   13  C   UNL     1      -0.024   8.827  29.452  0.00  0.00     0.010 A 
ENDROOT
BRANCH   1  14
HETATM   14  N   UNL     1       2.601   7.094  29.174  0.00  0.00    -0.344 N 
HETATM   15  C   UNL     1       2.428   6.009  30.021  0.00  0.00     0.253 C 
HETATM   16  O   UNL     1       1.393   5.352  30.054  0.00  0.00    -0.268 OA
HETATM   17  H   UNL     1       3.397   7.710  29.260  0.00  0.00     0.163 HD
BRANCH  15  18
HETATM   18  C   UNL     1       3.570   5.624  30.888  0.00  0.00     0.047 A 
HETATM   19  C   UNL     1       3.529   5.859  32.282  0.00  0.00     0.027 A 
HETATM   20  C   UNL     1       2.632   6.458  33.217  0.00  0.00     0.033 A 
HETATM   21  C   UNL     1       4.614   5.406  33.028  0.00  0.00     0.138 A 
HETATM   22  C   UNL     1       3.191   6.365  34.472  0.00  0.00     0.090 A 
HETATM   23  N   UNL     1       4.395   5.730  34.339  0.00  0.00    -0.350 N 
HETATM   24  H   UNL     1       5.040   5.499  35.086  0.00  0.00     0.166 HD
HETATM   25  N   UNL     1       5.702   4.758  32.585  0.00  0.00    -0.242 NA
HETATM   26  C   UNL     1       5.675   4.529  31.253  0.00  0.00     0.120 A 
HETATM   27  C   UNL     1       4.671   4.922  30.381  0.00  0.00     0.037 A 
ENDBRANCH  15  18
ENDBRANCH   1  14
BRANCH  10  28
HETATM   28  C   UNL     1      -0.830  10.947  25.747  0.00  0.00     0.140 A 
HETATM   29  N   UNL     1      -2.067  10.953  25.124  0.00  0.00    -0.338 N 
HETATM   30  H   UNL     1      -2.880  10.440  25.434  0.00  0.00     0.167 HD
HETATM   31  C   UNL     1      -1.992  11.710  23.977  0.00  0.00     0.063 A 
HETATM   32  C   UNL     1      -0.678  12.155  23.960  0.00  0.00     0.088 A 
HETATM   33  C   UNL     1      -2.917  12.026  22.976  0.00  0.00     0.035 A 
HETATM   34  N   UNL     1      -0.014  11.741  25.083  0.00  0.00    -0.228 NA
HETATM   35  C   UNL     1      -0.208  12.907  22.879  0.00  0.00     0.076 A 
HETATM   36  C   UNL     1      -1.108  13.212  21.861  0.00  0.00     0.118 A 
HETATM   37  F   UNL     1      -0.682  13.923  20.808  0.00  0.00    -0.206 F 
HETATM   38  C   UNL     1      -2.438  12.798  21.907  0.00  0.00     0.044 A 
ENDBRANCH  10  28
TORSDOF 3
ENDMDL
MODEL 2
REMARK VINA RESULT:    -8.821      4.851      9.246
REMARK INTER + INTRA:         -11.215
REMARK INTER:                 -10.005
REMARK INTRA:                  -1.210
REMARK UNBOUND:                -0.847
REMARK  3 active torsions:
REMARK  status: ('A' for Active; 'I' for Inactive)
REMARK    1  A    between atoms: C_10  and  C_11 
REMARK       I    between atoms: C_11  and  N_13 
REMARK    2  A    between atoms: N_13  and  C_14 
REMARK    3  A    between atoms: C_23  and  C_27 
ROOT
HETATM    1  C   UNL     1       3.446   7.930  24.064  0.00  0.00     0.153 C 
HETATM    2  C   UNL     1       3.847   6.798  24.988  0.00  0.00    -0.020 A 
HETATM    3  C   UNL     1       3.269   7.003  26.266  0.00  0.00    -0.016 A 
HETATM    4  C   UNL     1       4.751   5.770  24.737  0.00  0.00     0.010 A 
HETATM    5  C   UNL     1       5.122   4.940  25.796  0.00  0.00     0.001 A 
HETATM    6  C   UNL     1       4.618   5.173  27.079  0.00  0.00     0.001 A 
HETATM    7  C   UNL     1       3.701   6.205  27.311  0.00  0.00     0.013 A 
HETATM    8  C   UNL     1       2.295   8.559  24.834  0.00  0.00    -0.019 A 
HETATM    9  C   UNL     1       2.284   8.093  26.189  0.00  0.00    -0.003 A 
HETATM   10  C   UNL     1       1.419   8.696  27.123  0.00  0.00     0.022 A 
HETATM   11  C   UNL     1       0.582   9.734  26.646  0.00  0.00     0.016 A 
HETATM   12  C   UNL     1       0.581  10.142  25.301  0.00  0.00     0.002 A 
HETATM   13  C   UNL     1       1.442   9.556  24.383  0.00  0.00     0.010 A 
ENDROOT
BRANCH   1  14
HETATM   14  N   UNL     1       3.199   7.549  22.692  0.00  0.00    -0.344 N 
HETATM   15  C   UNL     1       3.910   8.157  21.668  0.00  0.00     0.253 C 
HETATM   16  O   UNL     1       4.605   9.153  21.842  0.00  0.00    -0.268 OA
HETATM   17  H   UNL     1       2.521   6.824  22.506  0.00  0.00     0.163 HD
BRANCH  15  18
HETATM   18  C   UNL     1       3.839   7.539  20.319  0.00  0.00     0.047 A 
HETATM   19  C   UNL     1       4.266   6.207  20.112  0.00  0.00     0.027 A 
HETATM   20  C   UNL     1       4.848   5.161  20.890  0.00  0.00     0.033 A 
HETATM   21  C   UNL     1       4.102   5.687  18.831  0.00  0.00     0.138 A 
HETATM   22  C   UNL     1       5.028   4.067  20.074  0.00  0.00     0.090 A 
HETATM   23  N   UNL     1       4.576   4.403  18.828  0.00  0.00    -0.350 N 
HETATM   24  H   UNL     1       4.560   3.805  18.010  0.00  0.00     0.166 HD
HETATM   25  N   UNL     1       3.574   6.296  17.758  0.00  0.00    -0.242 NA
HETATM   26  C   UNL     1       3.151   7.553  18.019  0.00  0.00     0.120 A 
HETATM   27  C   UNL     1       3.251   8.208  19.237  0.00  0.00     0.037 A 
ENDBRANCH  15  18
ENDBRANCH   1  14
BRANCH  10  28
HETATM   28  C   UNL     1       1.320   8.313  28.544  0.00  0.00     0.140 A 
HETATM   29  N   UNL     1       0.597   7.230  29.015  0.00  0.00    -0.338 N 
HETATM   30  H   UNL     1       0.062   6.592  28.444  0.00  0.00     0.167 HD
HETATM   31  C   UNL     1       0.663   7.205  30.389  0.00  0.00     0.063 A 
HETATM   32  C   UNL     1       1.460   8.299  30.701  0.00  0.00     0.088 A 
HETATM   33  C   UNL     1       0.108   6.365  31.360  0.00  0.00     0.035 A 
HETATM   34  N   UNL     1       1.907   8.910  29.562  0.00  0.00    -0.228 NA
HETATM   35  C   UNL     1       1.688   8.638  32.038  0.00  0.00     0.076 A 
HETATM   36  C   UNL     1       1.125   7.826  33.020  0.00  0.00     0.118 A 
HETATM   37  F   UNL     1       1.320   8.133  34.310  0.00  0.00    -0.206 F 
HETATM   38  C   UNL     1       0.362   6.705  32.697  0.00  0.00     0.044 A 
ENDBRANCH  10  28
TORSDOF 3
ENDMDL
MODEL 3
REMARK VINA RESULT:    -8.741      0.610      1.811
REMARK INTER + INTRA:         -11.121
REMARK INTER:                 -10.057
REMARK INTRA:                  -1.065
REMARK UNBOUND:                -0.847
REMARK  3 active torsions:
REMARK  status: ('A' for Active; 'I' for Inactive)
REMARK    1  A    between atoms: C_10  and  C_11 
REMARK       I    between atoms: C_11  and  N_13 
REMARK    2  A    between atoms: N_13  and  C_14 
REMARK    3  A    between atoms: C_23  and  C_27 
ROOT
HETATM    1  C   UNL     1       1.651   7.276  28.123  0.00  0.00     0.153 C 
HETATM    2  C   UNL     1       2.243   7.593  26.765  0.00  0.00    -0.020 A 
HETATM    3  C   UNL     1       1.450   8.573  26.118  0.00  0.00    -0.016 A 
HETATM    4  C   UNL     1       3.305   6.958  26.127  0.00  0.00     0.010 A 
HETATM    5  C   UNL     1       3.567   7.280  24.795  0.00  0.00     0.001 A 
HETATM    6  C   UNL     1       2.749   8.191  24.120  0.00  0.00     0.001 A 
HETATM    7  C   UNL     1       1.692   8.828  24.780  0.00  0.00     0.013 A 
HETATM    8  C   UNL     1       0.693   8.442  28.317  0.00  0.00    -0.019 A 
HETATM    9  C   UNL     1       0.481   9.128  27.077  0.00  0.00    -0.003 A 
HETATM   10  C   UNL     1      -0.518  10.118  26.994  0.00  0.00     0.022 A 
HETATM   11  C   UNL     1      -1.250  10.391  28.175  0.00  0.00     0.016 A 
HETATM   12  C   UNL     1      -0.991   9.734  29.391  0.00  0.00     0.002 A 
HETATM   13  C   UNL     1      -0.015   8.750  29.469  0.00  0.00     0.010 A 
ENDROOT
BRANCH   1  14
HETATM   14  N   UNL     1       2.612   7.023  29.172  0.00  0.00    -0.344 N 
HETATM   15  C   UNL     1       2.402   5.981  30.064  0.00  0.00     0.253 C 
HETATM   16  O   UNL     1       1.338   5.376  30.139  0.00  0.00    -0.268 OA
HETATM   17  H   UNL     1       3.437   7.603  29.221  0.00  0.00     0.163 HD
BRANCH  15  18
HETATM   18  C   UNL     1       3.539   5.576  30.929  0.00  0.00     0.047 A 
HETATM   19  C   UNL     1       4.716   5.029  30.366  0.00  0.00     0.027 A 
HETATM   20  C   UNL     1       5.187   4.671  29.067  0.00  0.00     0.033 A 
HETATM   21  C   UNL     1       5.757   4.740  31.245  0.00  0.00     0.138 A 
HETATM   22  C   UNL     1       6.465   4.175  29.194  0.00  0.00     0.090 A 
HETATM   23  N   UNL     1       6.794   4.218  30.521  0.00  0.00    -0.350 N 
HETATM   24  H   UNL     1       7.674   3.934  30.933  0.00  0.00     0.166 HD
HETATM   25  N   UNL     1       5.786   4.927  32.574  0.00  0.00    -0.242 NA
HETATM   26  C   UNL     1       4.652   5.482  33.054  0.00  0.00     0.120 A 
HETATM   27  C   UNL     1       3.533   5.820  32.308  0.00  0.00     0.037 A 
ENDBRANCH  15  18
ENDBRANCH   1  14
BRANCH  10  28
HETATM   28  C   UNL     1      -0.838  10.887  25.777  0.00  0.00     0.140 A 
HETATM   29  N   UNL     1      -2.086  10.918  25.177  0.00  0.00    -0.338 N 
HETATM   30  H   UNL     1      -2.903  10.422  25.502  0.00  0.00     0.167 HD
HETATM   31  C   UNL     1      -2.016  11.673  24.028  0.00  0.00     0.063 A 
HETATM   32  C   UNL     1      -0.693  12.091  23.987  0.00  0.00     0.088 A 
HETATM   33  C   UNL     1      -2.952  12.008  23.043  0.00  0.00     0.035 A 
HETATM   34  N   UNL     1      -0.018  11.663  25.098  0.00  0.00    -0.228 NA
HETATM   35  C   UNL     1      -0.227  12.832  22.897  0.00  0.00     0.076 A 
HETATM   36  C   UNL     1      -1.139  13.155  21.895  0.00  0.00     0.118 A 
HETATM   37  F   UNL     1      -0.718  13.857  20.833  0.00  0.00    -0.206 F 
HETATM   38  C   UNL     1      -2.476  12.768  21.965  0.00  0.00     0.044 A 
ENDBRANCH  10  28
TORSDOF 3
ENDMDL
MODEL 4
REMARK VINA RESULT:    -8.681      8.200     11.004
REMARK INTER + INTRA:         -11.051
REMARK INTER:                  -9.970
REMARK INTRA:                  -1.080
REMARK UNBOUND:                -0.847
REMARK  3 active torsions:
REMARK  status: ('A' for Active; 'I' for Inactive)
REMARK    1  A    between atoms: C_10  and  C_11 
REMARK       I    between atoms: C_11  and  N_13 
REMARK    2  A    between atoms: N_13  and  C_14 
REMARK    3  A    between atoms: C_23  and  C_27 
ROOT
HETATM    1  C   UNL     1       3.457   6.315  19.762  0.00  0.00     0.153 C 
HETATM    2  C   UNL     1       2.658   6.781  18.562  0.00  0.00    -0.020 A 
HETATM    3  C   UNL     1       2.241   5.659  17.804  0.00  0.00    -0.016 A 
HETATM    4  C   UNL     1       2.452   8.088  18.130  0.00  0.00     0.010 A 
HETATM    5  C   UNL     1       1.845   8.287  16.889  0.00  0.00     0.001 A 
HETATM    6  C   UNL     1       1.494   7.191  16.095  0.00  0.00     0.001 A 
HETATM    7  C   UNL     1       1.698   5.884  16.551  0.00  0.00     0.013 A 
HETATM    8  C   UNL     1       3.113   4.834  19.800  0.00  0.00    -0.019 A 
HETATM    9  C   UNL     1       2.505   4.428  18.567  0.00  0.00    -0.003 A 
HETATM   10  C   UNL     1       2.283   3.059  18.320  0.00  0.00     0.022 A 
HETATM   11  C   UNL     1       2.667   2.153  19.338  0.00  0.00     0.016 A 
HETATM   12  C   UNL     1       3.221   2.581  20.558  0.00  0.00     0.002 A 
HETATM   13  C   UNL     1       3.450   3.929  20.796  0.00  0.00     0.010 A 
ENDROOT
BRANCH   1  14
HETATM   14  N   UNL     1       3.255   7.076  20.973  0.00  0.00    -0.344 N 
HETATM   15  C   UNL     1       4.261   7.907  21.443  0.00  0.00     0.253 C 
HETATM   16  O   UNL     1       5.403   7.886  20.995  0.00  0.00    -0.268 OA
HETATM   17  H   UNL     1       2.366   7.003  21.447  0.00  0.00     0.163 HD
BRANCH  15  18
HETATM   18  C   UNL     1       3.910   8.879  22.509  0.00  0.00     0.047 A 
HETATM   19  C   UNL     1       3.408   8.435  23.754  0.00  0.00     0.027 A 
HETATM   20  C   UNL     1       3.061   7.189  24.359  0.00  0.00     0.033 A 
HETATM   21  C   UNL     1       3.168   9.409  24.719  0.00  0.00     0.138 A 
HETATM   22  C   UNL     1       2.619   7.439  25.638  0.00  0.00     0.090 A 
HETATM   23  N   UNL     1       2.685   8.791  25.840  0.00  0.00    -0.350 N 
HETATM   24  H   UNL     1       2.441   9.287  26.689  0.00  0.00     0.166 HD
HETATM   25  N   UNL     1       3.365  10.733  24.616  0.00  0.00    -0.242 NA
HETATM   26  C   UNL     1       3.876  11.100  23.420  0.00  0.00     0.120 A 
HETATM   27  C   UNL     1       4.162  10.249  22.363  0.00  0.00     0.037 A 
ENDBRANCH  15  18
ENDBRANCH   1  14
BRANCH  10  28
HETATM   28  C   UNL     1       1.676   2.516  17.091  0.00  0.00     0.140 A 
HETATM   29  N   UNL     1       2.371   2.261  15.921  0.00  0.00    -0.338 N 
HETATM   30  H   UNL     1       3.358   2.419  15.781  0.00  0.00     0.167 HD
HETATM   31  C   UNL     1       1.490   1.828  14.956  0.00  0.00     0.063 A 
HETATM   32  C   UNL     1       0.263   1.825  15.607  0.00  0.00     0.088 A 
HETATM   33  C   UNL     1       1.641   1.463  13.614  0.00  0.00     0.035 A 
HETATM   34  N   UNL     1       0.414   2.174  16.922  0.00  0.00    -0.228 NA
HETATM   35  C   UNL     1      -0.901   1.505  14.902  0.00  0.00     0.076 A 
HETATM   36  C   UNL     1      -0.773   1.162  13.559  0.00  0.00     0.118 A 
HETATM   37  F   UNL     1      -1.874   0.859  12.856  0.00  0.00    -0.206 F 
HETATM   38  C   UNL     1       0.467   1.125  12.924  0.00  0.00     0.044 A 
ENDBRANCH  10  28
TORSDOF 3
ENDMDL
MODEL 5
REMARK VINA RESULT:    -8.633      5.410      9.807
REMARK INTER + INTRA:         -10.994
REMARK INTER:                  -9.865
REMARK INTRA:                  -1.128
REMARK UNBOUND:                -0.847
REMARK  3 active torsions:
REMARK  status: ('A' for Active; 'I' for Inactive)
REMARK    1  A    between atoms: C_10  and  C_11 
REMARK       I    between atoms: C_11  and  N_13 
REMARK    2  A    between atoms: N_13  and  C_14 
REMARK    3  A    between atoms: C_23  and  C_27 
ROOT
HETATM    1  C   UNL     1       3.813   7.326  22.575  0.00  0.00     0.153 C 
HETATM    2  C   UNL     1       3.247   6.215  23.435  0.00  0.00    -0.020 A 
HETATM    3  C   UNL     1       2.922   6.726  24.717  0.00  0.00    -0.016 A 
HETATM    4  C   UNL     1       3.167   4.859  23.135  0.00  0.00     0.010 A 
HETATM    5  C   UNL     1       2.788   3.976  24.147  0.00  0.00     0.001 A 
HETATM    6  C   UNL     1       2.535   4.455  25.436  0.00  0.00     0.001 A 
HETATM    7  C   UNL     1       2.609   5.824  25.718  0.00  0.00     0.013 A 
HETATM    8  C   UNL     1       3.411   8.560  23.368  0.00  0.00    -0.019 A 
HETATM    9  C   UNL     1       3.006   8.195  24.693  0.00  0.00    -0.003 A 
HETATM   10  C   UNL     1       2.777   9.203  25.651  0.00  0.00     0.022 A 
HETATM   11  C   UNL     1       2.948  10.542  25.226  0.00  0.00     0.016 A 
HETATM   12  C   UNL     1       3.303  10.875  23.907  0.00  0.00     0.002 A 
HETATM   13  C   UNL     1       3.539   9.882  22.966  0.00  0.00     0.010 A 
ENDROOT
BRANCH   1  14
HETATM   14  N   UNL     1       3.437   7.279  21.180  0.00  0.00    -0.344 N 
HETATM   15  C   UNL     1       4.199   6.543  20.284  0.00  0.00     0.253 C 
HETATM   16  O   UNL     1       5.299   6.083  20.570  0.00  0.00    -0.268 OA
HETATM   17  H   UNL     1       2.606   7.772  20.887  0.00  0.00     0.163 HD
BRANCH  15  18
HETATM   18  C   UNL     1       3.622   6.286  18.940  0.00  0.00     0.047 A 
HETATM   19  C   UNL     1       3.288   4.971  18.538  0.00  0.00     0.027 A 
HETATM   20  C   UNL     1       3.380   3.655  19.082  0.00  0.00     0.033 A 
HETATM   21  C   UNL     1       2.691   4.829  17.288  0.00  0.00     0.138 A 
HETATM   22  C   UNL     1       2.860   2.772  18.162  0.00  0.00     0.090 A 
HETATM   23  N   UNL     1       2.452   3.499  17.078  0.00  0.00    -0.350 N 
HETATM   24  H   UNL     1       2.013   3.137  16.240  0.00  0.00     0.166 HD
HETATM   25  N   UNL     1       2.381   5.797  16.411  0.00  0.00    -0.242 NA
HETATM   26  C   UNL     1       2.690   7.034  16.858  0.00  0.00     0.120 A 
HETATM   27  C   UNL     1       3.290   7.333  18.072  0.00  0.00     0.037 A 
ENDBRANCH  15  18
ENDBRANCH   1  14
BRANCH  10  28
HETATM   28  C   UNL     1       2.367   8.956  27.045  0.00  0.00     0.140 A 
HETATM   29  N   UNL     1       3.221   9.010  28.134  0.00  0.00    -0.338 N 
HETATM   30  H   UNL     1       4.208   9.220  28.093  0.00  0.00     0.167 HD
HETATM   31  C   UNL     1       2.527   8.662  29.271  0.00  0.00     0.063 A 
HETATM   32  C   UNL     1       1.240   8.418  28.811  0.00  0.00     0.088 A 
HETATM   33  C   UNL     1       2.895   8.527  30.614  0.00  0.00     0.035 A 
HETATM   34  N   UNL     1       1.151   8.676  27.470  0.00  0.00    -0.228 NA
HETATM   35  C   UNL     1       0.258   7.958  29.693  0.00  0.00     0.076 A 
HETATM   36  C   UNL     1       0.611   7.795  31.030  0.00  0.00     0.118 A 
HETATM   37  F   UNL     1      -0.308   7.347  31.897  0.00  0.00    -0.206 F 
HETATM   38  C   UNL     1       1.894   8.084  31.492  0.00  0.00     0.044 A 
ENDBRANCH  10  28
TORSDOF 3
ENDMDL
MODEL 6
REMARK VINA RESULT:    -8.620      9.431     12.963
REMARK INTER + INTRA:         -10.979
REMARK INTER:                  -9.990
REMARK INTRA:                  -0.989
REMARK UNBOUND:                -0.847
REMARK  3 active torsions:
REMARK  status: ('A' for Active; 'I' for Inactive)
REMARK    1  A    between atoms: C_10  and  C_11 
REMARK       I    between atoms: C_11  and  N_13 
REMARK    2  A    between atoms: N_13  and  C_14 
REMARK    3  A    between atoms: C_23  and  C_27 
ROOT
HETATM    1  C   UNL     1      -0.129   3.081  16.913  0.00  0.00     0.153 C 
HETATM    2  C   UNL     1       0.379   2.993  18.338  0.00  0.00    -0.020 A 
HETATM    3  C   UNL     1       1.326   4.022  18.568  0.00  0.00    -0.016 A 
HETATM    4  C   UNL     1       0.115   2.003  19.279  0.00  0.00     0.010 A 
HETATM    5  C   UNL     1       0.840   2.011  20.472  0.00  0.00     0.001 A 
HETATM    6  C   UNL     1       1.829   2.975  20.684  0.00  0.00     0.001 A 
HETATM    7  C   UNL     1       2.074   3.971  19.731  0.00  0.00     0.013 A 
HETATM    8  C   UNL     1       0.334   4.473  16.510  0.00  0.00    -0.019 A 
HETATM    9  C   UNL     1       1.305   4.968  17.440  0.00  0.00    -0.003 A 
HETATM   10  C   UNL     1       2.002   6.156  17.148  0.00  0.00     0.022 A 
HETATM   11  C   UNL     1       1.677   6.810  15.935  0.00  0.00     0.016 A 
HETATM   12  C   UNL     1       0.688   6.326  15.061  0.00  0.00     0.002 A 
HETATM   13  C   UNL     1       0.008   5.149  15.343  0.00  0.00     0.010 A 
ENDROOT
BRANCH   1  14
HETATM   14  N   UNL     1      -1.529   2.768  16.736  0.00  0.00    -0.344 N 
HETATM   15  C   UNL     1      -1.933   1.445  16.637  0.00  0.00     0.253 C 
HETATM   16  O   UNL     1      -1.143   0.518  16.492  0.00  0.00    -0.268 OA
HETATM   17  H   UNL     1      -2.194   3.527  16.709  0.00  0.00     0.163 HD
BRANCH  15  18
HETATM   18  C   UNL     1      -3.386   1.159  16.750  0.00  0.00     0.047 A 
HETATM   19  C   UNL     1      -4.122   1.595  17.877  0.00  0.00     0.027 A 
HETATM   20  C   UNL     1      -3.856   2.277  19.102  0.00  0.00     0.033 A 
HETATM   21  C   UNL     1      -5.492   1.342  17.869  0.00  0.00     0.138 A 
HETATM   22  C   UNL     1      -5.041   2.403  19.791  0.00  0.00     0.090 A 
HETATM   23  N   UNL     1      -6.022   1.826  19.033  0.00  0.00    -0.350 N 
HETATM   24  H   UNL     1      -7.007   1.771  19.262  0.00  0.00     0.166 HD
HETATM   25  N   UNL     1      -6.209   0.737  16.909  0.00  0.00    -0.242 NA
HETATM   26  C   UNL     1      -5.464   0.371  15.842  0.00  0.00     0.120 A 
HETATM   27  C   UNL     1      -4.096   0.550  15.708  0.00  0.00     0.037 A 
ENDBRANCH  15  18
ENDBRANCH   1  14
BRANCH  10  28
HETATM   28  C   UNL     1       3.028   6.762  18.018  0.00  0.00     0.140 A 
HETATM   29  N   UNL     1       2.758   7.417  19.208  0.00  0.00    -0.338 N 
HETATM   30  H   UNL     1       1.840   7.551  19.606  0.00  0.00     0.167 HD
HETATM   31  C   UNL     1       3.932   7.917  19.725  0.00  0.00     0.063 A 
HETATM   32  C   UNL     1       4.893   7.520  18.806  0.00  0.00     0.088 A 
HETATM   33  C   UNL     1       4.233   8.668  20.866  0.00  0.00     0.035 A 
HETATM   34  N   UNL     1       4.331   6.757  17.818  0.00  0.00    -0.228 NA
HETATM   35  C   UNL     1       6.222   7.923  18.967  0.00  0.00     0.076 A 
HETATM   36  C   UNL     1       6.537   8.691  20.085  0.00  0.00     0.118 A 
HETATM   37  F   UNL     1       7.802   9.098  20.260  0.00  0.00    -0.206 F 
HETATM   38  C   UNL     1       5.573   9.048  21.026  0.00  0.00     0.044 A 
ENDBRANCH  10  28
TORSDOF 3
ENDMDL
MODEL 7
REMARK VINA RESULT:    -8.490      2.117      2.829
REMARK INTER + INTRA:         -10.827
REMARK INTER:                  -9.801
REMARK INTRA:                  -1.026
REMARK UNBOUND:                -0.847
REMARK  3 active torsions:
REMARK  status: ('A' for Active; 'I' for Inactive)
REMARK    1  A    between atoms: C_10  and  C_11 
REMARK       I    between atoms: C_11  and  N_13 
REMARK    2  A    between atoms: N_13  and  C_14 
REMARK    3  A    between atoms: C_23  and  C_27 
ROOT
HETATM    1  C   UNL     1       3.586   6.322  26.968  0.00  0.00     0.153 C 
HETATM    2  C   UNL     1       3.910   6.979  25.642  0.00  0.00    -0.020 A 
HETATM    3  C   UNL     1       2.903   7.923  25.321  0.00  0.00    -0.016 A 
HETATM    4  C   UNL     1       4.932   6.654  24.756  0.00  0.00     0.010 A 
HETATM    5  C   UNL     1       4.937   7.258  23.497  0.00  0.00     0.001 A 
HETATM    6  C   UNL     1       3.910   8.136  23.138  0.00  0.00     0.001 A 
HETATM    7  C   UNL     1       2.895   8.460  24.046  0.00  0.00     0.013 A 
HETATM    8  C   UNL     1       2.525   7.261  27.522  0.00  0.00    -0.019 A 
HETATM    9  C   UNL     1       2.032   8.125  26.490  0.00  0.00    -0.003 A 
HETATM   10  C   UNL     1       0.911   8.940  26.744  0.00  0.00     0.022 A 
HETATM   11  C   UNL     1       0.344   8.865  28.040  0.00  0.00     0.016 A 
HETATM   12  C   UNL     1       0.875   8.042  29.048  0.00  0.00     0.002 A 
HETATM   13  C   UNL     1       1.973   7.230  28.794  0.00  0.00     0.010 A 
ENDROOT
BRANCH   1  14
HETATM   14  N   UNL     1       4.724   6.034  27.810  0.00  0.00    -0.344 N 
HETATM   15  C   UNL     1       4.805   4.816  28.468  0.00  0.00     0.253 C 
HETATM   16  O   UNL     1       3.862   4.035  28.538  0.00  0.00    -0.268 OA
HETATM   17  H   UNL     1       5.457   6.725  27.884  0.00  0.00     0.163 HD
BRANCH  15  18
HETATM   18  C   UNL     1       6.109   4.448  29.077  0.00  0.00     0.047 A 
HETATM   19  C   UNL     1       6.599   5.143  30.208  0.00  0.00     0.027 A 
HETATM   20  C   UNL     1       6.191   6.245  31.017  0.00  0.00     0.033 A 
HETATM   21  C   UNL     1       7.797   4.688  30.754  0.00  0.00     0.138 A 
HETATM   22  C   UNL     1       7.137   6.432  32.000  0.00  0.00     0.090 A 
HETATM   23  N   UNL     1       8.107   5.484  31.823  0.00  0.00    -0.350 N 
HETATM   24  H   UNL     1       8.932   5.350  32.396  0.00  0.00     0.166 HD
HETATM   25  N   UNL     1       8.548   3.655  30.341  0.00  0.00    -0.242 NA
HETATM   26  C   UNL     1       8.017   3.006  29.281  0.00  0.00     0.120 A 
HETATM   27  C   UNL     1       6.841   3.342  28.628  0.00  0.00     0.037 A 
ENDBRANCH  15  18
ENDBRANCH   1  14
BRANCH  10  28
HETATM   28  C   UNL     1       0.305   9.862  25.766  0.00  0.00     0.140 A 
HETATM   29  N   UNL     1       0.946  10.966  25.228  0.00  0.00    -0.338 N 
HETATM   30  H   UNL     1       1.888  11.258  25.447  0.00  0.00     0.167 HD
HETATM   31  C   UNL     1       0.073  11.641  24.407  0.00  0.00     0.063 A 
HETATM   32  C   UNL     1      -1.091  10.887  24.472  0.00  0.00     0.088 A 
HETATM   33  C   UNL     1       0.182  12.811  23.647  0.00  0.00     0.035 A 
HETATM   34  N   UNL     1      -0.902   9.773  25.244  0.00  0.00    -0.228 NA
HETATM   35  C   UNL     1      -2.243  11.321  23.809  0.00  0.00     0.076 A 
HETATM   36  C   UNL     1      -2.161  12.496  23.066  0.00  0.00     0.118 A 
HETATM   37  F   UNL     1      -3.251  12.940  22.426  0.00  0.00    -0.206 F 
HETATM   38  C   UNL     1      -0.975  13.224  22.970  0.00  0.00     0.044 A 
ENDBRANCH  10  28
TORSDOF 3
ENDMDL
MODEL 8
REMARK VINA RESULT:    -8.452     10.204     14.576
REMARK INTER + INTRA:         -10.781
REMARK INTER:                  -9.639
REMARK INTRA:                  -1.142
REMARK UNBOUND:                -0.847
REMARK  3 active torsions:
REMARK  status: ('A' for Active; 'I' for Inactive)
REMARK    1  A    between atoms: C_10  and  C_11 
REMARK       I    between atoms: C_11  and  N_13 
REMARK    2  A    between atoms: N_13  and  C_14 
REMARK    3  A    between atoms: C_23  and  C_27 
ROOT
HETATM    1  C   UNL     1      -0.007   3.156  16.035  0.00  0.00     0.153 C 
HETATM    2  C   UNL     1       0.109   2.794  17.502  0.00  0.00    -0.020 A 
HETATM    3  C   UNL     1       1.070   3.631  18.123  0.00  0.00    -0.016 A 
HETATM    4  C   UNL     1      -0.489   1.729  18.168  0.00  0.00     0.010 A 
HETATM    5  C   UNL     1      -0.094   1.462  19.480  0.00  0.00     0.001 A 
HETATM    6  C   UNL     1       0.905   2.231  20.082  0.00  0.00     0.001 A 
HETATM    7  C   UNL     1       1.488   3.307  19.401  0.00  0.00     0.013 A 
HETATM    8  C   UNL     1       0.688   4.509  16.000  0.00  0.00    -0.019 A 
HETATM    9  C   UNL     1       1.437   4.720  17.203  0.00  0.00    -0.003 A 
HETATM   10  C   UNL     1       2.307   5.824  17.294  0.00  0.00     0.022 A 
HETATM   11  C   UNL     1       2.372   6.684  16.171  0.00  0.00     0.016 A 
HETATM   12  C   UNL     1       1.593   6.479  15.019  0.00  0.00     0.002 A 
HETATM   13  C   UNL     1       0.743   5.385  14.925  0.00  0.00     0.010 A 
ENDROOT
BRANCH   1  14
HETATM   14  N   UNL     1      -1.341   3.079  15.484  0.00  0.00    -0.344 N 
HETATM   15  C   UNL     1      -1.645   2.102  14.547  0.00  0.00     0.253 C 
HETATM   16  O   UNL     1      -0.787   1.414  14.004  0.00  0.00    -0.268 OA
HETATM   17  H   UNL     1      -2.038   3.732  15.812  0.00  0.00     0.163 HD
BRANCH  15  18
HETATM   18  C   UNL     1      -3.078   1.874  14.230  0.00  0.00     0.047 A 
HETATM   19  C   UNL     1      -3.822   2.842  13.516  0.00  0.00     0.027 A 
HETATM   20  C   UNL     1      -3.598   4.142  12.971  0.00  0.00     0.033 A 
HETATM   21  C   UNL     1      -5.140   2.517  13.204  0.00  0.00     0.138 A 
HETATM   22  C   UNL     1      -4.763   4.564  12.371  0.00  0.00     0.090 A 
HETATM   23  N   UNL     1      -5.690   3.570  12.526  0.00  0.00    -0.350 N 
HETATM   24  H   UNL     1      -6.642   3.574  12.181  0.00  0.00     0.166 HD
HETATM   25  N   UNL     1      -5.796   1.383  13.494  0.00  0.00    -0.242 NA
HETATM   26  C   UNL     1      -5.030   0.480  14.146  0.00  0.00     0.120 A 
HETATM   27  C   UNL     1      -3.709   0.660  14.528  0.00  0.00     0.037 A 
ENDBRANCH  15  18
ENDBRANCH   1  14
BRANCH  10  28
HETATM   28  C   UNL     1       3.136   6.144  18.471  0.00  0.00     0.140 A 
HETATM   29  N   UNL     1       4.459   5.763  18.624  0.00  0.00    -0.338 N 
HETATM   30  H   UNL     1       4.995   5.229  17.954  0.00  0.00     0.167 HD
HETATM   31  C   UNL     1       4.905   6.165  19.862  0.00  0.00     0.063 A 
HETATM   32  C   UNL     1       3.805   6.803  20.419  0.00  0.00     0.088 A 
HETATM   33  C   UNL     1       6.124   6.022  20.534  0.00  0.00     0.035 A 
HETATM   34  N   UNL     1       2.769   6.843  19.526  0.00  0.00    -0.228 NA
HETATM   35  C   UNL     1       3.866   7.284  21.730  0.00  0.00     0.076 A 
HETATM   36  C   UNL     1       5.064   7.131  22.423  0.00  0.00     0.118 A 
HETATM   37  F   UNL     1       5.147   7.575  23.685  0.00  0.00    -0.206 F 
HETATM   38  C   UNL     1       6.177   6.528  21.842  0.00  0.00     0.044 A 
ENDBRANCH  10  28
TORSDOF 3
ENDMDL
MODEL 9
REMARK VINA RESULT:    -8.418      4.573      9.634
REMARK INTER + INTRA:         -10.742
REMARK INTER:                  -9.895
REMARK INTRA:                  -0.847
REMARK UNBOUND:                -0.847
REMARK  3 active torsions:
REMARK  status: ('A' for Active; 'I' for Inactive)
REMARK    1  A    between atoms: C_10  and  C_11 
REMARK       I    between atoms: C_11  and  N_13 
REMARK    2  A    between atoms: N_13  and  C_14 
REMARK    3  A    between atoms: C_23  and  C_27 
ROOT
HETATM    1  C   UNL     1       2.110   7.002  24.703  0.00  0.00     0.153 C 
HETATM    2  C   UNL     1       1.307   8.109  25.355  0.00  0.00    -0.020 A 
HETATM    3  C   UNL     1       1.243   7.889  26.753  0.00  0.00    -0.016 A 
HETATM    4  C   UNL     1       0.593   9.127  24.730  0.00  0.00     0.010 A 
HETATM    5  C   UNL     1      -0.239   9.931  25.512  0.00  0.00     0.001 A 
HETATM    6  C   UNL     1      -0.370   9.681  26.881  0.00  0.00     0.001 A 
HETATM    7  C   UNL     1       0.364   8.659  27.495  0.00  0.00     0.013 A 
HETATM    8  C   UNL     1       2.798   6.376  25.907  0.00  0.00    -0.019 A 
HETATM    9  C   UNL     1       2.179   6.816  27.123  0.00  0.00    -0.003 A 
HETATM   10  C   UNL     1       2.538   6.208  28.342  0.00  0.00     0.022 A 
HETATM   11  C   UNL     1       3.524   5.193  28.288  0.00  0.00     0.016 A 
HETATM   12  C   UNL     1       4.147   4.811  27.087  0.00  0.00     0.002 A 
HETATM   13  C   UNL     1       3.785   5.402  25.884  0.00  0.00     0.010 A 
ENDROOT
BRANCH   1  14
HETATM   14  N   UNL     1       2.946   7.414  23.598  0.00  0.00    -0.344 N 
HETATM   15  C   UNL     1       3.170   6.545  22.541  0.00  0.00     0.253 C 
HETATM   16  O   UNL     1       2.857   5.359  22.578  0.00  0.00    -0.268 OA
HETATM   17  H   UNL     1       3.338   8.344  23.609  0.00  0.00     0.163 HD
BRANCH  15  18
HETATM   18  C   UNL     1       3.783   7.103  21.309  0.00  0.00     0.047 A 
HETATM   19  C   UNL     1       3.250   6.797  20.035  0.00  0.00     0.027 A 
HETATM   20  C   UNL     1       2.199   5.989  19.506  0.00  0.00     0.033 A 
HETATM   21  C   UNL     1       3.846   7.417  18.939  0.00  0.00     0.138 A 
HETATM   22  C   UNL     1       2.195   6.129  18.136  0.00  0.00     0.090 A 
HETATM   23  N   UNL     1       3.203   6.993  17.808  0.00  0.00    -0.350 N 
HETATM   24  H   UNL     1       3.447   7.310  16.877  0.00  0.00     0.166 HD
HETATM   25  N   UNL     1       4.869   8.286  18.943  0.00  0.00    -0.242 NA
HETATM   26  C   UNL     1       5.317   8.569  20.186  0.00  0.00     0.120 A 
HETATM   27  C   UNL     1       4.831   8.030  21.368  0.00  0.00     0.037 A 
ENDBRANCH  15  18
ENDBRANCH   1  14
BRANCH  10  28
HETATM   28  C   UNL     1       1.970   6.564  29.655  0.00  0.00     0.140 A 
HETATM   29  N   UNL     1       2.257   7.732  30.343  0.00  0.00    -0.338 N 
HETATM   30  H   UNL     1       2.882   8.459  30.024  0.00  0.00     0.167 HD
HETATM   31  C   UNL     1       1.614   7.711  31.559  0.00  0.00     0.063 A 
HETATM   32  C   UNL     1       0.932   6.502  31.551  0.00  0.00     0.088 A 
HETATM   33  C   UNL     1       1.576   8.601  32.638  0.00  0.00     0.035 A 
HETATM   34  N   UNL     1       1.104   5.859  30.355  0.00  0.00    -0.228 NA
HETATM   35  C   UNL     1       0.214   6.098  32.680  0.00  0.00     0.076 A 
HETATM   36  C   UNL     1       0.183   6.959  33.774  0.00  0.00     0.118 A 
HETATM   37  F   UNL     1      -0.491   6.593  34.873  0.00  0.00    -0.206 F 
HETATM   38  C   UNL     1       0.835   8.191  33.757  0.00  0.00     0.044 A 
ENDBRANCH  10  28
TORSDOF 3
ENDMDL
