MODEL 1
REMARK VINA RESULT:    -9.156      0.000      0.000
REMARK INTER + INTRA:         -12.243
REMARK INTER:                 -11.845
REMARK INTRA:                  -0.398
REMARK UNBOUND:                -0.946
REMARK  5 active torsions:
REMARK  status: ('A' for Active; 'I' for Inactive)
REMARK    1  A    between atoms: C_5  and  C_6 
REMARK    2  A    between atoms: C_6  and  O_7 
REMARK    3  A    between atoms: C_8  and  C_9 
REMARK    4  A    between atoms: C_16  and  N_17 
REMARK    5  A    between atoms: C_19  and  C_20 
REMARK       I    between atoms: C_20  and  N_22 
ROOT
HETATM    1  C   UNL     1       7.355  14.665  23.022  0.00  0.00    -0.024 A 
HETATM    2  C   UNL     1       8.189  13.564  23.326  0.00  0.00     0.028 A 
HETATM    3  C   UNL     1       7.630  15.295  21.804  0.00  0.00     0.014 A 
HETATM    4  C   UNL     1       8.730  14.939  21.015  0.00  0.00     0.033 A 
HETATM    5  C   UNL     1       9.546  13.873  21.334  0.00  0.00     0.073 A 
HETATM    6  C   UNL     1       9.239  13.119  22.462  0.00  0.00     0.028 A 
HETATM    7  N   UNL     1      10.581  13.620  20.527  0.00  0.00    -0.218 NA
HETATM    8  C   UNL     1      11.333  12.562  20.798  0.00  0.00     0.200 A 
HETATM    9  N   UNL     1      11.080  11.691  21.759  0.00  0.00    -0.212 NA
HETATM   10  C   UNL     1      10.054  11.988  22.598  0.00  0.00     0.140 A 
ENDROOT
BRANCH  10  11
HETATM   11  C   UNL     1       9.835  10.963  23.691  0.00  0.00     0.273 C 
HETATM   12  O   UNL     1      10.634  10.883  24.628  0.00  0.00    -0.266 OA
HETATM   13  N   UNL     1       8.716  10.144  23.601  0.00  0.00    -0.342 N 
HETATM   14  C   UNL     1       8.336   9.174  24.629  0.00  0.00     0.139 C 
HETATM   15  C   UNL     1       7.811  10.092  22.469  0.00  0.00     0.161 C 
HETATM   16  C   UNL     1       7.678   8.038  23.839  0.00  0.00     0.056 C 
HETATM   17  C   UNL     1       7.169   8.758  22.611  0.00  0.00    -0.056 C 
HETATM   18  C   UNL     1       6.584   7.216  24.469  0.00  0.00    -0.020 C 
HETATM   19  C   UNL     1       6.186   8.268  21.839  0.00  0.00    -0.018 C 
HETATM   20  C   UNL     1       5.475   7.002  22.224  0.00  0.00     0.054 C 
HETATM   21  C   UNL     1       5.595   6.709  23.706  0.00  0.00    -0.026 C 
ENDBRANCH  10  11
BRANCH   8  22
HETATM   22  N   UNL     1      12.456  12.358  20.028  0.00  0.00    -0.271 NA
HETATM   23  H   UNL     1      12.373  11.499  19.504  0.00  0.00     0.127 HD
HETATM   24  H   UNL     1      13.296  12.496  20.571  0.00  0.00     0.127 HD
ENDBRANCH   8  22
BRANCH   1  25
HETATM   25  C   UNL     1       6.234  15.084  23.927  0.00  0.00    -0.018 A 
HETATM   26  C   UNL     1       5.118  15.747  23.357  0.00  0.00     0.013 A 
HETATM   27  C   UNL     1       4.021  16.177  24.111  0.00  0.00     0.001 A 
HETATM   28  C   UNL     1       4.013  15.995  25.482  0.00  0.00     0.001 A 
HETATM   29  C   UNL     1       5.088  15.358  26.086  0.00  0.00     0.010 A 
HETATM   30  C   UNL     1       6.183  14.867  25.332  0.00  0.00    -0.024 A 
BRANCH  30  31
HETATM   31  C   UNL     1       7.232  14.136  26.141  0.00  0.00     0.203 C 
BRANCH  31  32
HETATM   32  O   UNL     1       7.597  14.878  27.300  0.00  0.00    -0.396 OA
HETATM   33  H   UNL     1       8.152  15.624  27.015  0.00  0.00     0.209 HD
ENDBRANCH  31  32
ENDBRANCH  30  31
ENDBRANCH   1  25
TORSDOF 5
ENDMDL
MODEL 2
REMARK VINA RESULT:    -8.902      1.726      2.204
REMARK INTER + INTRA:         -11.930
REMARK INTER:                 -10.966
REMARK INTRA:                  -0.963
REMARK UNBOUND:                -0.946
REMARK  5 active torsions:
REMARK  status: ('A' for Active; 'I' for Inactive)
REMARK    1  A    between atoms: C_5  and  C_6 
REMARK    2  A    between atoms: C_6  and  O_7 
REMARK    3  A    between atoms: C_8  and  C_9 
REMARK    4  A    between atoms: C_16  and  N_17 
REMARK    5  A    between atoms: C_19  and  C_20 
REMARK       I    between atoms: C_20  and  N_22 
ROOT
HETATM    1  C   UNL     1       7.516  14.636  23.188  0.00  0.00    -0.024 A 
HETATM    2  C   UNL     1       7.506  13.483  22.370  0.00  0.00     0.028 A 
HETATM    3  C   UNL     1       8.711  15.362  23.170  0.00  0.00     0.014 A 
HETATM    4  C   UNL     1       9.849  14.905  22.495  0.00  0.00     0.033 A 
HETATM    5  C   UNL     1       9.829  13.767  21.714  0.00  0.00     0.073 A 
HETATM    6  C   UNL     1       8.628  13.077  21.581  0.00  0.00     0.028 A 
HETATM    7  N   UNL     1      10.969  13.402  21.121  0.00  0.00    -0.218 NA
HETATM    8  C   UNL     1      10.941  12.341  20.324  0.00  0.00     0.200 A 
HETATM    9  N   UNL     1       9.845  11.674  20.008  0.00  0.00    -0.212 NA
HETATM   10  C   UNL     1       8.705  12.027  20.656  0.00  0.00     0.140 A 
ENDROOT
BRANCH  10  11
HETATM   11  C   UNL     1       7.494  11.205  20.268  0.00  0.00     0.273 C 
HETATM   12  O   UNL     1       6.943  11.398  19.180  0.00  0.00    -0.266 OA
HETATM   13  N   UNL     1       7.047  10.242  21.163  0.00  0.00    -0.342 N 
HETATM   14  C   UNL     1       5.946   9.320  20.880  0.00  0.00     0.139 C 
HETATM   15  C   UNL     1       7.560  10.050  22.506  0.00  0.00     0.161 C 
HETATM   16  C   UNL     1       5.297   9.090  22.248  0.00  0.00     0.056 C 
HETATM   17  C   UNL     1       6.450   9.339  23.193  0.00  0.00    -0.056 C 
HETATM   18  C   UNL     1       4.629   7.774  22.554  0.00  0.00    -0.020 C 
HETATM   19  C   UNL     1       6.473   8.866  24.449  0.00  0.00    -0.018 C 
HETATM   20  C   UNL     1       5.372   7.974  24.947  0.00  0.00     0.054 C 
HETATM   21  C   UNL     1       4.635   7.290  23.813  0.00  0.00    -0.026 C 
ENDBRANCH  10  11
BRANCH   8  22
HETATM   22  N   UNL     1      12.133  11.907  19.792  0.00  0.00    -0.271 NA
HETATM   23  H   UNL     1      12.044  11.763  18.797  0.00  0.00     0.127 HD
HETATM   24  H   UNL     1      12.520  11.152  20.341  0.00  0.00     0.127 HD
ENDBRANCH   8  22
BRANCH   1  25
HETATM   25  C   UNL     1       6.311  15.061  23.973  0.00  0.00    -0.018 A 
HETATM   26  C   UNL     1       5.255  15.715  23.290  0.00  0.00     0.013 A 
HETATM   27  C   UNL     1       4.088  16.149  23.927  0.00  0.00     0.001 A 
HETATM   28  C   UNL     1       3.946  15.981  25.292  0.00  0.00     0.001 A 
HETATM   29  C   UNL     1       4.957  15.353  26.007  0.00  0.00     0.010 A 
HETATM   30  C   UNL     1       6.122  14.858  25.369  0.00  0.00    -0.024 A 
BRANCH  30  31
HETATM   31  C   UNL     1       7.087  14.138  26.285  0.00  0.00     0.203 C 
BRANCH  31  32
HETATM   32  O   UNL     1       7.409  14.934  27.421  0.00  0.00    -0.396 OA
HETATM   33  H   UNL     1       6.744  14.757  28.109  0.00  0.00     0.209 HD
ENDBRANCH  31  32
ENDBRANCH  30  31
ENDBRANCH   1  25
TORSDOF 5
ENDMDL
MODEL 3
REMARK VINA RESULT:    -8.710      3.043      4.258
REMARK INTER + INTRA:         -11.693
REMARK INTER:                 -10.631
REMARK INTRA:                  -1.062
REMARK UNBOUND:                -0.946
REMARK  5 active torsions:
REMARK  status: ('A' for Active; 'I' for Inactive)
REMARK    1  A    between atoms: C_5  and  C_6 
REMARK    2  A    between atoms: C_6  and  O_7 
REMARK    3  A    between atoms: C_8  and  C_9 
REMARK    4  A    between atoms: C_16  and  N_17 
REMARK    5  A    between atoms: C_19  and  C_20 
REMARK       I    between atoms: C_20  and  N_22 
ROOT
HETATM    1  C   UNL     1       3.693  14.699  24.598  0.00  0.00    -0.024 A 
HETATM    2  C   UNL     1       4.605  13.643  24.370  0.00  0.00     0.028 A 
HETATM    3  C   UNL     1       4.020  15.907  23.975  0.00  0.00     0.014 A 
HETATM    4  C   UNL     1       5.226  16.087  23.288  0.00  0.00     0.033 A 
HETATM    5  C   UNL     1       6.116  15.051  23.088  0.00  0.00     0.073 A 
HETATM    6  C   UNL     1       5.779  13.789  23.565  0.00  0.00     0.028 A 
HETATM    7  N   UNL     1       7.248  15.324  22.433  0.00  0.00    -0.218 NA
HETATM    8  C   UNL     1       8.080  14.319  22.189  0.00  0.00     0.200 A 
HETATM    9  N   UNL     1       7.826  13.053  22.472  0.00  0.00    -0.212 NA
HETATM   10  C   UNL     1       6.694  12.800  23.178  0.00  0.00     0.140 A 
ENDROOT
BRANCH  10  11
HETATM   11  C   UNL     1       6.477  11.334  23.492  0.00  0.00     0.273 C 
HETATM   12  O   UNL     1       6.857  10.874  24.572  0.00  0.00    -0.266 OA
HETATM   13  N   UNL     1       5.839  10.552  22.538  0.00  0.00    -0.342 N 
HETATM   14  C   UNL     1       5.488   9.146  22.743  0.00  0.00     0.139 C 
HETATM   15  C   UNL     1       5.485  10.991  21.201  0.00  0.00     0.161 C 
HETATM   16  C   UNL     1       5.611   8.527  21.348  0.00  0.00     0.056 C 
HETATM   17  C   UNL     1       5.358   9.715  20.449  0.00  0.00    -0.056 C 
HETATM   18  C   UNL     1       4.735   7.364  20.959  0.00  0.00    -0.020 C 
HETATM   19  C   UNL     1       4.964   9.587  19.172  0.00  0.00    -0.018 C 
HETATM   20  C   UNL     1       4.666   8.230  18.600  0.00  0.00     0.054 C 
HETATM   21  C   UNL     1       4.339   7.216  19.678  0.00  0.00    -0.026 C 
ENDBRANCH  10  11
BRANCH   8  22
HETATM   22  N   UNL     1       9.290  14.615  21.604  0.00  0.00    -0.271 NA
HETATM   23  H   UNL     1       9.248  14.456  20.608  0.00  0.00     0.127 HD
HETATM   24  H   UNL     1      10.051  14.191  22.114  0.00  0.00     0.127 HD
ENDBRANCH   8  22
BRANCH   1  25
HETATM   25  C   UNL     1       2.447  14.507  25.411  0.00  0.00    -0.018 A 
HETATM   26  C   UNL     1       2.428  14.993  26.743  0.00  0.00     0.013 A 
HETATM   27  C   UNL     1       1.318  14.867  27.585  0.00  0.00     0.001 A 
HETATM   28  C   UNL     1       0.186  14.210  27.138  0.00  0.00     0.001 A 
HETATM   29  C   UNL     1       0.160  13.710  25.843  0.00  0.00     0.010 A 
HETATM   30  C   UNL     1       1.255  13.876  24.959  0.00  0.00    -0.024 A 
BRANCH  30  31
HETATM   31  C   UNL     1       1.030  13.334  23.565  0.00  0.00     0.203 C 
BRANCH  31  32
HETATM   32  O   UNL     1       1.419  11.967  23.475  0.00  0.00    -0.396 OA
HETATM   33  H   UNL     1       2.384  11.922  23.594  0.00  0.00     0.209 HD
ENDBRANCH  31  32
ENDBRANCH  30  31
ENDBRANCH   1  25
TORSDOF 5
ENDMDL
MODEL 4
REMARK VINA RESULT:    -8.595      3.170      6.066
REMARK INTER + INTRA:         -11.550
REMARK INTER:                 -10.815
REMARK INTRA:                  -0.736
REMARK UNBOUND:                -0.946
REMARK  5 active torsions:
REMARK  status: ('A' for Active; 'I' for Inactive)
REMARK    1  A    between atoms: C_5  and  C_6 
REMARK    2  A    between atoms: C_6  and  O_7 
REMARK    3  A    between atoms: C_8  and  C_9 
REMARK    4  A    between atoms: C_16  and  N_17 
REMARK    5  A    between atoms: C_19  and  C_20 
REMARK       I    between atoms: C_20  and  N_22 
ROOT
HETATM    1  C   UNL     1       9.610  13.018  21.686  0.00  0.00    -0.024 A 
HETATM    2  C   UNL     1       8.508  12.318  22.228  0.00  0.00     0.028 A 
HETATM    3  C   UNL     1       9.681  13.016  20.289  0.00  0.00     0.014 A 
HETATM    4  C   UNL     1       8.799  12.268  19.500  0.00  0.00     0.033 A 
HETATM    5  C   UNL     1       7.738  11.575  20.045  0.00  0.00     0.073 A 
HETATM    6  C   UNL     1       7.533  11.653  21.419  0.00  0.00     0.028 A 
HETATM    7  N   UNL     1       6.960  10.876  19.214  0.00  0.00    -0.218 NA
HETATM    8  C   UNL     1       5.905  10.255  19.726  0.00  0.00     0.200 A 
HETATM    9  N   UNL     1       5.522  10.351  20.987  0.00  0.00    -0.212 NA
HETATM   10  C   UNL     1       6.348  11.025  21.828  0.00  0.00     0.140 A 
ENDROOT
BRANCH  10  11
HETATM   11  C   UNL     1       5.864  11.073  23.262  0.00  0.00     0.273 C 
HETATM   12  O   UNL     1       5.789  10.032  23.921  0.00  0.00    -0.266 OA
HETATM   13  N   UNL     1       5.526  12.312  23.793  0.00  0.00    -0.342 N 
HETATM   14  C   UNL     1       5.127  12.516  25.186  0.00  0.00     0.139 C 
HETATM   15  C   UNL     1       5.464  13.551  23.043  0.00  0.00     0.161 C 
HETATM   16  C   UNL     1       4.128  13.674  25.119  0.00  0.00     0.056 C 
HETATM   17  C   UNL     1       4.569  14.403  23.871  0.00  0.00    -0.056 C 
HETATM   18  C   UNL     1       3.998  14.627  26.279  0.00  0.00    -0.020 C 
HETATM   19  C   UNL     1       4.262  15.688  23.635  0.00  0.00    -0.018 C 
HETATM   20  C   UNL     1       3.527  16.497  24.666  0.00  0.00     0.054 C 
HETATM   21  C   UNL     1       3.681  15.919  26.059  0.00  0.00    -0.026 C 
ENDBRANCH  10  11
BRANCH   8  22
HETATM   22  N   UNL     1       5.161   9.456  18.888  0.00  0.00    -0.271 NA
HETATM   23  H   UNL     1       4.840   9.985  18.090  0.00  0.00     0.127 HD
HETATM   24  H   UNL     1       4.474   8.929  19.408  0.00  0.00     0.127 HD
ENDBRANCH   8  22
BRANCH   1  25
HETATM   25  C   UNL     1      10.594  13.742  22.555  0.00  0.00    -0.018 A 
HETATM   26  C   UNL     1      11.551  12.981  23.272  0.00  0.00     0.013 A 
HETATM   27  C   UNL     1      12.513  13.558  24.108  0.00  0.00     0.001 A 
HETATM   28  C   UNL     1      12.531  14.928  24.294  0.00  0.00     0.001 A 
HETATM   29  C   UNL     1      11.608  15.715  23.620  0.00  0.00     0.010 A 
HETATM   30  C   UNL     1      10.662  15.153  22.726  0.00  0.00    -0.024 A 
BRANCH  30  31
HETATM   31  C   UNL     1       9.780  16.161  22.022  0.00  0.00     0.203 C 
BRANCH  31  32
HETATM   32  O   UNL     1      10.328  16.530  20.761  0.00  0.00    -0.396 OA
HETATM   33  H   UNL     1       9.736  16.191  20.067  0.00  0.00     0.209 HD
ENDBRANCH  31  32
ENDBRANCH  30  31
ENDBRANCH   1  25
TORSDOF 5
ENDMDL
MODEL 5
REMARK VINA RESULT:    -8.472      2.131      6.195
REMARK INTER + INTRA:         -11.399
REMARK INTER:                 -10.201
REMARK INTRA:                  -1.198
REMARK UNBOUND:                -0.946
REMARK  5 active torsions:
REMARK  status: ('A' for Active; 'I' for Inactive)
REMARK    1  A    between atoms: C_5  and  C_6 
REMARK    2  A    between atoms: C_6  and  O_7 
REMARK    3  A    between atoms: C_8  and  C_9 
REMARK    4  A    between atoms: C_16  and  N_17 
REMARK    5  A    between atoms: C_19  and  C_20 
REMARK       I    between atoms: C_20  and  N_22 
ROOT
HETATM    1  C   UNL     1       8.363  10.218  22.163  0.00  0.00    -0.024 A 
HETATM    2  C   UNL     1       8.481  11.304  23.060  0.00  0.00     0.028 A 
HETATM    3  C   UNL     1       9.400  10.107  21.232  0.00  0.00     0.014 A 
HETATM    4  C   UNL     1      10.404  11.075  21.118  0.00  0.00     0.033 A 
HETATM    5  C   UNL     1      10.497  12.141  21.990  0.00  0.00     0.073 A 
HETATM    6  C   UNL     1       9.572  12.228  23.026  0.00  0.00     0.028 A 
HETATM    7  N   UNL     1      11.481  13.021  21.791  0.00  0.00    -0.218 NA
HETATM    8  C   UNL     1      11.607  14.015  22.661  0.00  0.00     0.200 A 
HETATM    9  N   UNL     1      10.882  14.145  23.758  0.00  0.00    -0.212 NA
HETATM   10  C   UNL     1       9.856  13.270  23.920  0.00  0.00     0.140 A 
ENDROOT
BRANCH  10  11
HETATM   11  C   UNL     1       9.049  13.491  25.182  0.00  0.00     0.273 C 
HETATM   12  O   UNL     1       9.431  13.002  26.249  0.00  0.00    -0.266 OA
HETATM   13  N   UNL     1       7.895  14.258  25.090  0.00  0.00    -0.342 N 
HETATM   14  C   UNL     1       7.069  14.623  26.243  0.00  0.00     0.139 C 
HETATM   15  C   UNL     1       7.318  14.751  23.854  0.00  0.00     0.161 C 
HETATM   16  C   UNL     1       5.648  14.679  25.676  0.00  0.00     0.056 C 
HETATM   17  C   UNL     1       5.898  15.001  24.220  0.00  0.00    -0.056 C 
HETATM   18  C   UNL     1       4.637  15.627  26.267  0.00  0.00    -0.020 C 
HETATM   19  C   UNL     1       4.962  15.543  23.426  0.00  0.00    -0.018 C 
HETATM   20  C   UNL     1       3.627  15.945  23.987  0.00  0.00     0.054 C 
HETATM   21  C   UNL     1       3.684  16.173  25.485  0.00  0.00    -0.026 C 
ENDBRANCH  10  11
BRANCH   8  22
HETATM   22  N   UNL     1      12.558  14.977  22.403  0.00  0.00    -0.271 NA
HETATM   23  H   UNL     1      13.477  14.563  22.363  0.00  0.00     0.127 HD
HETATM   24  H   UNL     1      12.431  15.780  23.003  0.00  0.00     0.127 HD
ENDBRANCH   8  22
BRANCH   1  25
HETATM   25  C   UNL     1       7.229   9.240  22.248  0.00  0.00    -0.018 A 
HETATM   26  C   UNL     1       7.336   8.159  23.159  0.00  0.00     0.013 A 
HETATM   27  C   UNL     1       6.336   7.193  23.317  0.00  0.00     0.001 A 
HETATM   28  C   UNL     1       5.197   7.248  22.535  0.00  0.00     0.001 A 
HETATM   29  C   UNL     1       5.050   8.284  21.622  0.00  0.00     0.010 A 
HETATM   30  C   UNL     1       6.028   9.301  21.488  0.00  0.00    -0.024 A 
BRANCH  30  31
HETATM   31  C   UNL     1       5.675  10.391  20.499  0.00  0.00     0.203 C 
BRANCH  31  32
HETATM   32  O   UNL     1       6.154  10.077  19.195  0.00  0.00    -0.396 OA
HETATM   33  H   UNL     1       7.106   9.887  19.264  0.00  0.00     0.209 HD
ENDBRANCH  31  32
ENDBRANCH  30  31
ENDBRANCH   1  25
TORSDOF 5
ENDMDL
MODEL 6
REMARK VINA RESULT:    -8.326      6.756      9.015
REMARK INTER + INTRA:         -11.219
REMARK INTER:                 -10.395
REMARK INTRA:                  -0.823
REMARK UNBOUND:                -0.946
REMARK  5 active torsions:
REMARK  status: ('A' for Active; 'I' for Inactive)
REMARK    1  A    between atoms: C_5  and  C_6 
REMARK    2  A    between atoms: C_6  and  O_7 
REMARK    3  A    between atoms: C_8  and  C_9 
REMARK    4  A    between atoms: C_16  and  N_17 
REMARK    5  A    between atoms: C_19  and  C_20 
REMARK       I    between atoms: C_20  and  N_22 
ROOT
HETATM    1  C   UNL     1       2.471  13.326  24.656  0.00  0.00    -0.024 A 
HETATM    2  C   UNL     1       1.355  12.746  25.303  0.00  0.00     0.028 A 
HETATM    3  C   UNL     1       2.228  13.784  23.357  0.00  0.00     0.014 A 
HETATM    4  C   UNL     1       1.008  13.562  22.707  0.00  0.00     0.033 A 
HETATM    5  C   UNL     1      -0.067  12.977  23.345  0.00  0.00     0.073 A 
HETATM    6  C   UNL     1       0.071  12.627  24.685  0.00  0.00     0.028 A 
HETATM    7  N   UNL     1      -1.184  12.794  22.637  0.00  0.00    -0.218 NA
HETATM    8  C   UNL     1      -2.238  12.285  23.263  0.00  0.00     0.200 A 
HETATM    9  N   UNL     1      -2.285  12.029  24.558  0.00  0.00    -0.212 NA
HETATM   10  C   UNL     1      -1.128  12.175  25.253  0.00  0.00     0.140 A 
ENDROOT
BRANCH  10  11
HETATM   11  C   UNL     1      -1.245  11.840  26.725  0.00  0.00     0.273 C 
HETATM   12  O   UNL     1      -1.347  12.746  27.557  0.00  0.00    -0.266 OA
HETATM   13  N   UNL     1      -1.243  10.499  27.089  0.00  0.00    -0.342 N 
HETATM   14  C   UNL     1      -1.436  10.030  28.462  0.00  0.00     0.139 C 
HETATM   15  C   UNL     1      -0.996   9.391  26.187  0.00  0.00     0.161 C 
HETATM   16  C   UNL     1      -0.588   8.758  28.541  0.00  0.00     0.056 C 
HETATM   17  C   UNL     1      -0.568   8.299  27.101  0.00  0.00    -0.056 C 
HETATM   18  C   UNL     1      -0.999   7.633  29.456  0.00  0.00    -0.020 C 
HETATM   19  C   UNL     1      -0.300   7.033  26.747  0.00  0.00    -0.018 C 
HETATM   20  C   UNL     1      -0.093   5.977  27.796  0.00  0.00     0.054 C 
HETATM   21  C   UNL     1      -0.728   6.355  29.119  0.00  0.00    -0.026 C 
ENDBRANCH  10  11
BRANCH   8  22
HETATM   22  N   UNL     1      -3.356  12.003  22.511  0.00  0.00    -0.271 NA
HETATM   23  H   UNL     1      -4.159  11.871  23.110  0.00  0.00     0.127 HD
HETATM   24  H   UNL     1      -3.160  11.287  21.826  0.00  0.00     0.127 HD
ENDBRANCH   8  22
BRANCH   1  25
HETATM   25  C   UNL     1       3.796  13.475  25.343  0.00  0.00    -0.018 A 
HETATM   26  C   UNL     1       4.464  12.305  25.785  0.00  0.00     0.013 A 
HETATM   27  C   UNL     1       5.703  12.334  26.434  0.00  0.00     0.001 A 
HETATM   28  C   UNL     1       6.310  13.547  26.705  0.00  0.00     0.001 A 
HETATM   29  C   UNL     1       5.690  14.721  26.299  0.00  0.00     0.010 A 
HETATM   30  C   UNL     1       4.462  14.708  25.592  0.00  0.00    -0.024 A 
BRANCH  30  31
HETATM   31  C   UNL     1       3.965  16.071  25.163  0.00  0.00     0.203 C 
BRANCH  31  32
HETATM   32  O   UNL     1       4.376  16.373  23.833  0.00  0.00    -0.396 OA
HETATM   33  H   UNL     1       4.022  17.250  23.603  0.00  0.00     0.209 HD
ENDBRANCH  31  32
ENDBRANCH  30  31
ENDBRANCH   1  25
TORSDOF 5
ENDMDL
MODEL 7
REMARK VINA RESULT:    -8.290      4.897      6.256
REMARK INTER + INTRA:         -11.175
REMARK INTER:                 -10.069
REMARK INTRA:                  -1.106
REMARK UNBOUND:                -0.946
REMARK  5 active torsions:
REMARK  status: ('A' for Active; 'I' for Inactive)
REMARK    1  A    between atoms: C_5  and  C_6 
REMARK    2  A    between atoms: C_6  and  O_7 
REMARK    3  A    between atoms: C_8  and  C_9 
REMARK    4  A    between atoms: C_16  and  N_17 
REMARK    5  A    between atoms: C_19  and  C_20 
REMARK       I    between atoms: C_20  and  N_22 
ROOT
HETATM    1  C   UNL     1       1.287  13.277  23.722  0.00  0.00    -0.024 A 
HETATM    2  C   UNL     1       2.354  12.495  23.225  0.00  0.00     0.028 A 
HETATM    3  C   UNL     1       1.609  14.610  23.997  0.00  0.00     0.014 A 
HETATM    4  C   UNL     1       2.921  15.091  23.908  0.00  0.00     0.033 A 
HETATM    5  C   UNL     1       3.957  14.310  23.438  0.00  0.00     0.073 A 
HETATM    6  C   UNL     1       3.671  13.015  23.016  0.00  0.00     0.028 A 
HETATM    7  N   UNL     1       5.178  14.852  23.405  0.00  0.00    -0.218 NA
HETATM    8  C   UNL     1       6.165  14.124  22.900  0.00  0.00     0.200 A 
HETATM    9  N   UNL     1       6.010  12.934  22.348  0.00  0.00    -0.212 NA
HETATM   10  C   UNL     1       4.774  12.377  22.433  0.00  0.00     0.140 A 
ENDROOT
BRANCH  10  11
HETATM   11  C   UNL     1       4.671  11.003  21.806  0.00  0.00     0.273 C 
HETATM   12  O   UNL     1       4.507  10.894  20.587  0.00  0.00    -0.266 OA
HETATM   13  N   UNL     1       4.777   9.897  22.640  0.00  0.00    -0.342 N 
HETATM   14  C   UNL     1       4.783   8.515  22.158  0.00  0.00     0.139 C 
HETATM   15  C   UNL     1       4.838   9.948  24.088  0.00  0.00     0.161 C 
HETATM   16  C   UNL     1       4.105   7.729  23.284  0.00  0.00     0.056 C 
HETATM   17  C   UNL     1       4.399   8.587  24.493  0.00  0.00    -0.056 C 
HETATM   18  C   UNL     1       4.489   6.294  23.540  0.00  0.00    -0.020 C 
HETATM   19  C   UNL     1       4.362   8.110  25.747  0.00  0.00    -0.018 C 
HETATM   20  C   UNL     1       4.111   6.650  25.999  0.00  0.00     0.054 C 
HETATM   21  C   UNL     1       4.448   5.797  24.793  0.00  0.00    -0.026 C 
ENDBRANCH  10  11
BRANCH   8  22
HETATM   22  N   UNL     1       7.439  14.644  22.956  0.00  0.00    -0.271 NA
HETATM   23  H   UNL     1       7.415  15.604  23.265  0.00  0.00     0.127 HD
HETATM   24  H   UNL     1       7.951  14.437  22.110  0.00  0.00     0.127 HD
ENDBRANCH   8  22
BRANCH   1  25
HETATM   25  C   UNL     1      -0.094  12.717  23.891  0.00  0.00    -0.018 A 
HETATM   26  C   UNL     1      -0.488  12.266  25.177  0.00  0.00     0.013 A 
HETATM   27  C   UNL     1      -1.752  11.729  25.442  0.00  0.00     0.001 A 
HETATM   28  C   UNL     1      -2.667  11.583  24.416  0.00  0.00     0.001 A 
HETATM   29  C   UNL     1      -2.325  12.003  23.137  0.00  0.00     0.010 A 
HETATM   30  C   UNL     1      -1.069  12.599  22.861  0.00  0.00    -0.024 A 
BRANCH  30  31
HETATM   31  C   UNL     1      -0.889  13.063  21.433  0.00  0.00     0.203 C 
BRANCH  31  32
HETATM   32  O   UNL     1      -2.127  13.052  20.729  0.00  0.00    -0.396 OA
HETATM   33  H   UNL     1      -2.201  13.890  20.240  0.00  0.00     0.209 HD
ENDBRANCH  31  32
ENDBRANCH  30  31
ENDBRANCH   1  25
TORSDOF 5
ENDMDL
MODEL 8
REMARK VINA RESULT:    -8.263      3.097      6.078
REMARK INTER + INTRA:         -11.141
REMARK INTER:                 -10.348
REMARK INTRA:                  -0.792
REMARK UNBOUND:                -0.946
REMARK  5 active torsions:
REMARK  status: ('A' for Active; 'I' for Inactive)
REMARK    1  A    between atoms: C_5  and  C_6 
REMARK    2  A    between atoms: C_6  and  O_7 
REMARK    3  A    between atoms: C_8  and  C_9 
REMARK    4  A    between atoms: C_16  and  N_17 
REMARK    5  A    between atoms: C_19  and  C_20 
REMARK       I    between atoms: C_20  and  N_22 
ROOT
HETATM    1  C   UNL     1       9.637  12.624  21.938  0.00  0.00    -0.024 A 
HETATM    2  C   UNL     1       8.444  12.020  22.395  0.00  0.00     0.028 A 
HETATM    3  C   UNL     1       9.787  12.659  20.549  0.00  0.00     0.014 A 
HETATM    4  C   UNL     1       8.884  12.026  19.687  0.00  0.00     0.033 A 
HETATM    5  C   UNL     1       7.731  11.424  20.149  0.00  0.00     0.073 A 
HETATM    6  C   UNL     1       7.457  11.479  21.512  0.00  0.00     0.028 A 
HETATM    7  N   UNL     1       6.938  10.832  19.252  0.00  0.00    -0.218 NA
HETATM    8  C   UNL     1       5.801  10.302  19.684  0.00  0.00     0.200 A 
HETATM    9  N   UNL     1       5.357  10.395  20.926  0.00  0.00    -0.212 NA
HETATM   10  C   UNL     1       6.196  10.957  21.834  0.00  0.00     0.140 A 
ENDROOT
BRANCH  10  11
HETATM   11  C   UNL     1       5.638  11.009  23.240  0.00  0.00     0.273 C 
HETATM   12  O   UNL     1       5.459   9.962  23.869  0.00  0.00    -0.266 OA
HETATM   13  N   UNL     1       5.353  12.256  23.783  0.00  0.00    -0.342 N 
HETATM   14  C   UNL     1       4.893  12.457  25.157  0.00  0.00     0.139 C 
HETATM   15  C   UNL     1       5.413  13.512  23.060  0.00  0.00     0.161 C 
HETATM   16  C   UNL     1       3.977  13.681  25.065  0.00  0.00     0.056 C 
HETATM   17  C   UNL     1       4.533  14.404  23.860  0.00  0.00    -0.056 C 
HETATM   18  C   UNL     1       3.847  14.616  26.239  0.00  0.00    -0.020 C 
HETATM   19  C   UNL     1       4.324  15.712  23.639  0.00  0.00    -0.018 C 
HETATM   20  C   UNL     1       3.588  16.546  24.649  0.00  0.00     0.054 C 
HETATM   21  C   UNL     1       3.627  15.931  26.034  0.00  0.00    -0.026 C 
ENDBRANCH  10  11
BRANCH   8  22
HETATM   22  N   UNL     1       5.032   9.606  18.779  0.00  0.00    -0.271 NA
HETATM   23  H   UNL     1       5.556   9.426  17.935  0.00  0.00     0.127 HD
HETATM   24  H   UNL     1       4.119  10.028  18.682  0.00  0.00     0.127 HD
ENDBRANCH   8  22
BRANCH   1  25
HETATM   25  C   UNL     1      10.636  13.221  22.886  0.00  0.00    -0.018 A 
HETATM   26  C   UNL     1      10.610  14.622  23.101  0.00  0.00     0.013 A 
HETATM   27  C   UNL     1      11.495  15.277  23.964  0.00  0.00     0.001 A 
HETATM   28  C   UNL     1      12.475  14.557  24.621  0.00  0.00     0.001 A 
HETATM   29  C   UNL     1      12.546  13.183  24.436  0.00  0.00     0.010 A 
HETATM   30  C   UNL     1      11.624  12.495  23.608  0.00  0.00    -0.024 A 
BRANCH  30  31
HETATM   31  C   UNL     1      11.800  10.993  23.576  0.00  0.00     0.203 C 
BRANCH  31  32
HETATM   32  O   UNL     1      11.359  10.397  24.792  0.00  0.00    -0.396 OA
HETATM   33  H   UNL     1      11.537   9.442  24.739  0.00  0.00     0.209 HD
ENDBRANCH  31  32
ENDBRANCH  30  31
ENDBRANCH   1  25
TORSDOF 5
ENDMDL
MODEL 9
REMARK VINA RESULT:    -8.170      4.945      6.370
REMARK INTER + INTRA:         -11.026
REMARK INTER:                 -10.080
REMARK INTRA:                  -0.946
REMARK UNBOUND:                -0.946
REMARK  5 active torsions:
REMARK  status: ('A' for Active; 'I' for Inactive)
REMARK    1  A    between atoms: C_5  and  C_6 
REMARK    2  A    between atoms: C_6  and  O_7 
REMARK    3  A    between atoms: C_8  and  C_9 
REMARK    4  A    between atoms: C_16  and  N_17 
REMARK    5  A    between atoms: C_19  and  C_20 
REMARK       I    between atoms: C_20  and  N_22 
ROOT
HETATM    1  C   UNL     1       1.149  13.251  23.934  0.00  0.00    -0.024 A 
HETATM    2  C   UNL     1       2.320  12.475  24.090  0.00  0.00     0.028 A 
HETATM    3  C   UNL     1       1.369  14.606  23.670  0.00  0.00     0.014 A 
HETATM    4  C   UNL     1       2.651  15.169  23.690  0.00  0.00     0.033 A 
HETATM    5  C   UNL     1       3.785  14.402  23.862  0.00  0.00     0.073 A 
HETATM    6  C   UNL     1       3.638  13.024  23.991  0.00  0.00     0.028 A 
HETATM    7  N   UNL     1       4.963  15.031  23.883  0.00  0.00    -0.218 NA
HETATM    8  C   UNL     1       6.059  14.291  23.991  0.00  0.00     0.200 A 
HETATM    9  N   UNL     1       6.071  12.970  23.991  0.00  0.00    -0.212 NA
HETATM   10  C   UNL     1       4.865  12.347  24.018  0.00  0.00     0.140 A 
ENDROOT
BRANCH  10  11
HETATM   11  C   UNL     1       4.951  10.836  24.045  0.00  0.00     0.273 C 
HETATM   12  O   UNL     1       5.200  10.253  25.104  0.00  0.00    -0.266 OA
HETATM   13  N   UNL     1       4.732  10.150  22.857  0.00  0.00    -0.342 N 
HETATM   14  C   UNL     1       4.698   8.690  22.756  0.00  0.00     0.139 C 
HETATM   15  C   UNL     1       4.565  10.769  21.555  0.00  0.00     0.161 C 
HETATM   16  C   UNL     1       5.253   8.403  21.358  0.00  0.00     0.056 C 
HETATM   17  C   UNL     1       4.909   9.672  20.613  0.00  0.00    -0.056 C 
HETATM   18  C   UNL     1       4.785   7.190  20.595  0.00  0.00    -0.020 C 
HETATM   19  C   UNL     1       4.830   9.727  19.274  0.00  0.00    -0.018 C 
HETATM   20  C   UNL     1       4.994   8.482  18.449  0.00  0.00     0.054 C 
HETATM   21  C   UNL     1       4.709   7.227  19.250  0.00  0.00    -0.026 C 
ENDBRANCH  10  11
BRANCH   8  22
HETATM   22  N   UNL     1       7.265  14.944  24.112  0.00  0.00    -0.271 NA
HETATM   23  H   UNL     1       8.005  14.398  23.695  0.00  0.00     0.127 HD
HETATM   24  H   UNL     1       7.403  15.276  25.056  0.00  0.00     0.127 HD
ENDBRANCH   8  22
BRANCH   1  25
HETATM   25  C   UNL     1      -0.220  12.641  24.002  0.00  0.00    -0.018 A 
HETATM   26  C   UNL     1      -0.691  12.175  25.255  0.00  0.00     0.013 A 
HETATM   27  C   UNL     1      -1.951  11.593  25.428  0.00  0.00     0.001 A 
HETATM   28  C   UNL     1      -2.783  11.416  24.337  0.00  0.00     0.001 A 
HETATM   29  C   UNL     1      -2.362  11.849  23.087  0.00  0.00     0.010 A 
HETATM   30  C   UNL     1      -1.111  12.490  22.903  0.00  0.00    -0.024 A 
BRANCH  30  31
HETATM   31  C   UNL     1      -0.843  12.962  21.491  0.00  0.00     0.203 C 
BRANCH  31  32
HETATM   32  O   UNL     1      -2.046  13.018  20.731  0.00  0.00    -0.396 OA
HETATM   33  H   UNL     1      -2.794  12.940  21.348  0.00  0.00     0.209 HD
ENDBRANCH  31  32
ENDBRANCH  30  31
ENDBRANCH   1  25
TORSDOF 5
ENDMDL
