REMARK  5 active torsions:
REMARK  status: ('A' for Active; 'I' for Inactive)
REMARK    1  A    between atoms: C_5  and  C_6 
REMARK    2  A    between atoms: C_6  and  O_7 
REMARK    3  A    between atoms: C_8  and  C_9 
REMARK    4  A    between atoms: C_16  and  N_17 
REMARK    5  A    between atoms: C_19  and  C_20 
REMARK       I    between atoms: C_20  and  N_22 
ROOT
HETATM    1  C   UNL     1      -2.875  -0.178  -0.339  0.00  0.00    -0.024 A 
HETATM    2  C   UNL     1      -3.642   0.990  -0.124  0.00  0.00     0.028 A 
HETATM    3  C   UNL     1      -3.608  -1.301  -0.735  0.00  0.00     0.014 A 
HETATM    4  C   UNL     1      -5.007  -1.296  -0.785  0.00  0.00     0.033 A 
HETATM    5  C   UNL     1      -5.744  -0.152  -0.555  0.00  0.00     0.073 A 
HETATM    6  C   UNL     1      -5.062   1.032  -0.293  0.00  0.00     0.028 A 
HETATM    7  N   UNL     1      -7.075  -0.250  -0.610  0.00  0.00    -0.218 NA
HETATM    8  C   UNL     1      -7.785   0.859  -0.446  0.00  0.00     0.200 A 
HETATM    9  N   UNL     1      -7.265   2.067  -0.319  0.00  0.00    -0.212 NA
HETATM   10  C   UNL     1      -5.913   2.143  -0.217  0.00  0.00     0.140 A 
ENDROOT
BRANCH  10  11
HETATM   11  C   UNL     1      -5.385   3.552  -0.046  0.00  0.00     0.273 C 
HETATM   12  O   UNL     1      -4.328   3.883  -0.591  0.00  0.00    -0.266 OA
HETATM   13  N   UNL     1      -6.129   4.437   0.724  0.00  0.00    -0.342 N 
HETATM   14  C   UNL     1      -5.783   5.848   0.901  0.00  0.00     0.139 C 
HETATM   15  C   UNL     1      -7.304   4.084   1.498  0.00  0.00     0.161 C 
HETATM   16  C   UNL     1      -6.265   6.172   2.318  0.00  0.00     0.056 C 
HETATM   17  C   UNL     1      -7.379   5.169   2.512  0.00  0.00    -0.056 C 
HETATM   18  C   UNL     1      -6.733   7.564   2.656  0.00  0.00    -0.020 C 
HETATM   19  C   UNL     1      -8.352   5.333   3.422  0.00  0.00    -0.018 C 
HETATM   20  C   UNL     1      -8.425   6.591   4.240  0.00  0.00     0.054 C 
HETATM   21  C   UNL     1      -7.703   7.746   3.575  0.00  0.00    -0.026 C 
ENDBRANCH  10  11
BRANCH   8  22
HETATM   22  N   UNL     1      -9.156   0.743  -0.404  0.00  0.00    -0.271 NA
HETATM   23  H   UNL     1      -9.449  -0.130  -0.818  0.00  0.00     0.127 HD
HETATM   24  H   UNL     1      -9.600   1.589  -0.732  0.00  0.00     0.127 HD
ENDBRANCH   8  22
BRANCH   1  25
HETATM   25  C   UNL     1      -1.382  -0.183  -0.195  0.00  0.00    -0.018 A 
HETATM   26  C   UNL     1      -0.675   1.021  -0.442  0.00  0.00     0.013 A 
HETATM   27  C   UNL     1       0.716   1.124  -0.334  0.00  0.00     0.001 A 
HETATM   28  C   UNL     1       1.466   0.008  -0.011  0.00  0.00     0.001 A 
HETATM   29  C   UNL     1       0.819  -1.196   0.232  0.00  0.00     0.010 A 
HETATM   30  C   UNL     1      -0.593  -1.306   0.181  0.00  0.00    -0.024 A 
BRANCH  30  31
HETATM   31  C   UNL     1      -1.135  -2.671   0.543  0.00  0.00     0.203 C 
BRANCH  31  32
HETATM   32  O   UNL     1      -1.186  -3.523  -0.597  0.00  0.00    -0.396 OA
HETATM   33  H   UNL     1      -0.899  -3.006  -1.370  0.00  0.00     0.209 HD
ENDBRANCH  31  32
ENDBRANCH  30  31
ENDBRANCH   1  25
TORSDOF 5
