MODEL 1
REMARK VINA RESULT:    -8.136      0.000      0.000
REMARK INTER + INTRA:         -12.859
REMARK INTER:                 -11.820
REMARK INTRA:                  -1.039
REMARK UNBOUND:                -1.393
REMARK  8 active torsions:
REMARK  status: ('A' for Active; 'I' for Inactive)
REMARK    1  A    between atoms: O_1  and  C_2 
REMARK    2  A    between atoms: C_4  and  O_5 
REMARK    3  A    between atoms: C_6  and  C_10 
REMARK    4  A    between atoms: C_13  and  C_14 
REMARK       I    between atoms: C_14  and  N_16 
REMARK    5  A    between atoms: N_16  and  C_17 
REMARK    6  A    between atoms: C_19  and  C_20 
REMARK    7  A    between atoms: C_23  and  C_26 
REMARK    8  A    between atoms: C_26  and  N_27 
ROOT
HETATM    1  C   UNL     1      -0.050   9.642  26.945  0.00  0.00     0.128 A 
HETATM    2  O   UNL     1      -1.192  10.352  27.197  0.00  0.00    -0.211 OA
HETATM    3  N   UNL     1      -1.486  11.195  26.135  0.00  0.00    -0.121 NA
HETATM    4  C   UNL     1      -0.482  11.041  25.255  0.00  0.00     0.165 A 
HETATM    5  C   UNL     1       0.459  10.068  25.726  0.00  0.00     0.048 A 
ENDROOT
BRANCH   5   6
HETATM    6  C   UNL     1       1.564   9.460  25.007  0.00  0.00    -0.021 A 
HETATM    7  C   UNL     1       2.715  10.175  24.659  0.00  0.00     0.013 A 
HETATM    8  C   UNL     1       3.758   9.540  23.971  0.00  0.00     0.010 A 
HETATM    9  C   UNL     1       3.649   8.189  23.605  0.00  0.00    -0.033 A 
HETATM   10  C   UNL     1       2.502   7.476  23.968  0.00  0.00     0.010 A 
HETATM   11  C   UNL     1       1.477   8.104  24.669  0.00  0.00     0.013 A 
BRANCH   9  12
HETATM   12  C   UNL     1       4.700   7.504  22.778  0.00  0.00     0.273 C 
BRANCH  12  13
HETATM   13  N   UNL     1       4.918   8.090  21.403  0.00  0.00    -0.063 N 
HETATM   14  H   UNL     1       4.929   9.111  21.501  0.00  0.00     0.280 HD
HETATM   15  C   UNL     1       6.253   7.673  20.791  0.00  0.00     0.261 C 
HETATM   16  C   UNL     1       6.341   8.183  19.350  0.00  0.00     0.195 C 
HETATM   17  O   UNL     1       5.261   7.658  18.571  0.00  0.00    -0.388 OA
HETATM   18  C   UNL     1       4.000   8.132  19.047  0.00  0.00     0.195 C 
HETATM   19  C   UNL     1       3.751   7.707  20.497  0.00  0.00     0.261 C 
ENDBRANCH  12  13
ENDBRANCH   9  12
ENDBRANCH   5   6
BRANCH   1  20
HETATM   20  C   UNL     1       0.256   8.556  27.896  0.00  0.00     0.035 A 
HETATM   21  C   UNL     1      -0.108   7.214  27.685  0.00  0.00     0.081 A 
HETATM   22  C   UNL     1       0.258   6.217  28.598  0.00  0.00     0.074 A 
HETATM   23  C   UNL     1       0.986   6.555  29.738  0.00  0.00     0.074 A 
HETATM   24  C   UNL     1       1.345   7.877  29.992  0.00  0.00    -0.028 A 
HETATM   25  C   UNL     1       0.980   8.858  29.060  0.00  0.00     0.026 A 
HETATM   26  C   UNL     1       2.175   8.246  31.186  0.00  0.00     0.051 C 
BRANCH  21  27
HETATM   27  O   UNL     1      -0.835   6.869  26.581  0.00  0.00    -0.360 OA
HETATM   28  H   UNL     1      -0.503   7.348  25.803  0.00  0.00     0.217 HD
ENDBRANCH  21  27
BRANCH  23  29
HETATM   29  O   UNL     1       1.372   5.599  30.633  0.00  0.00    -0.360 OA
HETATM   30  H   UNL     1       2.141   5.117  30.283  0.00  0.00     0.217 HD
ENDBRANCH  23  29
ENDBRANCH   1  20
BRANCH   4  31
HETATM   31  C   UNL     1      -0.451  11.743  23.963  0.00  0.00     0.273 C 
HETATM   32  O   UNL     1       0.575  12.250  23.514  0.00  0.00    -0.266 OA
HETATM   33  N   UNL     1      -1.626  11.702  23.238  0.00  0.00    -0.356 N 
HETATM   34  H   UNL     1      -2.429  11.253  23.667  0.00  0.00     0.162 HD
BRANCH  33  35
HETATM   35  C   UNL     1      -1.729  12.228  21.890  0.00  0.00     0.118 C 
HETATM   36  C   UNL     1      -3.030  12.981  21.649  0.00  0.00     0.026 C 
ENDBRANCH  33  35
ENDBRANCH   4  31
TORSDOF 8
ENDMDL
MODEL 2
REMARK VINA RESULT:    -8.065      2.055      5.813
REMARK INTER + INTRA:         -12.758
REMARK INTER:                 -11.319
REMARK INTRA:                  -1.439
REMARK UNBOUND:                -1.393
REMARK  8 active torsions:
REMARK  status: ('A' for Active; 'I' for Inactive)
REMARK    1  A    between atoms: O_1  and  C_2 
REMARK    2  A    between atoms: C_4  and  O_5 
REMARK    3  A    between atoms: C_6  and  C_10 
REMARK    4  A    between atoms: C_13  and  C_14 
REMARK       I    between atoms: C_14  and  N_16 
REMARK    5  A    between atoms: N_16  and  C_17 
REMARK    6  A    between atoms: C_19  and  C_20 
REMARK    7  A    between atoms: C_23  and  C_26 
REMARK    8  A    between atoms: C_26  and  N_27 
ROOT
HETATM    1  C   UNL     1      -1.116  10.433  26.592  0.00  0.00     0.128 A 
HETATM    2  O   UNL     1      -1.801  10.925  27.669  0.00  0.00    -0.211 OA
HETATM    3  N   UNL     1      -1.472  10.222  28.818  0.00  0.00    -0.121 NA
HETATM    4  C   UNL     1      -0.625   9.255  28.428  0.00  0.00     0.165 A 
HETATM    5  C   UNL     1      -0.371   9.344  27.020  0.00  0.00     0.048 A 
ENDROOT
BRANCH   5   6
HETATM    6  C   UNL     1       0.626   8.635  26.237  0.00  0.00    -0.021 A 
HETATM    7  C   UNL     1       1.990   8.933  26.314  0.00  0.00     0.013 A 
HETATM    8  C   UNL     1       2.914   8.214  25.543  0.00  0.00     0.010 A 
HETATM    9  C   UNL     1       2.478   7.204  24.671  0.00  0.00    -0.033 A 
HETATM   10  C   UNL     1       1.113   6.901  24.610  0.00  0.00     0.010 A 
HETATM   11  C   UNL     1       0.202   7.603  25.392  0.00  0.00     0.013 A 
BRANCH   9  12
HETATM   12  C   UNL     1       3.425   6.484  23.755  0.00  0.00     0.273 C 
BRANCH  12  13
HETATM   13  N   UNL     1       3.326   6.868  22.297  0.00  0.00    -0.063 N 
HETATM   14  H   UNL     1       2.338   7.058  22.095  0.00  0.00     0.280 HD
HETATM   15  C   UNL     1       4.113   8.133  21.967  0.00  0.00     0.261 C 
HETATM   16  C   UNL     1       4.084   8.380  20.457  0.00  0.00     0.195 C 
HETATM   17  O   UNL     1       4.643   7.261  19.761  0.00  0.00    -0.388 OA
HETATM   18  C   UNL     1       3.855   6.085  19.952  0.00  0.00     0.195 C 
HETATM   19  C   UNL     1       3.776   5.695  21.431  0.00  0.00     0.261 C 
ENDBRANCH  12  13
ENDBRANCH   9  12
ENDBRANCH   5   6
BRANCH   1  20
HETATM   20  C   UNL     1      -1.211  11.228  25.352  0.00  0.00     0.035 A 
HETATM   21  C   UNL     1      -2.202  11.027  24.375  0.00  0.00     0.081 A 
HETATM   22  C   UNL     1      -2.275  11.850  23.244  0.00  0.00     0.074 A 
HETATM   23  C   UNL     1      -1.348  12.878  23.074  0.00  0.00     0.074 A 
HETATM   24  C   UNL     1      -0.339  13.092  24.009  0.00  0.00    -0.028 A 
HETATM   25  C   UNL     1      -0.290  12.266  25.140  0.00  0.00     0.026 A 
HETATM   26  C   UNL     1       0.630  14.229  23.865  0.00  0.00     0.051 C 
BRANCH  21  27
HETATM   27  O   UNL     1      -3.108  10.015  24.519  0.00  0.00    -0.360 OA
HETATM   28  H   UNL     1      -3.848  10.309  25.077  0.00  0.00     0.217 HD
ENDBRANCH  21  27
BRANCH  23  29
HETATM   29  O   UNL     1      -1.411  13.705  21.990  0.00  0.00    -0.360 OA
HETATM   30  H   UNL     1      -2.340  13.923  21.799  0.00  0.00     0.217 HD
ENDBRANCH  23  29
ENDBRANCH   1  20
BRANCH   4  31
HETATM   31  C   UNL     1      -0.011   8.313  29.376  0.00  0.00     0.273 C 
HETATM   32  O   UNL     1       0.298   7.167  29.058  0.00  0.00    -0.266 OA
HETATM   33  N   UNL     1       0.293   8.837  30.618  0.00  0.00    -0.356 N 
HETATM   34  H   UNL     1       0.021   9.797  30.804  0.00  0.00     0.162 HD
BRANCH  33  35
HETATM   35  C   UNL     1       1.020   8.086  31.623  0.00  0.00     0.118 C 
HETATM   36  C   UNL     1       0.114   7.195  32.461  0.00  0.00     0.026 C 
ENDBRANCH  33  35
ENDBRANCH   4  31
TORSDOF 8
ENDMDL
MODEL 3
REMARK VINA RESULT:    -8.042      1.249      2.013
REMARK INTER + INTRA:         -12.725
REMARK INTER:                 -11.586
REMARK INTRA:                  -1.139
REMARK UNBOUND:                -1.393
REMARK  8 active torsions:
REMARK  status: ('A' for Active; 'I' for Inactive)
REMARK    1  A    between atoms: O_1  and  C_2 
REMARK    2  A    between atoms: C_4  and  O_5 
REMARK    3  A    between atoms: C_6  and  C_10 
REMARK    4  A    between atoms: C_13  and  C_14 
REMARK       I    between atoms: C_14  and  N_16 
REMARK    5  A    between atoms: N_16  and  C_17 
REMARK    6  A    between atoms: C_19  and  C_20 
REMARK    7  A    between atoms: C_23  and  C_26 
REMARK    8  A    between atoms: C_26  and  N_27 
ROOT
HETATM    1  C   UNL     1       0.007   9.319  26.846  0.00  0.00     0.128 A 
HETATM    2  O   UNL     1      -1.161   9.887  27.274  0.00  0.00    -0.211 OA
HETATM    3  N   UNL     1      -1.470  11.002  26.508  0.00  0.00    -0.121 NA
HETATM    4  C   UNL     1      -0.451  11.149  25.645  0.00  0.00     0.165 A 
HETATM    5  C   UNL     1       0.516  10.106  25.823  0.00  0.00     0.048 A 
ENDROOT
BRANCH   5   6
HETATM    6  C   UNL     1       1.650   9.774  24.978  0.00  0.00    -0.021 A 
HETATM    7  C   UNL     1       2.583  10.732  24.568  0.00  0.00     0.013 A 
HETATM    8  C   UNL     1       3.665  10.360  23.758  0.00  0.00     0.010 A 
HETATM    9  C   UNL     1       3.811   9.029  23.334  0.00  0.00    -0.033 A 
HETATM   10  C   UNL     1       2.882   8.074  23.760  0.00  0.00     0.010 A 
HETATM   11  C   UNL     1       1.820   8.443  24.580  0.00  0.00     0.013 A 
BRANCH   9  12
HETATM   12  C   UNL     1       4.898   8.614  22.384  0.00  0.00     0.273 C 
BRANCH  12  13
HETATM   13  N   UNL     1       4.425   7.898  21.141  0.00  0.00    -0.063 N 
HETATM   14  H   UNL     1       3.695   7.235  21.425  0.00  0.00     0.280 HD
HETATM   15  C   UNL     1       3.810   8.845  20.114  0.00  0.00     0.261 C 
HETATM   16  C   UNL     1       3.486   8.076  18.831  0.00  0.00     0.195 C 
HETATM   17  O   UNL     1       4.673   7.481  18.297  0.00  0.00    -0.388 OA
HETATM   18  C   UNL     1       5.205   6.497  19.186  0.00  0.00     0.195 C 
HETATM   19  C   UNL     1       5.583   7.107  20.539  0.00  0.00     0.261 C 
ENDBRANCH  12  13
ENDBRANCH   9  12
ENDBRANCH   5   6
BRANCH   1  20
HETATM   20  C   UNL     1       0.337   8.006  27.434  0.00  0.00     0.035 A 
HETATM   21  C   UNL     1       1.338   7.820  28.403  0.00  0.00     0.081 A 
HETATM   22  C   UNL     1       1.568   6.558  28.966  0.00  0.00     0.074 A 
HETATM   23  C   UNL     1       0.804   5.466  28.556  0.00  0.00     0.074 A 
HETATM   24  C   UNL     1      -0.181   5.609  27.582  0.00  0.00    -0.028 A 
HETATM   25  C   UNL     1      -0.405   6.882  27.040  0.00  0.00     0.026 A 
HETATM   26  C   UNL     1      -1.047   4.454  27.172  0.00  0.00     0.051 C 
BRANCH  21  27
HETATM   27  O   UNL     1       2.106   8.876  28.805  0.00  0.00    -0.360 OA
HETATM   28  H   UNL     1       1.542   9.647  28.985  0.00  0.00     0.217 HD
ENDBRANCH  21  27
BRANCH  23  29
HETATM   29  O   UNL     1       0.997   4.231  29.104  0.00  0.00    -0.360 OA
HETATM   30  H   UNL     1       1.562   4.308  29.891  0.00  0.00     0.217 HD
ENDBRANCH  23  29
ENDBRANCH   1  20
BRANCH   4  31
HETATM   31  C   UNL     1      -0.428  12.208  24.624  0.00  0.00     0.273 C 
HETATM   32  O   UNL     1       0.163  13.272  24.794  0.00  0.00    -0.266 OA
HETATM   33  N   UNL     1      -1.023  11.883  23.421  0.00  0.00    -0.356 N 
HETATM   34  H   UNL     1      -1.479  10.979  23.349  0.00  0.00     0.162 HD
BRANCH  33  35
HETATM   35  C   UNL     1      -0.974  12.759  22.265  0.00  0.00     0.118 C 
HETATM   36  C   UNL     1      -2.227  12.671  21.406  0.00  0.00     0.026 C 
ENDBRANCH  33  35
ENDBRANCH   4  31
TORSDOF 8
ENDMDL
MODEL 4
REMARK VINA RESULT:    -7.913      1.304      1.702
REMARK INTER + INTRA:         -12.544
REMARK INTER:                 -10.984
REMARK INTRA:                  -1.561
REMARK UNBOUND:                -1.393
REMARK  8 active torsions:
REMARK  status: ('A' for Active; 'I' for Inactive)
REMARK    1  A    between atoms: O_1  and  C_2 
REMARK    2  A    between atoms: C_4  and  O_5 
REMARK    3  A    between atoms: C_6  and  C_10 
REMARK    4  A    between atoms: C_13  and  C_14 
REMARK       I    between atoms: C_14  and  N_16 
REMARK    5  A    between atoms: N_16  and  C_17 
REMARK    6  A    between atoms: C_19  and  C_20 
REMARK    7  A    between atoms: C_23  and  C_26 
REMARK    8  A    between atoms: C_26  and  N_27 
ROOT
HETATM    1  C   UNL     1       0.413   8.701  27.518  0.00  0.00     0.128 A 
HETATM    2  O   UNL     1      -0.689   9.351  28.001  0.00  0.00    -0.211 OA
HETATM    3  N   UNL     1      -1.199  10.221  27.049  0.00  0.00    -0.121 NA
HETATM    4  C   UNL     1      -0.365  10.146  25.999  0.00  0.00     0.165 A 
HETATM    5  C   UNL     1       0.679   9.197  26.250  0.00  0.00     0.048 A 
ENDROOT
BRANCH   5   6
HETATM    6  C   UNL     1       1.658   8.665  25.318  0.00  0.00    -0.021 A 
HETATM    7  C   UNL     1       1.609   7.348  24.850  0.00  0.00     0.013 A 
HETATM    8  C   UNL     1       2.573   6.885  23.944  0.00  0.00     0.010 A 
HETATM    9  C   UNL     1       3.610   7.730  23.516  0.00  0.00    -0.033 A 
HETATM   10  C   UNL     1       3.645   9.050  23.976  0.00  0.00     0.010 A 
HETATM   11  C   UNL     1       2.674   9.512  24.860  0.00  0.00     0.013 A 
BRANCH   9  12
HETATM   12  C   UNL     1       4.717   7.239  22.628  0.00  0.00     0.273 C 
BRANCH  12  13
HETATM   13  N   UNL     1       4.870   7.981  21.322  0.00  0.00    -0.063 N 
HETATM   14  H   UNL     1       4.838   8.985  21.532  0.00  0.00     0.280 HD
HETATM   15  C   UNL     1       6.205   7.699  20.638  0.00  0.00     0.261 C 
HETATM   16  C   UNL     1       6.231   8.367  19.261  0.00  0.00     0.195 C 
HETATM   17  O   UNL     1       5.155   7.879  18.453  0.00  0.00    -0.388 OA
HETATM   18  C   UNL     1       3.888   8.237  19.006  0.00  0.00     0.195 C 
HETATM   19  C   UNL     1       3.697   7.644  20.406  0.00  0.00     0.261 C 
ENDBRANCH  12  13
ENDBRANCH   9  12
ENDBRANCH   5   6
BRANCH   1  20
HETATM   20  C   UNL     1       0.922   7.593  28.349  0.00  0.00     0.035 A 
HETATM   21  C   UNL     1       0.309   6.329  28.417  0.00  0.00     0.081 A 
HETATM   22  C   UNL     1       0.870   5.298  29.181  0.00  0.00     0.074 A 
HETATM   23  C   UNL     1       2.049   5.524  29.891  0.00  0.00     0.074 A 
HETATM   24  C   UNL     1       2.672   6.769  29.864  0.00  0.00    -0.028 A 
HETATM   25  C   UNL     1       2.102   7.784  29.085  0.00  0.00     0.026 A 
HETATM   26  C   UNL     1       3.969   7.008  30.580  0.00  0.00     0.051 C 
BRANCH  21  27
HETATM   27  O   UNL     1      -0.854   6.097  27.739  0.00  0.00    -0.360 OA
HETATM   28  H   UNL     1      -1.477   6.827  27.889  0.00  0.00     0.217 HD
ENDBRANCH  21  27
BRANCH  23  29
HETATM   29  O   UNL     1       2.626   4.528  30.626  0.00  0.00    -0.360 OA
HETATM   30  H   UNL     1       2.262   3.669  30.352  0.00  0.00     0.217 HD
ENDBRANCH  23  29
ENDBRANCH   1  20
BRANCH   4  31
HETATM   31  C   UNL     1      -0.590  10.899  24.755  0.00  0.00     0.273 C 
HETATM   32  O   UNL     1      -1.208  10.427  23.804  0.00  0.00    -0.266 OA
HETATM   33  N   UNL     1      -0.153  12.210  24.769  0.00  0.00    -0.356 N 
HETATM   34  H   UNL     1       0.337  12.534  25.596  0.00  0.00     0.162 HD
BRANCH  33  35
HETATM   35  C   UNL     1      -0.414  13.129  23.678  0.00  0.00     0.118 C 
HETATM   36  C   UNL     1       0.405  14.408  23.778  0.00  0.00     0.026 C 
ENDBRANCH  33  35
ENDBRANCH   4  31
TORSDOF 8
ENDMDL
MODEL 5
REMARK VINA RESULT:    -7.903      1.925      5.613
REMARK INTER + INTRA:         -12.530
REMARK INTER:                 -10.911
REMARK INTRA:                  -1.619
REMARK UNBOUND:                -1.393
REMARK  8 active torsions:
REMARK  status: ('A' for Active; 'I' for Inactive)
REMARK    1  A    between atoms: O_1  and  C_2 
REMARK    2  A    between atoms: C_4  and  O_5 
REMARK    3  A    between atoms: C_6  and  C_10 
REMARK    4  A    between atoms: C_13  and  C_14 
REMARK       I    between atoms: C_14  and  N_16 
REMARK    5  A    between atoms: N_16  and  C_17 
REMARK    6  A    between atoms: C_19  and  C_20 
REMARK    7  A    between atoms: C_23  and  C_26 
REMARK    8  A    between atoms: C_26  and  N_27 
ROOT
HETATM    1  C   UNL     1      -0.087  10.036  26.341  0.00  0.00     0.128 A 
HETATM    2  O   UNL     1      -0.597  10.380  27.563  0.00  0.00    -0.211 OA
HETATM    3  N   UNL     1       0.012   9.647  28.570  0.00  0.00    -0.121 NA
HETATM    4  C   UNL     1       0.858   8.806  27.952  0.00  0.00     0.165 A 
HETATM    5  C   UNL     1       0.828   9.011  26.534  0.00  0.00     0.048 A 
ENDROOT
BRANCH   5   6
HETATM    6  C   UNL     1       1.720   8.467  25.525  0.00  0.00    -0.021 A 
HETATM    7  C   UNL     1       1.603   7.156  25.051  0.00  0.00     0.013 A 
HETATM    8  C   UNL     1       2.484   6.679  24.070  0.00  0.00     0.010 A 
HETATM    9  C   UNL     1       3.504   7.504  23.571  0.00  0.00    -0.033 A 
HETATM   10  C   UNL     1       3.607   8.818  24.039  0.00  0.00     0.010 A 
HETATM   11  C   UNL     1       2.718   9.294  24.998  0.00  0.00     0.013 A 
BRANCH   9  12
HETATM   12  C   UNL     1       4.529   6.996  22.597  0.00  0.00     0.273 C 
BRANCH  12  13
HETATM   13  N   UNL     1       4.725   7.851  21.367  0.00  0.00    -0.063 N 
HETATM   14  H   UNL     1       4.663   8.833  21.660  0.00  0.00     0.280 HD
HETATM   15  C   UNL     1       6.093   7.650  20.722  0.00  0.00     0.261 C 
HETATM   16  C   UNL     1       6.166   8.434  19.409  0.00  0.00     0.195 C 
HETATM   17  O   UNL     1       5.136   8.001  18.515  0.00  0.00    -0.388 OA
HETATM   18  C   UNL     1       3.839   8.291  19.040  0.00  0.00     0.195 C 
HETATM   19  C   UNL     1       3.599   7.576  20.373  0.00  0.00     0.261 C 
ENDBRANCH  12  13
ENDBRANCH   9  12
ENDBRANCH   5   6
BRANCH   1  20
HETATM   20  C   UNL     1      -0.493  10.892  25.210  0.00  0.00     0.035 A 
HETATM   21  C   UNL     1      -1.566  10.587  24.352  0.00  0.00     0.081 A 
HETATM   22  C   UNL     1      -1.940  11.467  23.329  0.00  0.00     0.074 A 
HETATM   23  C   UNL     1      -1.238  12.657  23.146  0.00  0.00     0.074 A 
HETATM   24  C   UNL     1      -0.156  12.982  23.962  0.00  0.00    -0.028 A 
HETATM   25  C   UNL     1       0.195  12.095  24.989  0.00  0.00     0.026 A 
HETATM   26  C   UNL     1       0.572  14.284  23.810  0.00  0.00     0.051 C 
BRANCH  21  27
HETATM   27  O   UNL     1      -2.254   9.417  24.508  0.00  0.00    -0.360 OA
HETATM   28  H   UNL     1      -2.932   9.521  25.197  0.00  0.00     0.217 HD
ENDBRANCH  21  27
BRANCH  23  29
HETATM   29  O   UNL     1      -1.596  13.539  22.168  0.00  0.00    -0.360 OA
HETATM   30  H   UNL     1      -1.039  13.399  21.383  0.00  0.00     0.217 HD
ENDBRANCH  23  29
ENDBRANCH   1  20
BRANCH   4  31
HETATM   31  C   UNL     1       1.730   7.879  28.690  0.00  0.00     0.273 C 
HETATM   32  O   UNL     1       1.299   6.871  29.245  0.00  0.00    -0.266 OA
HETATM   33  N   UNL     1       3.081   8.162  28.626  0.00  0.00    -0.356 N 
HETATM   34  H   UNL     1       3.364   9.004  28.137  0.00  0.00     0.162 HD
BRANCH  33  35
HETATM   35  C   UNL     1       4.088   7.279  29.185  0.00  0.00     0.118 C 
HETATM   36  C   UNL     1       4.504   6.176  28.222  0.00  0.00     0.026 C 
ENDBRANCH  33  35
ENDBRANCH   4  31
TORSDOF 8
ENDMDL
MODEL 6
REMARK VINA RESULT:    -7.765      2.581      8.185
REMARK INTER + INTRA:         -12.335
REMARK INTER:                 -10.942
REMARK INTRA:                  -1.393
REMARK UNBOUND:                -1.393
REMARK  8 active torsions:
REMARK  status: ('A' for Active; 'I' for Inactive)
REMARK    1  A    between atoms: O_1  and  C_2 
REMARK    2  A    between atoms: C_4  and  O_5 
REMARK    3  A    between atoms: C_6  and  C_10 
REMARK    4  A    between atoms: C_13  and  C_14 
REMARK       I    between atoms: C_14  and  N_16 
REMARK    5  A    between atoms: N_16  and  C_17 
REMARK    6  A    between atoms: C_19  and  C_20 
REMARK    7  A    between atoms: C_23  and  C_26 
REMARK    8  A    between atoms: C_26  and  N_27 
ROOT
HETATM    1  C   UNL     1       4.654   6.616  23.677  0.00  0.00     0.128 A 
HETATM    2  O   UNL     1       5.244   5.455  24.096  0.00  0.00    -0.211 OA
HETATM    3  N   UNL     1       4.999   5.242  25.444  0.00  0.00    -0.121 NA
HETATM    4  C   UNL     1       4.305   6.313  25.865  0.00  0.00     0.165 A 
HETATM    5  C   UNL     1       4.064   7.218  24.780  0.00  0.00     0.048 A 
ENDROOT
BRANCH   5   6
HETATM    6  C   UNL     1       3.192   8.379  24.750  0.00  0.00    -0.021 A 
HETATM    7  C   UNL     1       1.850   8.317  25.140  0.00  0.00     0.013 A 
HETATM    8  C   UNL     1       1.051   9.468  25.100  0.00  0.00     0.010 A 
HETATM    9  C   UNL     1       1.583  10.687  24.649  0.00  0.00    -0.033 A 
HETATM   10  C   UNL     1       2.929  10.745  24.274  0.00  0.00     0.010 A 
HETATM   11  C   UNL     1       3.725   9.604  24.334  0.00  0.00     0.013 A 
BRANCH   9  12
HETATM   12  C   UNL     1       0.731  11.915  24.495  0.00  0.00     0.273 C 
BRANCH  12  13
HETATM   13  N   UNL     1      -0.577  11.703  23.770  0.00  0.00    -0.063 N 
HETATM   14  H   UNL     1      -0.540  10.776  23.332  0.00  0.00     0.280 HD
HETATM   15  C   UNL     1      -1.779  11.717  24.710  0.00  0.00     0.261 C 
HETATM   16  C   UNL     1      -3.073  11.640  23.895  0.00  0.00     0.195 C 
HETATM   17  O   UNL     1      -3.151  12.742  22.985  0.00  0.00    -0.388 OA
HETATM   18  C   UNL     1      -2.105  12.686  22.013  0.00  0.00     0.195 C 
HETATM   19  C   UNL     1      -0.723  12.749  22.669  0.00  0.00     0.261 C 
ENDBRANCH  12  13
ENDBRANCH   9  12
ENDBRANCH   5   6
BRANCH   1  20
HETATM   20  C   UNL     1       4.655   6.850  22.220  0.00  0.00     0.035 A 
HETATM   21  C   UNL     1       3.577   6.520  21.380  0.00  0.00     0.081 A 
HETATM   22  C   UNL     1       3.614   6.817  20.012  0.00  0.00     0.074 A 
HETATM   23  C   UNL     1       4.737   7.440  19.468  0.00  0.00     0.074 A 
HETATM   24  C   UNL     1       5.833   7.760  20.265  0.00  0.00    -0.028 A 
HETATM   25  C   UNL     1       5.772   7.467  21.634  0.00  0.00     0.026 A 
HETATM   26  C   UNL     1       7.024   8.479  19.702  0.00  0.00     0.051 C 
BRANCH  21  27
HETATM   27  O   UNL     1       2.475   5.897  21.895  0.00  0.00    -0.360 OA
HETATM   28  H   UNL     1       2.726   5.033  22.265  0.00  0.00     0.217 HD
ENDBRANCH  21  27
BRANCH  23  29
HETATM   29  O   UNL     1       4.788   7.757  18.141  0.00  0.00    -0.360 OA
HETATM   30  H   UNL     1       5.669   7.544  17.789  0.00  0.00     0.217 HD
ENDBRANCH  23  29
ENDBRANCH   1  20
BRANCH   4  31
HETATM   31  C   UNL     1       3.815   6.444  27.246  0.00  0.00     0.273 C 
HETATM   32  O   UNL     1       3.095   5.598  27.771  0.00  0.00    -0.266 OA
HETATM   33  N   UNL     1       4.305   7.528  27.948  0.00  0.00    -0.356 N 
HETATM   34  H   UNL     1       4.907   8.178  27.452  0.00  0.00     0.162 HD
BRANCH  33  35
HETATM   35  C   UNL     1       4.029   7.733  29.357  0.00  0.00     0.118 C 
HETATM   36  C   UNL     1       2.989   8.818  29.602  0.00  0.00     0.026 C 
ENDBRANCH  33  35
ENDBRANCH   4  31
TORSDOF 8
ENDMDL
MODEL 7
REMARK VINA RESULT:    -7.645      2.461      5.654
REMARK INTER + INTRA:         -12.166
REMARK INTER:                 -10.672
REMARK INTRA:                  -1.494
REMARK UNBOUND:                -1.393
REMARK  8 active torsions:
REMARK  status: ('A' for Active; 'I' for Inactive)
REMARK    1  A    between atoms: O_1  and  C_2 
REMARK    2  A    between atoms: C_4  and  O_5 
REMARK    3  A    between atoms: C_6  and  C_10 
REMARK    4  A    between atoms: C_13  and  C_14 
REMARK       I    between atoms: C_14  and  N_16 
REMARK    5  A    between atoms: N_16  and  C_17 
REMARK    6  A    between atoms: C_19  and  C_20 
REMARK    7  A    between atoms: C_23  and  C_26 
REMARK    8  A    between atoms: C_26  and  N_27 
ROOT
HETATM    1  C   UNL     1       0.644   9.510  26.020  0.00  0.00     0.128 A 
HETATM    2  O   UNL     1       0.250   9.472  27.329  0.00  0.00    -0.211 OA
HETATM    3  N   UNL     1       1.129   8.706  28.080  0.00  0.00    -0.121 NA
HETATM    4  C   UNL     1       2.033   8.225  27.211  0.00  0.00     0.165 A 
HETATM    5  C   UNL     1       1.765   8.703  25.887  0.00  0.00     0.048 A 
ENDROOT
BRANCH   5   6
HETATM    6  C   UNL     1       2.599   8.595  24.702  0.00  0.00    -0.021 A 
HETATM    7  C   UNL     1       3.324   9.678  24.195  0.00  0.00     0.013 A 
HETATM    8  C   UNL     1       4.121   9.520  23.053  0.00  0.00     0.010 A 
HETATM    9  C   UNL     1       4.182   8.281  22.394  0.00  0.00    -0.033 A 
HETATM   10  C   UNL     1       3.465   7.199  22.915  0.00  0.00     0.010 A 
HETATM   11  C   UNL     1       2.691   7.354  24.061  0.00  0.00     0.013 A 
BRANCH   9  12
HETATM   12  C   UNL     1       4.942   8.102  21.111  0.00  0.00     0.273 C 
BRANCH  12  13
HETATM   13  N   UNL     1       4.208   7.342  20.032  0.00  0.00    -0.063 N 
HETATM   14  H   UNL     1       3.452   6.816  20.484  0.00  0.00     0.280 HD
HETATM   15  C   UNL     1       3.570   8.262  18.995  0.00  0.00     0.261 C 
HETATM   16  C   UNL     1       2.970   7.425  17.861  0.00  0.00     0.195 C 
HETATM   17  O   UNL     1       3.984   6.625  17.246  0.00  0.00    -0.388 OA
HETATM   18  C   UNL     1       4.516   5.666  18.163  0.00  0.00     0.195 C 
HETATM   19  C   UNL     1       5.160   6.345  19.376  0.00  0.00     0.261 C 
ENDBRANCH  12  13
ENDBRANCH   9  12
ENDBRANCH   5   6
BRANCH   1  20
HETATM   20  C   UNL     1      -0.081  10.464  25.157  0.00  0.00     0.035 A 
HETATM   21  C   UNL     1      -1.278  10.151  24.490  0.00  0.00     0.081 A 
HETATM   22  C   UNL     1      -1.950  11.116  23.729  0.00  0.00     0.074 A 
HETATM   23  C   UNL     1      -1.426  12.403  23.621  0.00  0.00     0.074 A 
HETATM   24  C   UNL     1      -0.230  12.743  24.251  0.00  0.00    -0.028 A 
HETATM   25  C   UNL     1       0.421  11.767  25.017  0.00  0.00     0.026 A 
HETATM   26  C   UNL     1       0.316  14.139  24.187  0.00  0.00     0.051 C 
BRANCH  21  27
HETATM   27  O   UNL     1      -1.797   8.890  24.573  0.00  0.00    -0.360 OA
HETATM   28  H   UNL     1      -1.172   8.303  25.031  0.00  0.00     0.217 HD
ENDBRANCH  21  27
BRANCH  23  29
HETATM   29  O   UNL     1      -2.073  13.366  22.902  0.00  0.00    -0.360 OA
HETATM   30  H   UNL     1      -2.288  13.022  22.018  0.00  0.00     0.217 HD
ENDBRANCH  23  29
ENDBRANCH   1  20
BRANCH   4  31
HETATM   31  C   UNL     1       3.169   7.391  27.633  0.00  0.00     0.273 C 
HETATM   32  O   UNL     1       4.081   7.827  28.331  0.00  0.00    -0.266 OA
HETATM   33  N   UNL     1       3.088   6.057  27.280  0.00  0.00    -0.356 N 
HETATM   34  H   UNL     1       2.298   5.767  26.714  0.00  0.00     0.162 HD
BRANCH  33  35
HETATM   35  C   UNL     1       4.054   5.073  27.728  0.00  0.00     0.118 C 
HETATM   36  C   UNL     1       4.888   4.504  26.588  0.00  0.00     0.026 C 
ENDBRANCH  33  35
ENDBRANCH   4  31
TORSDOF 8
ENDMDL
MODEL 8
REMARK VINA RESULT:    -7.625      1.706      2.331
REMARK INTER + INTRA:         -12.138
REMARK INTER:                 -10.967
REMARK INTRA:                  -1.171
REMARK UNBOUND:                -1.393
REMARK  8 active torsions:
REMARK  status: ('A' for Active; 'I' for Inactive)
REMARK    1  A    between atoms: O_1  and  C_2 
REMARK    2  A    between atoms: C_4  and  O_5 
REMARK    3  A    between atoms: C_6  and  C_10 
REMARK    4  A    between atoms: C_13  and  C_14 
REMARK       I    between atoms: C_14  and  N_16 
REMARK    5  A    between atoms: N_16  and  C_17 
REMARK    6  A    between atoms: C_19  and  C_20 
REMARK    7  A    between atoms: C_23  and  C_26 
REMARK    8  A    between atoms: C_26  and  N_27 
ROOT
HETATM    1  C   UNL     1       0.408   9.361  28.246  0.00  0.00     0.128 A 
HETATM    2  O   UNL     1      -0.629  10.143  28.675  0.00  0.00    -0.211 OA
HETATM    3  N   UNL     1      -1.383  10.588  27.599  0.00  0.00    -0.121 NA
HETATM    4  C   UNL     1      -0.765  10.122  26.501  0.00  0.00     0.165 A 
HETATM    5  C   UNL     1       0.381   9.340  26.859  0.00  0.00     0.048 A 
ENDROOT
BRANCH   5   6
HETATM    6  C   UNL     1       1.200   8.498  26.005  0.00  0.00    -0.021 A 
HETATM    7  C   UNL     1       1.068   7.106  25.978  0.00  0.00     0.013 A 
HETATM    8  C   UNL     1       1.878   6.336  25.131  0.00  0.00     0.010 A 
HETATM    9  C   UNL     1       2.843   6.953  24.319  0.00  0.00    -0.033 A 
HETATM   10  C   UNL     1       2.960   8.347  24.340  0.00  0.00     0.010 A 
HETATM   11  C   UNL     1       2.141   9.108  25.168  0.00  0.00     0.013 A 
BRANCH   9  12
HETATM   12  C   UNL     1       3.797   6.155  23.476  0.00  0.00     0.273 C 
BRANCH  12  13
HETATM   13  N   UNL     1       4.393   6.897  22.303  0.00  0.00    -0.063 N 
HETATM   14  H   UNL     1       4.279   7.901  22.483  0.00  0.00     0.280 HD
HETATM   15  C   UNL     1       5.886   6.629  22.135  0.00  0.00     0.261 C 
HETATM   16  C   UNL     1       6.389   7.296  20.852  0.00  0.00     0.195 C 
HETATM   17  O   UNL     1       5.672   6.795  19.719  0.00  0.00    -0.388 OA
HETATM   18  C   UNL     1       4.287   7.139  19.789  0.00  0.00     0.195 C 
HETATM   19  C   UNL     1       3.621   6.546  21.034  0.00  0.00     0.261 C 
ENDBRANCH  12  13
ENDBRANCH   9  12
ENDBRANCH   5   6
BRANCH   1  20
HETATM   20  C   UNL     1       1.157   8.650  29.300  0.00  0.00     0.035 A 
HETATM   21  C   UNL     1       2.560   8.660  29.396  0.00  0.00     0.081 A 
HETATM   22  C   UNL     1       3.213   8.012  30.452  0.00  0.00     0.074 A 
HETATM   23  C   UNL     1       2.468   7.338  31.419  0.00  0.00     0.074 A 
HETATM   24  C   UNL     1       1.078   7.288  31.343  0.00  0.00    -0.028 A 
HETATM   25  C   UNL     1       0.442   7.953  30.286  0.00  0.00     0.026 A 
HETATM   26  C   UNL     1       0.263   6.612  32.407  0.00  0.00     0.051 C 
BRANCH  21  27
HETATM   27  O   UNL     1       3.305   9.303  28.448  0.00  0.00    -0.360 OA
HETATM   28  H   UNL     1       4.193   9.490  28.796  0.00  0.00     0.217 HD
ENDBRANCH  21  27
BRANCH  23  29
HETATM   29  O   UNL     1       3.081   6.715  32.468  0.00  0.00    -0.360 OA
HETATM   30  H   UNL     1       2.633   6.957  33.297  0.00  0.00     0.217 HD
ENDBRANCH  23  29
ENDBRANCH   1  20
BRANCH   4  31
HETATM   31  C   UNL     1      -1.289  10.348  25.145  0.00  0.00     0.273 C 
HETATM   32  O   UNL     1      -1.271   9.476  24.279  0.00  0.00    -0.266 OA
HETATM   33  N   UNL     1      -1.897  11.572  24.942  0.00  0.00    -0.356 N 
HETATM   34  H   UNL     1      -1.886  12.237  25.708  0.00  0.00     0.162 HD
BRANCH  33  35
HETATM   35  C   UNL     1      -2.581  11.906  23.707  0.00  0.00     0.118 C 
HETATM   36  C   UNL     1      -1.654  12.522  22.668  0.00  0.00     0.026 C 
ENDBRANCH  33  35
ENDBRANCH   4  31
TORSDOF 8
ENDMDL
