MODEL 1
REMARK VINA RESULT:    -7.550      0.000      0.000
REMARK INTER + INTRA:         -12.413
REMARK INTER:                 -10.725
REMARK INTRA:                  -1.688
REMARK UNBOUND:                -1.773
REMARK  8 active torsions:
REMARK  status: ('A' for Active; 'I' for Inactive)
REMARK    1  A    between atoms: C_6  and  N_7 
REMARK    2  A    between atoms: C_13  and  C_14 
REMARK    3  A    between atoms: C_15  and  O_16 
REMARK    4  A    between atoms: C_18  and  O_19 
REMARK    5  A    between atoms: C_21  and  C_22 
REMARK       I    between atoms: C_22  and  N_24 
REMARK    6  A    between atoms: N_24  and  C_26 
REMARK    7  A    between atoms: C_26  and  C_27 
REMARK    8  A    between atoms: C_27  and  C_28 
ROOT
HETATM    1  C   UNL     1       7.721  11.913  21.787  0.00  0.00     0.046 C 
HETATM    2  C   UNL     1       7.877  10.540  21.984  0.00  0.00     0.082 C 
HETATM    3  C   UNL     1       6.768   9.702  21.939  0.00  0.00     0.075 C 
HETATM    4  C   UNL     1       5.495  10.237  21.685  0.00  0.00     0.084 C 
HETATM    5  C   UNL     1       6.462  12.401  21.422  0.00  0.00     0.038 C 
HETATM    6  C   UNL     1       5.311  11.612  21.429  0.00  0.00     0.066 C 
ENDROOT
BRANCH   1   7
HETATM    7  C   UNL     1       8.874  12.838  21.929  0.00  0.00     0.171 A 
HETATM    8  N   UNL     1       8.880  14.062  22.571  0.00  0.00    -0.244 N 
HETATM    9  C   UNL     1      10.124  14.593  22.275  0.00  0.00     0.349 A 
HETATM   10  O   UNL     1      10.618  15.677  22.553  0.00  0.00    -0.245 OA
HETATM   11  N   UNL     1      10.794  13.614  21.553  0.00  0.00    -0.226 N 
HETATM   12  H   UNL     1      11.722  13.714  21.160  0.00  0.00     0.194 HD
HETATM   13  N   UNL     1      10.004  12.533  21.339  0.00  0.00    -0.151 NA
BRANCH   8  14
HETATM   14  C   UNL     1       7.900  14.733  23.368  0.00  0.00     0.045 C 
HETATM   15  C   UNL     1       7.905  14.678  24.771  0.00  0.00     0.030 C 
HETATM   16  C   UNL     1       6.816  15.129  25.527  0.00  0.00     0.002 C 
HETATM   17  C   UNL     1       5.748  15.760  24.902  0.00  0.00     0.000 C 
HETATM   18  C   UNL     1       5.784  15.957  23.527  0.00  0.00     0.002 C 
HETATM   19  C   UNL     1       6.847  15.444  22.770  0.00  0.00     0.030 C 
ENDBRANCH   8  14
ENDBRANCH   1   7
BRANCH   2  20
HETATM   20  O   UNL     1       9.087   9.948  22.227  0.00  0.00    -0.360 OA
HETATM   21  H   UNL     1       8.980   9.327  22.981  0.00  0.00     0.217 HD
ENDBRANCH   2  20
BRANCH   6  22
HETATM   22  C   UNL     1       3.930  12.223  21.417  0.00  0.00     0.256 C 
HETATM   23  O   UNL     1       3.341  12.207  20.330  0.00  0.00    -0.267 OA
HETATM   24  N   UNL     1       3.262  12.745  22.548  0.00  0.00    -0.352 N 
HETATM   25  C   UNL     1       3.694  12.816  23.938  0.00  0.00     0.152 C 
BRANCH  24  26
HETATM   26  C   UNL     1       2.014  13.478  22.277  0.00  0.00     0.125 C 
BRANCH  26  27
HETATM   27  C   UNL     1       1.755  14.587  23.301  0.00  0.00     0.020 C 
BRANCH  27  28
HETATM   28  C   UNL     1       0.425  14.384  24.031  0.00  0.00    -0.003 C 
HETATM   29  C   UNL     1      -0.247  13.086  23.607  0.00  0.00     0.005 C 
ENDBRANCH  27  28
ENDBRANCH  26  27
ENDBRANCH  24  26
ENDBRANCH   6  22
BRANCH   4  30
HETATM   30  O   UNL     1       4.434   9.373  21.664  0.00  0.00    -0.360 OA
HETATM   31  H   UNL     1       3.600   9.866  21.585  0.00  0.00     0.217 HD
ENDBRANCH   4  30
TORSDOF 8
ENDMDL
MODEL 2
REMARK VINA RESULT:    -7.327      1.210      1.601
REMARK INTER + INTRA:         -12.098
REMARK INTER:                 -10.107
REMARK INTRA:                  -1.992
REMARK UNBOUND:                -1.773
REMARK  8 active torsions:
REMARK  status: ('A' for Active; 'I' for Inactive)
REMARK    1  A    between atoms: C_6  and  N_7 
REMARK    2  A    between atoms: C_13  and  C_14 
REMARK    3  A    between atoms: C_15  and  O_16 
REMARK    4  A    between atoms: C_18  and  O_19 
REMARK    5  A    between atoms: C_21  and  C_22 
REMARK       I    between atoms: C_22  and  N_24 
REMARK    6  A    between atoms: N_24  and  C_26 
REMARK    7  A    between atoms: C_26  and  C_27 
REMARK    8  A    between atoms: C_27  and  C_28 
ROOT
HETATM    1  C   UNL     1       8.466  11.780  22.815  0.00  0.00     0.046 C 
HETATM    2  C   UNL     1       9.009  10.674  23.470  0.00  0.00     0.082 C 
HETATM    3  C   UNL     1       8.194   9.600  23.811  0.00  0.00     0.075 C 
HETATM    4  C   UNL     1       6.828   9.626  23.488  0.00  0.00     0.084 C 
HETATM    5  C   UNL     1       7.130  11.729  22.402  0.00  0.00     0.038 C 
HETATM    6  C   UNL     1       6.258  10.706  22.779  0.00  0.00     0.066 C 
ENDROOT
BRANCH   1   7
HETATM    7  C   UNL     1       9.295  12.979  22.529  0.00  0.00     0.171 A 
HETATM    8  N   UNL     1       8.968  14.295  22.798  0.00  0.00    -0.244 N 
HETATM    9  C   UNL     1       9.978  15.024  22.193  0.00  0.00     0.349 A 
HETATM   10  O   UNL     1      10.139  16.232  22.086  0.00  0.00    -0.245 OA
HETATM   11  N   UNL     1      10.871  14.090  21.685  0.00  0.00    -0.226 N 
HETATM   12  H   UNL     1      11.703  14.310  21.152  0.00  0.00     0.194 HD
HETATM   13  N   UNL     1      10.430  12.824  21.893  0.00  0.00    -0.151 NA
BRANCH   8  14
HETATM   14  C   UNL     1       7.878  14.889  23.508  0.00  0.00     0.045 C 
HETATM   15  C   UNL     1       7.791  14.868  24.909  0.00  0.00     0.030 C 
HETATM   16  C   UNL     1       6.615  15.232  25.577  0.00  0.00     0.002 C 
HETATM   17  C   UNL     1       5.538  15.742  24.864  0.00  0.00     0.000 C 
HETATM   18  C   UNL     1       5.650  15.907  23.489  0.00  0.00     0.002 C 
HETATM   19  C   UNL     1       6.806  15.480  22.820  0.00  0.00     0.030 C 
ENDBRANCH   8  14
ENDBRANCH   1   7
BRANCH   2  20
HETATM   20  O   UNL     1      10.332  10.575  23.808  0.00  0.00    -0.360 OA
HETATM   21  H   UNL     1      10.580  11.377  24.318  0.00  0.00     0.217 HD
ENDBRANCH   2  20
BRANCH   6  22
HETATM   22  C   UNL     1       4.761  10.856  22.663  0.00  0.00     0.256 C 
HETATM   23  O   UNL     1       4.222  10.216  21.752  0.00  0.00    -0.267 OA
HETATM   24  N   UNL     1       3.950  11.611  23.539  0.00  0.00    -0.352 N 
HETATM   25  C   UNL     1       4.316  12.386  24.718  0.00  0.00     0.152 C 
BRANCH  24  26
HETATM   26  C   UNL     1       2.548  11.791  23.125  0.00  0.00     0.125 C 
BRANCH  26  27
HETATM   27  C   UNL     1       2.384  12.912  22.094  0.00  0.00     0.020 C 
BRANCH  27  28
HETATM   28  C   UNL     1       1.340  13.940  22.537  0.00  0.00    -0.003 C 
HETATM   29  C   UNL     1       1.947  14.977  23.472  0.00  0.00     0.005 C 
ENDBRANCH  27  28
ENDBRANCH  26  27
ENDBRANCH  24  26
ENDBRANCH   6  22
BRANCH   4  30
HETATM   30  O   UNL     1       6.066   8.551  23.856  0.00  0.00    -0.360 OA
HETATM   31  H   UNL     1       5.372   8.828  24.477  0.00  0.00     0.217 HD
ENDBRANCH   4  30
TORSDOF 8
ENDMDL
MODEL 3
REMARK VINA RESULT:    -7.319      2.685      3.911
REMARK INTER + INTRA:         -12.087
REMARK INTER:                 -10.729
REMARK INTRA:                  -1.358
REMARK UNBOUND:                -1.773
REMARK  8 active torsions:
REMARK  status: ('A' for Active; 'I' for Inactive)
REMARK    1  A    between atoms: C_6  and  N_7 
REMARK    2  A    between atoms: C_13  and  C_14 
REMARK    3  A    between atoms: C_15  and  O_16 
REMARK    4  A    between atoms: C_18  and  O_19 
REMARK    5  A    between atoms: C_21  and  C_22 
REMARK       I    between atoms: C_22  and  N_24 
REMARK    6  A    between atoms: N_24  and  C_26 
REMARK    7  A    between atoms: C_26  and  C_27 
REMARK    8  A    between atoms: C_27  and  C_28 
ROOT
HETATM    1  C   UNL     1       7.613  11.634  21.789  0.00  0.00     0.046 C 
HETATM    2  C   UNL     1       7.138  11.065  22.972  0.00  0.00     0.082 C 
HETATM    3  C   UNL     1       5.977  10.301  22.958  0.00  0.00     0.075 C 
HETATM    4  C   UNL     1       5.288  10.094  21.753  0.00  0.00     0.084 C 
HETATM    5  C   UNL     1       6.972  11.316  20.586  0.00  0.00     0.038 C 
HETATM    6  C   UNL     1       5.769  10.611  20.531  0.00  0.00     0.066 C 
ENDROOT
BRANCH   1   7
HETATM    7  C   UNL     1       8.793  12.534  21.797  0.00  0.00     0.171 A 
HETATM    8  N   UNL     1       8.873  13.791  22.367  0.00  0.00    -0.244 N 
HETATM    9  C   UNL     1      10.105  14.272  21.954  0.00  0.00     0.349 A 
HETATM   10  O   UNL     1      10.641  15.356  22.135  0.00  0.00    -0.245 OA
HETATM   11  N   UNL     1      10.698  13.238  21.241  0.00  0.00    -0.226 N 
HETATM   12  H   UNL     1      11.596  13.292  20.777  0.00  0.00     0.194 HD
HETATM   13  N   UNL     1       9.869  12.169  21.145  0.00  0.00    -0.151 NA
BRANCH   8  14
HETATM   14  C   UNL     1       7.970  14.529  23.195  0.00  0.00     0.045 C 
HETATM   15  C   UNL     1       8.147  14.649  24.582  0.00  0.00     0.030 C 
HETATM   16  C   UNL     1       7.139  15.162  25.409  0.00  0.00     0.002 C 
HETATM   17  C   UNL     1       5.978  15.682  24.851  0.00  0.00     0.000 C 
HETATM   18  C   UNL     1       5.839  15.706  23.470  0.00  0.00     0.002 C 
HETATM   19  C   UNL     1       6.823  15.132  22.652  0.00  0.00     0.030 C 
ENDBRANCH   8  14
ENDBRANCH   1   7
BRANCH   2  20
HETATM   20  O   UNL     1       7.762  11.216  24.181  0.00  0.00    -0.360 OA
HETATM   21  H   UNL     1       8.091  12.140  24.244  0.00  0.00     0.217 HD
ENDBRANCH   2  20
BRANCH   6  22
HETATM   22  C   UNL     1       4.904  10.613  19.293  0.00  0.00     0.256 C 
HETATM   23  O   UNL     1       4.069  11.521  19.217  0.00  0.00    -0.267 OA
HETATM   24  N   UNL     1       5.025   9.704  18.217  0.00  0.00    -0.352 N 
HETATM   25  C   UNL     1       5.961   8.604  18.022  0.00  0.00     0.152 C 
BRANCH  24  26
HETATM   26  C   UNL     1       3.952   9.754  17.209  0.00  0.00     0.125 C 
BRANCH  26  27
HETATM   27  C   UNL     1       3.887   8.480  16.363  0.00  0.00     0.020 C 
BRANCH  27  28
HETATM   28  C   UNL     1       2.569   7.730  16.568  0.00  0.00    -0.003 C 
HETATM   29  C   UNL     1       2.466   7.167  17.978  0.00  0.00     0.005 C 
ENDBRANCH  27  28
ENDBRANCH  26  27
ENDBRANCH  24  26
ENDBRANCH   6  22
BRANCH   4  30
HETATM   30  O   UNL     1       4.143   9.346  21.793  0.00  0.00    -0.360 OA
HETATM   31  H   UNL     1       3.747   9.288  20.908  0.00  0.00     0.217 HD
ENDBRANCH   4  30
TORSDOF 8
ENDMDL
MODEL 4
REMARK VINA RESULT:    -7.121      1.981      3.430
REMARK INTER + INTRA:         -11.808
REMARK INTER:                 -10.579
REMARK INTRA:                  -1.229
REMARK UNBOUND:                -1.773
REMARK  8 active torsions:
REMARK  status: ('A' for Active; 'I' for Inactive)
REMARK    1  A    between atoms: C_6  and  N_7 
REMARK    2  A    between atoms: C_13  and  C_14 
REMARK    3  A    between atoms: C_15  and  O_16 
REMARK    4  A    between atoms: C_18  and  O_19 
REMARK    5  A    between atoms: C_21  and  C_22 
REMARK       I    between atoms: C_22  and  N_24 
REMARK    6  A    between atoms: N_24  and  C_26 
REMARK    7  A    between atoms: C_26  and  C_27 
REMARK    8  A    between atoms: C_27  and  C_28 
ROOT
HETATM    1  C   UNL     1       7.191  12.846  21.600  0.00  0.00     0.046 C 
HETATM    2  C   UNL     1       7.518  12.004  20.536  0.00  0.00     0.082 C 
HETATM    3  C   UNL     1       6.513  11.335  19.846  0.00  0.00     0.075 C 
HETATM    4  C   UNL     1       5.170  11.515  20.214  0.00  0.00     0.084 C 
HETATM    5  C   UNL     1       5.841  13.097  21.869  0.00  0.00     0.038 C 
HETATM    6  C   UNL     1       4.802  12.400  21.250  0.00  0.00     0.066 C 
ENDROOT
BRANCH   1   7
HETATM    7  C   UNL     1       8.252  13.493  22.413  0.00  0.00     0.171 A 
HETATM    8  N   UNL     1       9.124  12.868  23.285  0.00  0.00    -0.244 N 
HETATM    9  C   UNL     1       9.783  13.913  23.911  0.00  0.00     0.349 A 
HETATM   10  O   UNL     1      10.616  13.911  24.806  0.00  0.00    -0.245 OA
HETATM   11  N   UNL     1       9.317  15.073  23.307  0.00  0.00    -0.226 N 
HETATM   12  H   UNL     1       9.585  16.014  23.570  0.00  0.00     0.194 HD
HETATM   13  N   UNL     1       8.361  14.798  22.385  0.00  0.00    -0.151 NA
BRANCH   8  14
HETATM   14  C   UNL     1       9.373  11.488  23.571  0.00  0.00     0.045 C 
HETATM   15  C   UNL     1      10.629  10.894  23.374  0.00  0.00     0.030 C 
HETATM   16  C   UNL     1      10.799   9.504  23.424  0.00  0.00     0.002 C 
HETATM   17  C   UNL     1       9.740   8.686  23.794  0.00  0.00     0.000 C 
HETATM   18  C   UNL     1       8.522   9.261  24.133  0.00  0.00     0.002 C 
HETATM   19  C   UNL     1       8.341  10.647  24.017  0.00  0.00     0.030 C 
ENDBRANCH   8  14
ENDBRANCH   1   7
BRANCH   2  20
HETATM   20  O   UNL     1       8.803  11.788  20.116  0.00  0.00    -0.360 OA
HETATM   21  H   UNL     1       9.142  12.622  19.722  0.00  0.00     0.217 HD
ENDBRANCH   2  20
BRANCH   6  22
HETATM   22  C   UNL     1       3.401  12.397  21.815  0.00  0.00     0.256 C 
HETATM   23  O   UNL     1       2.504  12.739  21.037  0.00  0.00    -0.267 OA
HETATM   24  N   UNL     1       3.053  11.982  23.120  0.00  0.00    -0.352 N 
HETATM   25  C   UNL     1       3.895  11.469  24.194  0.00  0.00     0.152 C 
BRANCH  24  26
HETATM   26  C   UNL     1       1.666  12.254  23.533  0.00  0.00     0.125 C 
BRANCH  26  27
HETATM   27  C   UNL     1       1.376  13.753  23.652  0.00  0.00     0.020 C 
BRANCH  27  28
HETATM   28  C   UNL     1       2.162  14.393  24.799  0.00  0.00    -0.003 C 
HETATM   29  C   UNL     1       3.327  15.221  24.277  0.00  0.00     0.005 C 
ENDBRANCH  27  28
ENDBRANCH  26  27
ENDBRANCH  24  26
ENDBRANCH   6  22
BRANCH   4  30
HETATM   30  O   UNL     1       4.219  10.825  19.513  0.00  0.00    -0.360 OA
HETATM   31  H   UNL     1       3.331  11.127  19.763  0.00  0.00     0.217 HD
ENDBRANCH   4  30
TORSDOF 8
ENDMDL
MODEL 5
REMARK VINA RESULT:    -7.077      2.324      3.875
REMARK INTER + INTRA:         -11.746
REMARK INTER:                  -9.668
REMARK INTRA:                  -2.078
REMARK UNBOUND:                -1.773
REMARK  8 active torsions:
REMARK  status: ('A' for Active; 'I' for Inactive)
REMARK    1  A    between atoms: C_6  and  N_7 
REMARK    2  A    between atoms: C_13  and  C_14 
REMARK    3  A    between atoms: C_15  and  O_16 
REMARK    4  A    between atoms: C_18  and  O_19 
REMARK    5  A    between atoms: C_21  and  C_22 
REMARK       I    between atoms: C_22  and  N_24 
REMARK    6  A    between atoms: N_24  and  C_26 
REMARK    7  A    between atoms: C_26  and  C_27 
REMARK    8  A    between atoms: C_27  and  C_28 
ROOT
HETATM    1  C   UNL     1       8.121  12.918  22.446  0.00  0.00     0.046 C 
HETATM    2  C   UNL     1       8.827  13.231  21.283  0.00  0.00     0.082 C 
HETATM    3  C   UNL     1       8.502  12.605  20.084  0.00  0.00     0.075 C 
HETATM    4  C   UNL     1       7.458  11.668  20.043  0.00  0.00     0.084 C 
HETATM    5  C   UNL     1       7.013  12.068  22.352  0.00  0.00     0.038 C 
HETATM    6  C   UNL     1       6.691  11.367  21.189  0.00  0.00     0.066 C 
ENDROOT
BRANCH   1   7
HETATM    7  C   UNL     1       8.515  13.497  23.755  0.00  0.00     0.171 A 
HETATM    8  N   UNL     1       7.724  14.260  24.595  0.00  0.00    -0.244 N 
HETATM    9  C   UNL     1       8.597  14.691  25.581  0.00  0.00     0.349 A 
HETATM   10  O   UNL     1       8.420  15.435  26.535  0.00  0.00    -0.245 OA
HETATM   11  N   UNL     1       9.816  14.087  25.301  0.00  0.00    -0.226 N 
HETATM   12  H   UNL     1      10.670  14.232  25.825  0.00  0.00     0.194 HD
HETATM   13  N   UNL     1       9.753  13.356  24.161  0.00  0.00    -0.151 NA
BRANCH   8  14
HETATM   14  C   UNL     1       6.336  14.602  24.559  0.00  0.00     0.045 C 
HETATM   15  C   UNL     1       5.331  13.714  24.972  0.00  0.00     0.030 C 
HETATM   16  C   UNL     1       3.978  13.962  24.709  0.00  0.00     0.002 C 
HETATM   17  C   UNL     1       3.590  15.166  24.134  0.00  0.00     0.000 C 
HETATM   18  C   UNL     1       4.554  16.124  23.846  0.00  0.00     0.002 C 
HETATM   19  C   UNL     1       5.912  15.841  24.052  0.00  0.00     0.030 C 
ENDBRANCH   8  14
ENDBRANCH   1   7
BRANCH   2  20
HETATM   20  O   UNL     1       9.849  14.141  21.246  0.00  0.00    -0.360 OA
HETATM   21  H   UNL     1       9.460  15.035  21.125  0.00  0.00     0.217 HD
ENDBRANCH   2  20
BRANCH   6  22
HETATM   22  C   UNL     1       5.753  10.184  21.209  0.00  0.00     0.256 C 
HETATM   23  O   UNL     1       4.638  10.368  20.709  0.00  0.00    -0.267 OA
HETATM   24  N   UNL     1       6.080   8.898  21.696  0.00  0.00    -0.352 N 
HETATM   25  C   UNL     1       7.329   8.400  22.259  0.00  0.00     0.152 C 
BRANCH  24  26
HETATM   26  C   UNL     1       4.959   7.950  21.813  0.00  0.00     0.125 C 
BRANCH  26  27
HETATM   27  C   UNL     1       4.616   7.631  23.271  0.00  0.00     0.020 C 
BRANCH  27  28
HETATM   28  C   UNL     1       3.744   8.721  23.899  0.00  0.00    -0.003 C 
HETATM   29  C   UNL     1       4.572   9.663  24.762  0.00  0.00     0.005 C 
ENDBRANCH  27  28
ENDBRANCH  26  27
ENDBRANCH  24  26
ENDBRANCH   6  22
BRANCH   4  30
HETATM   30  O   UNL     1       7.185  11.070  18.842  0.00  0.00    -0.360 OA
HETATM   31  H   UNL     1       6.543  10.352  18.962  0.00  0.00     0.217 HD
ENDBRANCH   4  30
TORSDOF 8
ENDMDL
MODEL 6
REMARK VINA RESULT:    -7.035      2.327      2.886
REMARK INTER + INTRA:         -11.687
REMARK INTER:                 -10.175
REMARK INTRA:                  -1.512
REMARK UNBOUND:                -1.773
REMARK  8 active torsions:
REMARK  status: ('A' for Active; 'I' for Inactive)
REMARK    1  A    between atoms: C_6  and  N_7 
REMARK    2  A    between atoms: C_13  and  C_14 
REMARK    3  A    between atoms: C_15  and  O_16 
REMARK    4  A    between atoms: C_18  and  O_19 
REMARK    5  A    between atoms: C_21  and  C_22 
REMARK       I    between atoms: C_22  and  N_24 
REMARK    6  A    between atoms: N_24  and  C_26 
REMARK    7  A    between atoms: C_26  and  C_27 
REMARK    8  A    between atoms: C_27  and  C_28 
ROOT
HETATM    1  C   UNL     1       8.769  11.549  24.582  0.00  0.00     0.046 C 
HETATM    2  C   UNL     1       9.500  10.478  24.066  0.00  0.00     0.082 C 
HETATM    3  C   UNL     1       8.850   9.468  23.364  0.00  0.00     0.075 C 
HETATM    4  C   UNL     1       7.461   9.532  23.168  0.00  0.00     0.084 C 
HETATM    5  C   UNL     1       7.408  11.647  24.272  0.00  0.00     0.038 C 
HETATM    6  C   UNL     1       6.701  10.628  23.632  0.00  0.00     0.066 C 
ENDROOT
BRANCH   1   7
HETATM    7  C   UNL     1       9.426  12.586  25.417  0.00  0.00     0.171 A 
HETATM    8  N   UNL     1       9.149  13.941  25.426  0.00  0.00    -0.244 N 
HETATM    9  C   UNL     1      10.136  14.482  26.234  0.00  0.00     0.349 A 
HETATM   10  O   UNL     1      10.380  15.644  26.528  0.00  0.00    -0.245 OA
HETATM   11  N   UNL     1      10.871  13.405  26.711  0.00  0.00    -0.226 N 
HETATM   12  H   UNL     1      11.688  13.476  27.304  0.00  0.00     0.194 HD
HETATM   13  N   UNL     1      10.424  12.235  26.190  0.00  0.00    -0.151 NA
BRANCH   8  14
HETATM   14  C   UNL     1       8.130  14.717  24.790  0.00  0.00     0.045 C 
HETATM   15  C   UNL     1       6.925  15.046  25.431  0.00  0.00     0.030 C 
HETATM   16  C   UNL     1       5.844  15.592  24.726  0.00  0.00     0.002 C 
HETATM   17  C   UNL     1       5.988  15.935  23.388  0.00  0.00     0.000 C 
HETATM   18  C   UNL     1       7.216  15.752  22.767  0.00  0.00     0.002 C 
HETATM   19  C   UNL     1       8.273  15.145  23.460  0.00  0.00     0.030 C 
ENDBRANCH   8  14
ENDBRANCH   1   7
BRANCH   2  20
HETATM   20  O   UNL     1      10.855  10.354  24.209  0.00  0.00    -0.360 OA
HETATM   21  H   UNL     1      11.259  10.329  23.314  0.00  0.00     0.217 HD
ENDBRANCH   2  20
BRANCH   6  22
HETATM   22  C   UNL     1       5.192  10.574  23.653  0.00  0.00     0.256 C 
HETATM   23  O   UNL     1       4.693   9.631  24.277  0.00  0.00    -0.267 OA
HETATM   24  N   UNL     1       4.338  11.539  23.073  0.00  0.00    -0.352 N 
HETATM   25  C   UNL     1       4.662  12.766  22.357  0.00  0.00     0.152 C 
BRANCH  24  26
HETATM   26  C   UNL     1       2.908  11.188  23.029  0.00  0.00     0.125 C 
BRANCH  26  27
HETATM   27  C   UNL     1       2.031  12.228  23.733  0.00  0.00     0.020 C 
BRANCH  27  28
HETATM   28  C   UNL     1       0.969  12.802  22.792  0.00  0.00    -0.003 C 
HETATM   29  C   UNL     1      -0.371  12.954  23.497  0.00  0.00     0.005 C 
ENDBRANCH  27  28
ENDBRANCH  26  27
ENDBRANCH  24  26
ENDBRANCH   6  22
BRANCH   4  30
HETATM   30  O   UNL     1       6.866   8.508  22.483  0.00  0.00    -0.360 OA
HETATM   31  H   UNL     1       6.477   7.870  23.104  0.00  0.00     0.217 HD
ENDBRANCH   4  30
TORSDOF 8
ENDMDL
MODEL 7
REMARK VINA RESULT:    -7.018      2.469      4.375
REMARK INTER + INTRA:         -11.663
REMARK INTER:                  -9.826
REMARK INTRA:                  -1.837
REMARK UNBOUND:                -1.773
REMARK  8 active torsions:
REMARK  status: ('A' for Active; 'I' for Inactive)
REMARK    1  A    between atoms: C_6  and  N_7 
REMARK    2  A    between atoms: C_13  and  C_14 
REMARK    3  A    between atoms: C_15  and  O_16 
REMARK    4  A    between atoms: C_18  and  O_19 
REMARK    5  A    between atoms: C_21  and  C_22 
REMARK       I    between atoms: C_22  and  N_24 
REMARK    6  A    between atoms: N_24  and  C_26 
REMARK    7  A    between atoms: C_26  and  C_27 
REMARK    8  A    between atoms: C_27  and  C_28 
ROOT
HETATM    1  C   UNL     1       8.069  12.833  22.391  0.00  0.00     0.046 C 
HETATM    2  C   UNL     1       8.788  13.147  21.237  0.00  0.00     0.082 C 
HETATM    3  C   UNL     1       8.461  12.539  20.029  0.00  0.00     0.075 C 
HETATM    4  C   UNL     1       7.403  11.618  19.971  0.00  0.00     0.084 C 
HETATM    5  C   UNL     1       6.949  12.002  22.281  0.00  0.00     0.038 C 
HETATM    6  C   UNL     1       6.624  11.318  21.108  0.00  0.00     0.066 C 
ENDROOT
BRANCH   1   7
HETATM    7  C   UNL     1       8.463  13.393  23.709  0.00  0.00     0.171 A 
HETATM    8  N   UNL     1       7.704  14.217  24.519  0.00  0.00    -0.244 N 
HETATM    9  C   UNL     1       8.574  14.591  25.530  0.00  0.00     0.349 A 
HETATM   10  O   UNL     1       8.422  15.355  26.474  0.00  0.00    -0.245 OA
HETATM   11  N   UNL     1       9.753  13.897  25.294  0.00  0.00    -0.226 N 
HETATM   12  H   UNL     1      10.599  13.984  25.844  0.00  0.00     0.194 HD
HETATM   13  N   UNL     1       9.673  13.164  24.156  0.00  0.00    -0.151 NA
BRANCH   8  14
HETATM   14  C   UNL     1       6.346  14.660  24.436  0.00  0.00     0.045 C 
HETATM   15  C   UNL     1       5.271  13.878  24.885  0.00  0.00     0.030 C 
HETATM   16  C   UNL     1       3.944  14.211  24.581  0.00  0.00     0.002 C 
HETATM   17  C   UNL     1       3.658  15.401  23.926  0.00  0.00     0.000 C 
HETATM   18  C   UNL     1       4.695  16.264  23.598  0.00  0.00     0.002 C 
HETATM   19  C   UNL     1       6.025  15.894  23.846  0.00  0.00     0.030 C 
ENDBRANCH   8  14
ENDBRANCH   1   7
BRANCH   2  20
HETATM   20  O   UNL     1       9.823  14.041  21.217  0.00  0.00    -0.360 OA
HETATM   21  H   UNL     1      10.432  13.791  20.487  0.00  0.00     0.217 HD
ENDBRANCH   2  20
BRANCH   6  22
HETATM   22  C   UNL     1       5.668  10.149  21.110  0.00  0.00     0.256 C 
HETATM   23  O   UNL     1       4.554  10.360  20.619  0.00  0.00    -0.267 OA
HETATM   24  N   UNL     1       5.977   8.848  21.569  0.00  0.00    -0.352 N 
HETATM   25  C   UNL     1       7.221   8.321  22.116  0.00  0.00     0.152 C 
BRANCH  24  26
HETATM   26  C   UNL     1       4.842   7.916  21.673  0.00  0.00     0.125 C 
BRANCH  26  27
HETATM   27  C   UNL     1       4.940   6.764  20.670  0.00  0.00     0.020 C 
BRANCH  27  28
HETATM   28  C   UNL     1       4.251   7.106  19.346  0.00  0.00    -0.003 C 
HETATM   29  C   UNL     1       5.258   7.561  18.300  0.00  0.00     0.005 C 
ENDBRANCH  27  28
ENDBRANCH  26  27
ENDBRANCH  24  26
ENDBRANCH   6  22
BRANCH   4  30
HETATM   30  O   UNL     1       7.130  11.038  18.762  0.00  0.00    -0.360 OA
HETATM   31  H   UNL     1       6.972  11.720  18.089  0.00  0.00     0.217 HD
ENDBRANCH   4  30
TORSDOF 8
ENDMDL
MODEL 8
REMARK VINA RESULT:    -6.896      2.644      5.208
REMARK INTER + INTRA:         -11.492
REMARK INTER:                  -9.719
REMARK INTRA:                  -1.773
REMARK UNBOUND:                -1.773
REMARK  8 active torsions:
REMARK  status: ('A' for Active; 'I' for Inactive)
REMARK    1  A    between atoms: C_6  and  N_7 
REMARK    2  A    between atoms: C_13  and  C_14 
REMARK    3  A    between atoms: C_15  and  O_16 
REMARK    4  A    between atoms: C_18  and  O_19 
REMARK    5  A    between atoms: C_21  and  C_22 
REMARK       I    between atoms: C_22  and  N_24 
REMARK    6  A    between atoms: N_24  and  C_26 
REMARK    7  A    between atoms: C_26  and  C_27 
REMARK    8  A    between atoms: C_27  and  C_28 
ROOT
HETATM    1  C   UNL     1       6.774  11.992  20.831  0.00  0.00     0.046 C 
HETATM    2  C   UNL     1       8.044  12.559  20.712  0.00  0.00     0.082 C 
HETATM    3  C   UNL     1       8.377  13.679  21.465  0.00  0.00     0.075 C 
HETATM    4  C   UNL     1       7.440  14.232  22.352  0.00  0.00     0.084 C 
HETATM    5  C   UNL     1       5.902  12.492  21.804  0.00  0.00     0.038 C 
HETATM    6  C   UNL     1       6.167  13.653  22.535  0.00  0.00     0.066 C 
ENDROOT
BRANCH   1   7
HETATM    7  C   UNL     1       6.362  10.858  19.965  0.00  0.00     0.171 A 
HETATM    8  N   UNL     1       6.111   9.559  20.365  0.00  0.00    -0.244 N 
HETATM    9  C   UNL     1       5.936   8.867  19.177  0.00  0.00     0.349 A 
HETATM   10  O   UNL     1       5.744   7.678  18.965  0.00  0.00    -0.245 OA
HETATM   11  N   UNL     1       6.012   9.818  18.168  0.00  0.00    -0.226 N 
HETATM   12  H   UNL     1       5.957   9.620  17.177  0.00  0.00     0.194 HD
HETATM   13  N   UNL     1       6.284  11.048  18.671  0.00  0.00    -0.151 NA
BRANCH   8  14
HETATM   14  C   UNL     1       6.034   8.949  21.656  0.00  0.00     0.045 C 
HETATM   15  C   UNL     1       4.830   8.852  22.372  0.00  0.00     0.030 C 
HETATM   16  C   UNL     1       4.807   8.478  23.722  0.00  0.00     0.002 C 
HETATM   17  C   UNL     1       5.976   8.073  24.353  0.00  0.00     0.000 C 
HETATM   18  C   UNL     1       7.158   8.023  23.626  0.00  0.00     0.002 C 
HETATM   19  C   UNL     1       7.186   8.461  22.294  0.00  0.00     0.030 C 
ENDBRANCH   8  14
ENDBRANCH   1   7
BRANCH   2  20
HETATM   20  O   UNL     1       9.010  12.068  19.876  0.00  0.00    -0.360 OA
HETATM   21  H   UNL     1       8.577  11.490  19.210  0.00  0.00     0.217 HD
ENDBRANCH   2  20
BRANCH   6  22
HETATM   22  C   UNL     1       5.077  14.386  23.280  0.00  0.00     0.256 C 
HETATM   23  O   UNL     1       5.036  15.610  23.112  0.00  0.00    -0.267 OA
HETATM   24  N   UNL     1       4.092  13.774  24.087  0.00  0.00    -0.352 N 
HETATM   25  C   UNL     1       3.872  12.365  24.387  0.00  0.00     0.152 C 
BRANCH  24  26
HETATM   26  C   UNL     1       3.256  14.687  24.885  0.00  0.00     0.125 C 
BRANCH  26  27
HETATM   27  C   UNL     1       1.774  14.598  24.509  0.00  0.00     0.020 C 
BRANCH  27  28
HETATM   28  C   UNL     1       1.534  15.000  23.052  0.00  0.00    -0.003 C 
HETATM   29  C   UNL     1       1.083  13.811  22.217  0.00  0.00     0.005 C 
ENDBRANCH  27  28
ENDBRANCH  26  27
ENDBRANCH  24  26
ENDBRANCH   6  22
BRANCH   4  30
HETATM   30  O   UNL     1       7.812  15.342  23.061  0.00  0.00    -0.360 OA
HETATM   31  H   UNL     1       8.772  15.474  23.001  0.00  0.00     0.217 HD
ENDBRANCH   4  30
TORSDOF 8
ENDMDL
MODEL 9
REMARK VINA RESULT:    -6.758      2.416      6.096
REMARK INTER + INTRA:         -11.296
REMARK INTER:                  -9.973
REMARK INTRA:                  -1.323
REMARK UNBOUND:                -1.773
REMARK  8 active torsions:
REMARK  status: ('A' for Active; 'I' for Inactive)
REMARK    1  A    between atoms: C_6  and  N_7 
REMARK    2  A    between atoms: C_13  and  C_14 
REMARK    3  A    between atoms: C_15  and  O_16 
REMARK    4  A    between atoms: C_18  and  O_19 
REMARK    5  A    between atoms: C_21  and  C_22 
REMARK       I    between atoms: C_22  and  N_24 
REMARK    6  A    between atoms: N_24  and  C_26 
REMARK    7  A    between atoms: C_26  and  C_27 
REMARK    8  A    between atoms: C_27  and  C_28 
ROOT
HETATM    1  C   UNL     1       6.608  10.264  23.785  0.00  0.00     0.046 C 
HETATM    2  C   UNL     1       7.148   8.983  23.914  0.00  0.00     0.082 C 
HETATM    3  C   UNL     1       8.527   8.814  23.975  0.00  0.00     0.075 C 
HETATM    4  C   UNL     1       9.374   9.932  23.916  0.00  0.00     0.084 C 
HETATM    5  C   UNL     1       7.469  11.366  23.846  0.00  0.00     0.038 C 
HETATM    6  C   UNL     1       8.860  11.243  23.839  0.00  0.00     0.066 C 
ENDROOT
BRANCH   1   7
HETATM    7  C   UNL     1       5.146  10.461  23.619  0.00  0.00     0.171 A 
HETATM    8  N   UNL     1       4.476  11.668  23.548  0.00  0.00    -0.244 N 
HETATM    9  C   UNL     1       3.137  11.312  23.568  0.00  0.00     0.349 A 
HETATM   10  O   UNL     1       2.127  12.001  23.581  0.00  0.00    -0.245 OA
HETATM   11  N   UNL     1       3.112   9.924  23.565  0.00  0.00    -0.226 N 
HETATM   12  H   UNL     1       2.274   9.357  23.611  0.00  0.00     0.194 HD
HETATM   13  N   UNL     1       4.365   9.409  23.604  0.00  0.00    -0.151 NA
BRANCH   8  14
HETATM   14  C   UNL     1       4.936  13.020  23.476  0.00  0.00     0.045 C 
HETATM   15  C   UNL     1       5.566  13.541  22.336  0.00  0.00     0.030 C 
HETATM   16  C   UNL     1       6.224  14.777  22.360  0.00  0.00     0.002 C 
HETATM   17  C   UNL     1       6.161  15.577  23.494  0.00  0.00     0.000 C 
HETATM   18  C   UNL     1       5.423  15.147  24.589  0.00  0.00     0.002 C 
HETATM   19  C   UNL     1       4.822  13.880  24.580  0.00  0.00     0.030 C 
ENDBRANCH   8  14
ENDBRANCH   1   7
BRANCH   2  20
HETATM   20  O   UNL     1       6.384   7.850  23.987  0.00  0.00    -0.360 OA
HETATM   21  H   UNL     1       5.444   8.104  23.864  0.00  0.00     0.217 HD
ENDBRANCH   2  20
BRANCH   6  22
HETATM   22  C   UNL     1       9.757  12.414  23.515  0.00  0.00     0.256 C 
HETATM   23  O   UNL     1      10.481  12.282  22.522  0.00  0.00    -0.267 OA
HETATM   24  N   UNL     1       9.779  13.639  24.219  0.00  0.00    -0.352 N 
HETATM   25  C   UNL     1       8.987  14.076  25.362  0.00  0.00     0.152 C 
BRANCH  24  26
HETATM   26  C   UNL     1      10.871  14.563  23.867  0.00  0.00     0.125 C 
BRANCH  26  27
HETATM   27  C   UNL     1      10.352  15.915  23.370  0.00  0.00     0.020 C 
BRANCH  27  28
HETATM   28  C   UNL     1       9.692  15.798  21.994  0.00  0.00    -0.003 C 
HETATM   29  C   UNL     1       9.706  17.129  21.258  0.00  0.00     0.005 C 
ENDBRANCH  27  28
ENDBRANCH  26  27
ENDBRANCH  24  26
ENDBRANCH   6  22
BRANCH   4  30
HETATM   30  O   UNL     1      10.724   9.712  23.967  0.00  0.00    -0.360 OA
HETATM   31  H   UNL     1      11.205  10.552  23.888  0.00  0.00     0.217 HD
ENDBRANCH   4  30
TORSDOF 8
ENDMDL
