MODEL 1
REMARK minimizedAffinity -10.9929495
REMARK minimizedRMSD -1
REMARK  3 active torsions:
REMARK  status: ('A' for Active; 'I' for Inactive)
REMARK    1  A    between atoms: C_9  and  C_11 
REMARK    2  A    between atoms: C_23  and  N_24 
REMARK       I    between atoms: N_24  and  C_25 
REMARK    3  A    between atoms: C_25  and  C_27 
ROOT
HETATM    1  C   UNL     1       3.500   7.374  24.396  0.00  0.00     0.022 A 
HETATM    2  C   UNL     1       4.786   6.818  24.196  0.00  0.00     0.016 A 
HETATM    3  C   UNL     1       5.873   7.573  23.733  0.00  0.00     0.002 A 
HETATM    4  C   UNL     1       5.716   8.923  23.467  0.00  0.00     0.010 A 
HETATM    5  C   UNL     1       3.319   8.725  24.054  0.00  0.00    -0.003 A 
HETATM    6  C   UNL     1       4.458   9.479  23.642  0.00  0.00    -0.019 A 
HETATM    7  C   UNL     1       2.170   9.647  24.054  0.00  0.00    -0.016 A 
HETATM    8  C   UNL     1       2.631  10.956  23.785  0.00  0.00    -0.020 A 
HETATM    9  C   UNL     1       1.788  12.065  23.793  0.00  0.00     0.010 A 
HETATM   10  C   UNL     1       0.440  11.869  24.068  0.00  0.00     0.001 A 
HETATM   11  C   UNL     1      -0.054  10.574  24.253  0.00  0.00     0.001 A 
HETATM   12  C   UNL     1       0.802   9.463  24.202  0.00  0.00     0.013 A 
HETATM   13  C   UNL     1       4.108  10.944  23.437  0.00  0.00     0.153 A 
ENDROOT
BRANCH  13  14
HETATM   14  N   UNL     1       4.845  11.810  24.318  0.00  0.00    -0.344 N 
HETATM   15  C   UNL     1       6.086  12.298  23.989  0.00  0.00     0.253 C 
HETATM   16  O   UNL     1       6.700  11.980  22.981  0.00  0.00    -0.268 OA
HETATM   17  H   UNL     1       4.504  11.910  25.264  0.00  0.00     0.163 HD
BRANCH  15  18
HETATM   18  C   UNL     1       6.685  13.248  24.952  0.00  0.00     0.047 A 
HETATM   19  C   UNL     1       8.071  13.239  25.147  0.00  0.00     0.037 A 
HETATM   20  C   UNL     1       8.625  14.158  26.024  0.00  0.00     0.120 A 
HETATM   21  N   UNL     1       7.940  15.092  26.721  0.00  0.00    -0.242 NA
HETATM   22  C   UNL     1       6.618  15.074  26.478  0.00  0.00     0.138 A 
HETATM   23  C   UNL     1       5.921  14.216  25.635  0.00  0.00     0.027 A 
HETATM   24  N   UNL     1       5.725  15.946  27.038  0.00  0.00    -0.350 N 
HETATM   25  C   UNL     1       4.556  14.626  25.692  0.00  0.00     0.033 A 
HETATM   26  C   UNL     1       4.465  15.689  26.565  0.00  0.00     0.090 A 
HETATM   27  H   UNL     1       5.987  16.678  27.681  0.00  0.00     0.166 HD
ENDBRANCH  15  18
ENDBRANCH  13  14
BRANCH   1  28
HETATM   28  C   UNL     1       2.488   6.488  24.991  0.00  0.00     0.140 C 
HETATM   29  N   UNL     1       1.692   6.836  26.051  0.00  0.00    -0.337 N 
HETATM   30  C   UNL     1       0.723   5.884  26.201  0.00  0.00     0.080 A 
HETATM   31  H   UNL     1       1.763   7.693  26.575  0.00  0.00     0.167 HD
HETATM   32  C   UNL     1      -0.447   5.834  26.934  0.00  0.00     0.148 A 
HETATM   33  C   UNL     1       1.172   4.828  25.428  0.00  0.00     0.088 A 
HETATM   34  N   UNL     1      -1.139   4.673  26.953  0.00  0.00    -0.271 NA
HETATM   35  C   UNL     1      -0.654   3.607  26.270  0.00  0.00     0.118 A 
HETATM   36  C   UNL     1       0.490   3.613  25.484  0.00  0.00     0.053 A 
HETATM   37  N   UNL     1       2.271   5.213  24.689  0.00  0.00    -0.228 NA
ENDBRANCH   1  28
TORSDOF 3
ENDMDL
MODEL 2
REMARK minimizedAffinity -9.55283833
REMARK minimizedRMSD -1
REMARK  3 active torsions:
REMARK  status: ('A' for Active; 'I' for Inactive)
REMARK    1  A    between atoms: C_9  and  C_11 
REMARK    2  A    between atoms: C_23  and  N_24 
REMARK       I    between atoms: N_24  and  C_25 
REMARK    3  A    between atoms: C_25  and  C_27 
ROOT
HETATM    1  C   UNL     1       3.452  12.787  24.542  0.00  0.00     0.022 A 
HETATM    2  C   UNL     1       2.243  13.523  24.588  0.00  0.00     0.016 A 
HETATM    3  C   UNL     1       0.997  12.949  24.295  0.00  0.00     0.002 A 
HETATM    4  C   UNL     1       0.913  11.608  23.961  0.00  0.00     0.010 A 
HETATM    5  C   UNL     1       3.378  11.445  24.129  0.00  0.00    -0.003 A 
HETATM    6  C   UNL     1       2.089  10.877  23.895  0.00  0.00    -0.019 A 
HETATM    7  C   UNL     1       4.366  10.379  23.898  0.00  0.00    -0.016 A 
HETATM    8  C   UNL     1       3.684   9.161  23.669  0.00  0.00    -0.020 A 
HETATM    9  C   UNL     1       4.348   7.950  23.493  0.00  0.00     0.010 A 
HETATM   10  C   UNL     1       5.738   7.945  23.536  0.00  0.00     0.001 A 
HETATM   11  C   UNL     1       6.435   9.149  23.675  0.00  0.00     0.001 A 
HETATM   12  C   UNL     1       5.752  10.366  23.811  0.00  0.00     0.013 A 
HETATM   13  C   UNL     1       2.186   9.393  23.584  0.00  0.00     0.153 A 
ENDROOT
BRANCH  13  14
HETATM   14  N   UNL     1       1.491   8.585  24.550  0.00  0.00    -0.344 N 
HETATM   15  C   UNL     1       1.139   7.283  24.292  0.00  0.00     0.253 C 
HETATM   16  O   UNL     1       1.304   6.732  23.212  0.00  0.00    -0.268 OA
HETATM   17  H   UNL     1       1.110   9.053  25.360  0.00  0.00     0.163 HD
BRANCH  15  18
HETATM   18  C   UNL     1       0.509   6.548  25.409  0.00  0.00     0.047 A 
HETATM   19  C   UNL     1      -0.202   5.372  25.139  0.00  0.00     0.037 A 
HETATM   20  C   UNL     1      -0.757   4.672  26.198  0.00  0.00     0.120 A 
HETATM   21  N   UNL     1      -0.670   5.019  27.502  0.00  0.00    -0.242 NA
HETATM   22  C   UNL     1       0.043   6.140  27.708  0.00  0.00     0.138 A 
HETATM   23  C   UNL     1       0.653   6.947  26.754  0.00  0.00     0.027 A 
HETATM   24  N   UNL     1       0.299   6.668  28.944  0.00  0.00    -0.350 N 
HETATM   25  C   UNL     1       1.315   7.984  27.475  0.00  0.00     0.033 A 
HETATM   26  C   UNL     1       1.077   7.789  28.819  0.00  0.00     0.090 A 
HETATM   27  H   UNL     1      -0.027   6.256  29.806  0.00  0.00     0.166 HD
ENDBRANCH  15  18
ENDBRANCH  13  14
BRANCH   1  28
HETATM   28  C   UNL     1       4.665  13.492  24.981  0.00  0.00     0.140 C 
HETATM   29  N   UNL     1       4.733  14.276  26.103  0.00  0.00    -0.337 N 
HETATM   30  C   UNL     1       6.042  14.589  26.341  0.00  0.00     0.080 A 
HETATM   31  H   UNL     1       3.952  14.511  26.697  0.00  0.00     0.167 HD
HETATM   32  C   UNL     1       6.700  15.141  27.422  0.00  0.00     0.148 A 
HETATM   33  C   UNL     1       6.682  14.250  25.162  0.00  0.00     0.088 A 
HETATM   34  N   UNL     1       8.013  15.432  27.289  0.00  0.00    -0.271 NA
HETATM   35  C   UNL     1       8.625  15.186  26.104  0.00  0.00     0.118 A 
HETATM   36  C   UNL     1       8.024  14.594  25.001  0.00  0.00     0.053 A 
HETATM   37  N   UNL     1       5.817  13.578  24.325  0.00  0.00    -0.228 NA
ENDBRANCH   1  28
TORSDOF 3
ENDMDL
MODEL 3
REMARK minimizedAffinity -8.81391716
REMARK minimizedRMSD -1
REMARK  3 active torsions:
REMARK  status: ('A' for Active; 'I' for Inactive)
REMARK    1  A    between atoms: C_9  and  C_11 
REMARK    2  A    between atoms: C_23  and  N_24 
REMARK       I    between atoms: N_24  and  C_25 
REMARK    3  A    between atoms: C_25  and  C_27 
ROOT
HETATM    1  C   UNL     1       3.813   7.721  24.244  0.00  0.00     0.022 A 
HETATM    2  C   UNL     1       5.032   7.639  23.527  0.00  0.00     0.016 A 
HETATM    3  C   UNL     1       5.472   8.656  22.668  0.00  0.00     0.002 A 
HETATM    4  C   UNL     1       4.716   9.804  22.506  0.00  0.00     0.010 A 
HETATM    5  C   UNL     1       3.007   8.851  24.023  0.00  0.00    -0.003 A 
HETATM    6  C   UNL     1       3.512   9.892  23.189  0.00  0.00    -0.019 A 
HETATM    7  C   UNL     1       1.687   9.289  24.506  0.00  0.00    -0.016 A 
HETATM    8  C   UNL     1       1.463  10.621  24.087  0.00  0.00    -0.020 A 
HETATM    9  C   UNL     1       0.329  11.342  24.453  0.00  0.00     0.010 A 
HETATM   10  C   UNL     1      -0.621  10.721  25.256  0.00  0.00     0.001 A 
HETATM   11  C   UNL     1      -0.462   9.378  25.611  0.00  0.00     0.001 A 
HETATM   12  C   UNL     1       0.666   8.652  25.200  0.00  0.00     0.013 A 
HETATM   13  C   UNL     1       2.573  11.087  23.163  0.00  0.00     0.153 A 
ENDROOT
BRANCH  13  14
HETATM   14  N   UNL     1       3.192  12.280  23.674  0.00  0.00    -0.344 N 
HETATM   15  C   UNL     1       3.966  12.271  24.808  0.00  0.00     0.253 C 
HETATM   16  O   UNL     1       4.126  11.288  25.518  0.00  0.00    -0.268 OA
HETATM   17  H   UNL     1       2.899  13.162  23.278  0.00  0.00     0.163 HD
BRANCH  15  18
HETATM   18  C   UNL     1       4.611  13.553  25.165  0.00  0.00     0.047 A 
HETATM   19  C   UNL     1       3.820  14.609  25.632  0.00  0.00     0.037 A 
HETATM   20  C   UNL     1       4.440  15.793  25.998  0.00  0.00     0.120 A 
HETATM   21  N   UNL     1       5.770  16.032  25.953  0.00  0.00    -0.242 NA
HETATM   22  C   UNL     1       6.485  14.978  25.522  0.00  0.00     0.138 A 
HETATM   23  C   UNL     1       6.009  13.735  25.119  0.00  0.00     0.027 A 
HETATM   24  N   UNL     1       7.850  14.966  25.427  0.00  0.00    -0.350 N 
HETATM   25  C   UNL     1       7.158  12.956  24.793  0.00  0.00     0.033 A 
HETATM   26  C   UNL     1       8.275  13.740  24.989  0.00  0.00     0.090 A 
HETATM   27  H   UNL     1       8.433  15.751  25.674  0.00  0.00     0.166 HD
ENDBRANCH  15  18
ENDBRANCH  13  14
BRANCH   1  28
HETATM   28  C   UNL     1       3.536   6.632  25.191  0.00  0.00     0.140 C 
HETATM   29  N   UNL     1       4.223   6.439  26.362  0.00  0.00    -0.337 N 
HETATM   30  C   UNL     1       3.571   5.492  27.101  0.00  0.00     0.080 A 
HETATM   31  H   UNL     1       5.027   6.969  26.659  0.00  0.00     0.167 HD
HETATM   32  C   UNL     1       3.678   5.081  28.416  0.00  0.00     0.148 A 
HETATM   33  C   UNL     1       2.695   4.913  26.200  0.00  0.00     0.088 A 
HETATM   34  N   UNL     1       2.948   4.015  28.812  0.00  0.00    -0.271 NA
HETATM   35  C   UNL     1       2.155   3.387  27.908  0.00  0.00     0.118 A 
HETATM   36  C   UNL     1       1.976   3.783  26.590  0.00  0.00     0.053 A 
HETATM   37  N   UNL     1       2.688   5.623  25.018  0.00  0.00    -0.228 NA
ENDBRANCH   1  28
TORSDOF 3
ENDMDL
MODEL 4
REMARK minimizedAffinity -8.38801575
REMARK minimizedRMSD -1
REMARK  3 active torsions:
REMARK  status: ('A' for Active; 'I' for Inactive)
REMARK    1  A    between atoms: C_9  and  C_11 
REMARK    2  A    between atoms: C_23  and  N_24 
REMARK       I    between atoms: N_24  and  C_25 
REMARK    3  A    between atoms: C_25  and  C_27 
ROOT
HETATM    1  C   UNL     1       3.157   7.502  24.213  0.00  0.00     0.022 A 
HETATM    2  C   UNL     1       4.422   7.011  23.808  0.00  0.00     0.016 A 
HETATM    3  C   UNL     1       5.423   7.841  23.284  0.00  0.00     0.002 A 
HETATM    4  C   UNL     1       5.200   9.203  23.161  0.00  0.00     0.010 A 
HETATM    5  C   UNL     1       2.901   8.870  24.018  0.00  0.00    -0.003 A 
HETATM    6  C   UNL     1       3.961   9.696  23.537  0.00  0.00    -0.019 A 
HETATM    7  C   UNL     1       1.739   9.746  24.241  0.00  0.00    -0.016 A 
HETATM    8  C   UNL     1       2.130  11.090  24.035  0.00  0.00    -0.020 A 
HETATM    9  C   UNL     1       1.268  12.163  24.245  0.00  0.00     0.010 A 
HETATM   10  C   UNL     1      -0.030  11.897  24.665  0.00  0.00     0.001 A 
HETATM   11  C   UNL     1      -0.464  10.574  24.793  0.00  0.00     0.001 A 
HETATM   12  C   UNL     1       0.405   9.502  24.538  0.00  0.00     0.013 A 
HETATM   13  C   UNL     1       3.552  11.160  23.509  0.00  0.00     0.153 A 
ENDROOT
BRANCH  13  14
HETATM   14  N   UNL     1       4.371  11.974  24.366  0.00  0.00    -0.344 N 
HETATM   15  C   UNL     1       4.130  13.313  24.547  0.00  0.00     0.253 C 
HETATM   16  O   UNL     1       3.270  13.940  23.944  0.00  0.00    -0.268 OA
HETATM   17  H   UNL     1       5.239  11.574  24.696  0.00  0.00     0.163 HD
BRANCH  15  18
HETATM   18  C   UNL     1       4.999  14.003  25.526  0.00  0.00     0.047 A 
HETATM   19  C   UNL     1       4.412  14.766  26.542  0.00  0.00     0.037 A 
HETATM   20  C   UNL     1       5.235  15.377  27.474  0.00  0.00     0.120 A 
HETATM   21  N   UNL     1       6.585  15.300  27.503  0.00  0.00    -0.242 NA
HETATM   22  C   UNL     1       7.095  14.536  26.522  0.00  0.00     0.138 A 
HETATM   23  C   UNL     1       6.402  13.867  25.518  0.00  0.00     0.027 A 
HETATM   24  N   UNL     1       8.430  14.279  26.367  0.00  0.00    -0.350 N 
HETATM   25  C   UNL     1       7.384  13.168  24.755  0.00  0.00     0.033 A 
HETATM   26  C   UNL     1       8.622  13.443  25.298  0.00  0.00     0.090 A 
HETATM   27  H   UNL     1       9.143  14.643  26.980  0.00  0.00     0.166 HD
ENDBRANCH  15  18
ENDBRANCH  13  14
BRANCH   1  28
HETATM   28  C   UNL     1       2.251   6.533  24.846  0.00  0.00     0.140 C 
HETATM   29  N   UNL     1       1.457   6.817  25.926  0.00  0.00    -0.337 N 
HETATM   30  C   UNL     1       0.585   5.781  26.115  0.00  0.00     0.080 A 
HETATM   31  H   UNL     1       1.464   7.684  26.441  0.00  0.00     0.167 HD
HETATM   32  C   UNL     1      -0.553   5.632  26.883  0.00  0.00     0.148 A 
HETATM   33  C   UNL     1       1.108   4.763  25.337  0.00  0.00     0.088 A 
HETATM   34  N   UNL     1      -1.133   4.412  26.934  0.00  0.00    -0.271 NA
HETATM   35  C   UNL     1      -0.571   3.387  26.245  0.00  0.00     0.118 A 
HETATM   36  C   UNL     1       0.544   3.491  25.424  0.00  0.00     0.053 A 
HETATM   37  N   UNL     1       2.144   5.239  24.561  0.00  0.00    -0.228 NA
ENDBRANCH   1  28
TORSDOF 3
ENDMDL
