MODEL 1
REMARK VINA RESULT:    -9.347      0.000      0.000
REMARK INTER + INTRA:         -12.843
REMARK INTER:                 -11.864
REMARK INTRA:                  -0.979
REMARK UNBOUND:                -1.037
REMARK  5 active torsions:
REMARK  status: ('A' for Active; 'I' for Inactive)
REMARK    1  A    between atoms: C_6  and  C_7 
REMARK    2  A    between atoms: C_7  and  C_8 
REMARK    3  A    between atoms: C_15  and  C_19 
REMARK    4  A    between atoms: C_16  and  O_18 
REMARK    5  A    between atoms: N_23  and  C_24 
ROOT
HETATM    1  C   UNL     1       3.378  15.511  24.961  0.00  0.00     0.071 A 
HETATM    2  N   UNL     1       3.940  16.187  25.979  0.00  0.00    -0.178 NA
HETATM    3  N   UNL     1       3.173  15.891  27.035  0.00  0.00    -0.277 N 
HETATM    4  H   UNL     1       3.398  16.315  27.925  0.00  0.00     0.189 HD
HETATM    5  C   UNL     1       2.218  14.791  25.387  0.00  0.00     0.020 A 
HETATM    6  C   UNL     1       2.115  15.072  26.744  0.00  0.00     0.065 A 
HETATM    7  C   UNL     1       1.213  13.992  24.780  0.00  0.00     0.032 A 
HETATM    8  C   UNL     1       0.147  13.458  25.543  0.00  0.00     0.027 A 
HETATM    9  C   UNL     1       0.110  13.801  26.909  0.00  0.00     0.080 A 
HETATM   10  C   UNL     1       1.077  14.601  27.540  0.00  0.00     0.069 A 
ENDROOT
BRANCH   8  11
HETATM   11  C   UNL     1      -0.966  12.703  24.897  0.00  0.00     0.073 C 
HETATM   12  C   UNL     1      -1.752  13.145  23.831  0.00  0.00     0.053 C 
HETATM   13  C   UNL     1      -2.482  12.050  23.384  0.00  0.00     0.141 C 
HETATM   14  N   UNL     1      -2.231  10.970  24.100  0.00  0.00    -0.179 NA
HETATM   15  N   UNL     1      -1.443  11.394  25.140  0.00  0.00    -0.234 N 
BRANCH  15  16
HETATM   16  C   UNL     1      -1.290  10.476  26.231  0.00  0.00     0.059 A 
HETATM   17  C   UNL     1      -0.424   9.372  26.054  0.00  0.00     0.031 A 
HETATM   18  C   UNL     1      -0.225   8.433  27.069  0.00  0.00     0.002 A 
HETATM   19  C   UNL     1      -0.888   8.586  28.279  0.00  0.00     0.000 A 
HETATM   20  C   UNL     1      -1.768   9.649  28.459  0.00  0.00     0.002 A 
HETATM   21  C   UNL     1      -1.991  10.580  27.431  0.00  0.00     0.031 A 
ENDBRANCH  15  16
ENDBRANCH   8  11
BRANCH   9  22
HETATM   22  O   UNL     1      -0.925  13.422  27.727  0.00  0.00    -0.360 OA
HETATM   23  H   UNL     1      -0.627  13.637  28.629  0.00  0.00     0.217 HD
ENDBRANCH   9  22
BRANCH   1  24
HETATM   24  C   UNL     1       3.870  15.718  23.567  0.00  0.00     0.100 C 
BRANCH  24  25
HETATM   25  C   UNL     1       5.012  14.773  23.262  0.00  0.00    -0.052 A 
HETATM   26  C   UNL     1       6.331  15.235  23.117  0.00  0.00     0.007 A 
HETATM   27  C   UNL     1       7.333  14.395  22.625  0.00  0.00     0.001 A 
HETATM   28  C   UNL     1       7.032  13.081  22.274  0.00  0.00     0.000 A 
HETATM   29  C   UNL     1       5.738  12.596  22.445  0.00  0.00     0.001 A 
HETATM   30  C   UNL     1       4.736  13.434  22.941  0.00  0.00     0.007 A 
ENDBRANCH  24  25
ENDBRANCH   1  24
TORSDOF 5
ENDMDL
MODEL 2
REMARK VINA RESULT:    -8.971      4.325      8.327
REMARK INTER + INTRA:         -12.368
REMARK INTER:                 -10.722
REMARK INTRA:                  -1.646
REMARK UNBOUND:                -1.037
REMARK  5 active torsions:
REMARK  status: ('A' for Active; 'I' for Inactive)
REMARK    1  A    between atoms: C_6  and  C_7 
REMARK    2  A    between atoms: C_7  and  C_8 
REMARK    3  A    between atoms: C_15  and  C_19 
REMARK    4  A    between atoms: C_16  and  O_18 
REMARK    5  A    between atoms: N_23  and  C_24 
ROOT
HETATM    1  C   UNL     1       5.758  14.887  25.427  0.00  0.00     0.071 A 
HETATM    2  N   UNL     1       6.231  14.961  26.684  0.00  0.00    -0.178 NA
HETATM    3  N   UNL     1       6.957  13.847  26.830  0.00  0.00    -0.277 N 
HETATM    4  H   UNL     1       7.399  13.675  27.723  0.00  0.00     0.189 HD
HETATM    5  C   UNL     1       6.181  13.685  24.778  0.00  0.00     0.020 A 
HETATM    6  C   UNL     1       6.955  13.031  25.729  0.00  0.00     0.065 A 
HETATM    7  C   UNL     1       5.953  13.045  23.531  0.00  0.00     0.032 A 
HETATM    8  C   UNL     1       6.530  11.786  23.241  0.00  0.00     0.027 A 
HETATM    9  C   UNL     1       7.291  11.186  24.265  0.00  0.00     0.080 A 
HETATM   10  C   UNL     1       7.524  11.781  25.516  0.00  0.00     0.069 A 
ENDROOT
BRANCH   8  11
HETATM   11  C   UNL     1       6.216  11.061  21.976  0.00  0.00     0.073 C 
HETATM   12  C   UNL     1       5.090  10.269  21.737  0.00  0.00     0.053 C 
HETATM   13  C   UNL     1       5.064  10.001  20.374  0.00  0.00     0.141 C 
HETATM   14  N   UNL     1       6.094  10.543  19.750  0.00  0.00    -0.179 NA
HETATM   15  N   UNL     1       6.902  11.041  20.740  0.00  0.00    -0.234 N 
BRANCH  15  16
HETATM   16  C   UNL     1       8.233  11.402  20.346  0.00  0.00     0.059 A 
HETATM   17  C   UNL     1       9.313  10.713  20.944  0.00  0.00     0.031 A 
HETATM   18  C   UNL     1      10.638  11.009  20.615  0.00  0.00     0.002 A 
HETATM   19  C   UNL     1      10.903  11.999  19.678  0.00  0.00     0.000 A 
HETATM   20  C   UNL     1       9.853  12.710  19.104  0.00  0.00     0.002 A 
HETATM   21  C   UNL     1       8.521  12.432  19.452  0.00  0.00     0.031 A 
ENDBRANCH  15  16
ENDBRANCH   8  11
BRANCH   9  22
HETATM   22  O   UNL     1       7.820   9.926  24.137  0.00  0.00    -0.360 OA
HETATM   23  H   UNL     1       7.203   9.342  24.613  0.00  0.00     0.217 HD
ENDBRANCH   9  22
BRANCH   1  24
HETATM   24  C   UNL     1       4.763  15.890  24.944  0.00  0.00     0.100 C 
BRANCH  24  25
HETATM   25  C   UNL     1       3.368  15.304  24.961  0.00  0.00    -0.052 A 
HETATM   26  C   UNL     1       2.737  14.940  26.162  0.00  0.00     0.007 A 
HETATM   27  C   UNL     1       1.549  14.205  26.151  0.00  0.00     0.001 A 
HETATM   28  C   UNL     1       0.973  13.827  24.940  0.00  0.00     0.000 A 
HETATM   29  C   UNL     1       1.566  14.210  23.741  0.00  0.00     0.001 A 
HETATM   30  C   UNL     1       2.753  14.948  23.750  0.00  0.00     0.007 A 
ENDBRANCH  24  25
ENDBRANCH   1  24
TORSDOF 5
ENDMDL
MODEL 3
REMARK VINA RESULT:    -8.886      4.479      8.899
REMARK INTER + INTRA:         -12.261
REMARK INTER:                 -10.801
REMARK INTRA:                  -1.460
REMARK UNBOUND:                -1.037
REMARK  5 active torsions:
REMARK  status: ('A' for Active; 'I' for Inactive)
REMARK    1  A    between atoms: C_6  and  C_7 
REMARK    2  A    between atoms: C_7  and  C_8 
REMARK    3  A    between atoms: C_15  and  C_19 
REMARK    4  A    between atoms: C_16  and  O_18 
REMARK    5  A    between atoms: N_23  and  C_24 
ROOT
HETATM    1  C   UNL     1       3.305  11.851  23.465  0.00  0.00     0.071 A 
HETATM    2  N   UNL     1       2.846  10.755  24.096  0.00  0.00    -0.178 NA
HETATM    3  N   UNL     1       3.860   9.884  24.021  0.00  0.00    -0.277 N 
HETATM    4  H   UNL     1       3.730   8.962  24.418  0.00  0.00     0.189 HD
HETATM    5  C   UNL     1       4.629  11.652  22.963  0.00  0.00     0.020 A 
HETATM    6  C   UNL     1       4.951  10.354  23.341  0.00  0.00     0.065 A 
HETATM    7  C   UNL     1       5.565  12.385  22.187  0.00  0.00     0.032 A 
HETATM    8  C   UNL     1       6.816  11.828  21.834  0.00  0.00     0.027 A 
HETATM    9  C   UNL     1       7.059  10.501  22.246  0.00  0.00     0.080 A 
HETATM   10  C   UNL     1       6.151   9.739  23.000  0.00  0.00     0.069 A 
ENDROOT
BRANCH   8  11
HETATM   11  C   UNL     1       7.762  12.551  20.935  0.00  0.00     0.073 C 
HETATM   12  C   UNL     1       8.046  12.230  19.606  0.00  0.00     0.053 C 
HETATM   13  C   UNL     1       8.768  13.293  19.077  0.00  0.00     0.141 C 
HETATM   14  N   UNL     1       8.975  14.237  19.975  0.00  0.00    -0.179 NA
HETATM   15  N   UNL     1       8.524  13.721  21.162  0.00  0.00    -0.234 N 
BRANCH  15  16
HETATM   16  C   UNL     1       8.920  14.424  22.348  0.00  0.00     0.059 A 
HETATM   17  C   UNL     1      10.117  15.176  22.307  0.00  0.00     0.031 A 
HETATM   18  C   UNL     1      10.570  15.886  23.421  0.00  0.00     0.002 A 
HETATM   19  C   UNL     1       9.830  15.856  24.596  0.00  0.00     0.000 A 
HETATM   20  C   UNL     1       8.667  15.094  24.664  0.00  0.00     0.002 A 
HETATM   21  C   UNL     1       8.222  14.359  23.553  0.00  0.00     0.031 A 
ENDBRANCH  15  16
ENDBRANCH   8  11
BRANCH   9  22
HETATM   22  O   UNL     1       8.194   9.822  21.882  0.00  0.00    -0.360 OA
HETATM   23  H   UNL     1       8.897  10.495  21.861  0.00  0.00     0.217 HD
ENDBRANCH   9  22
BRANCH   1  24
HETATM   24  C   UNL     1       2.388  13.000  23.205  0.00  0.00     0.100 C 
BRANCH  24  25
HETATM   25  C   UNL     1       2.769  14.187  24.063  0.00  0.00    -0.052 A 
HETATM   26  C   UNL     1       3.704  15.141  23.627  0.00  0.00     0.007 A 
HETATM   27  C   UNL     1       4.207  16.103  24.506  0.00  0.00     0.001 A 
HETATM   28  C   UNL     1       3.780  16.127  25.832  0.00  0.00     0.000 A 
HETATM   29  C   UNL     1       2.829  15.212  26.272  0.00  0.00     0.001 A 
HETATM   30  C   UNL     1       2.321  14.252  25.393  0.00  0.00     0.007 A 
ENDBRANCH  24  25
ENDBRANCH   1  24
TORSDOF 5
ENDMDL
MODEL 4
REMARK VINA RESULT:    -8.885      5.005      8.772
REMARK INTER + INTRA:         -12.259
REMARK INTER:                 -10.048
REMARK INTRA:                  -2.211
REMARK UNBOUND:                -1.037
REMARK  5 active torsions:
REMARK  status: ('A' for Active; 'I' for Inactive)
REMARK    1  A    between atoms: C_6  and  C_7 
REMARK    2  A    between atoms: C_7  and  C_8 
REMARK    3  A    between atoms: C_15  and  C_19 
REMARK    4  A    between atoms: C_16  and  O_18 
REMARK    5  A    between atoms: N_23  and  C_24 
ROOT
HETATM    1  C   UNL     1       6.037  10.324  21.231  0.00  0.00     0.071 A 
HETATM    2  N   UNL     1       6.164  10.133  19.905  0.00  0.00    -0.178 NA
HETATM    3  N   UNL     1       7.211  10.893  19.561  0.00  0.00    -0.277 N 
HETATM    4  H   UNL     1       7.482  10.924  18.587  0.00  0.00     0.189 HD
HETATM    5  C   UNL     1       7.016  11.243  21.724  0.00  0.00     0.020 A 
HETATM    6  C   UNL     1       7.757  11.596  20.602  0.00  0.00     0.065 A 
HETATM    7  C   UNL     1       7.323  11.864  22.964  0.00  0.00     0.032 A 
HETATM    8  C   UNL     1       8.385  12.793  23.071  0.00  0.00     0.027 A 
HETATM    9  C   UNL     1       9.077  13.105  21.883  0.00  0.00     0.080 A 
HETATM   10  C   UNL     1       8.791  12.524  20.636  0.00  0.00     0.069 A 
ENDROOT
BRANCH   8  11
HETATM   11  C   UNL     1       8.650  13.524  24.344  0.00  0.00     0.073 C 
HETATM   12  C   UNL     1       9.758  13.353  25.177  0.00  0.00     0.053 C 
HETATM   13  C   UNL     1       9.736  14.394  26.099  0.00  0.00     0.141 C 
HETATM   14  N   UNL     1       8.694  15.183  25.920  0.00  0.00    -0.179 NA
HETATM   15  N   UNL     1       7.924  14.564  24.968  0.00  0.00    -0.234 N 
BRANCH  15  16
HETATM   16  C   UNL     1       6.585  15.057  24.821  0.00  0.00     0.059 A 
HETATM   17  C   UNL     1       5.755  15.078  25.966  0.00  0.00     0.031 A 
HETATM   18  C   UNL     1       4.438  15.541  25.903  0.00  0.00     0.002 A 
HETATM   19  C   UNL     1       3.932  15.993  24.692  0.00  0.00     0.000 A 
HETATM   20  C   UNL     1       4.725  15.949  23.548  0.00  0.00     0.002 A 
HETATM   21  C   UNL     1       6.040  15.460  23.603  0.00  0.00     0.031 A 
ENDBRANCH  15  16
ENDBRANCH   8  11
BRANCH   9  22
HETATM   22  O   UNL     1      10.061  14.061  21.843  0.00  0.00    -0.360 OA
HETATM   23  H   UNL     1       9.590  14.912  21.897  0.00  0.00     0.217 HD
ENDBRANCH   9  22
BRANCH   1  24
HETATM   24  C   UNL     1       4.864   9.754  21.957  0.00  0.00     0.100 C 
BRANCH  24  25
HETATM   25  C   UNL     1       4.302  10.766  22.932  0.00  0.00    -0.052 A 
HETATM   26  C   UNL     1       4.256  10.512  24.313  0.00  0.00     0.007 A 
HETATM   27  C   UNL     1       3.543  11.352  25.172  0.00  0.00     0.001 A 
HETATM   28  C   UNL     1       2.867  12.460  24.662  0.00  0.00     0.000 A 
HETATM   29  C   UNL     1       2.932  12.746  23.302  0.00  0.00     0.001 A 
HETATM   30  C   UNL     1       3.648  11.909  22.442  0.00  0.00     0.007 A 
ENDBRANCH  24  25
ENDBRANCH   1  24
TORSDOF 5
ENDMDL
MODEL 5
REMARK VINA RESULT:    -8.777      3.470      5.828
REMARK INTER + INTRA:         -12.123
REMARK INTER:                 -10.308
REMARK INTRA:                  -1.816
REMARK UNBOUND:                -1.037
REMARK  5 active torsions:
REMARK  status: ('A' for Active; 'I' for Inactive)
REMARK    1  A    between atoms: C_6  and  C_7 
REMARK    2  A    between atoms: C_7  and  C_8 
REMARK    3  A    between atoms: C_15  and  C_19 
REMARK    4  A    between atoms: C_16  and  O_18 
REMARK    5  A    between atoms: N_23  and  C_24 
ROOT
HETATM    1  C   UNL     1       7.256  13.358  22.690  0.00  0.00     0.071 A 
HETATM    2  N   UNL     1       8.023  13.435  21.588  0.00  0.00    -0.178 NA
HETATM    3  N   UNL     1       7.551  12.470  20.789  0.00  0.00    -0.277 N 
HETATM    4  H   UNL     1       8.001  12.324  19.895  0.00  0.00     0.189 HD
HETATM    5  C   UNL     1       6.295  12.304  22.587  0.00  0.00     0.020 A 
HETATM    6  C   UNL     1       6.526  11.745  21.336  0.00  0.00     0.065 A 
HETATM    7  C   UNL     1       5.306  11.718  23.420  0.00  0.00     0.032 A 
HETATM    8  C   UNL     1       4.540  10.613  22.978  0.00  0.00     0.027 A 
HETATM    9  C   UNL     1       4.846  10.100  21.702  0.00  0.00     0.080 A 
HETATM   10  C   UNL     1       5.829  10.642  20.856  0.00  0.00     0.069 A 
ENDROOT
BRANCH   8  11
HETATM   11  C   UNL     1       3.571   9.929  23.883  0.00  0.00     0.073 C 
HETATM   12  C   UNL     1       3.638   8.602  24.312  0.00  0.00     0.053 C 
HETATM   13  C   UNL     1       2.700   8.456  25.327  0.00  0.00     0.141 C 
HETATM   14  N   UNL     1       2.040   9.577  25.548  0.00  0.00    -0.179 NA
HETATM   15  N   UNL     1       2.434  10.436  24.554  0.00  0.00    -0.234 N 
BRANCH  15  16
HETATM   16  C   UNL     1       1.632  11.613  24.382  0.00  0.00     0.059 A 
HETATM   17  C   UNL     1       0.227  11.459  24.337  0.00  0.00     0.031 A 
HETATM   18  C   UNL     1      -0.621  12.557  24.170  0.00  0.00     0.002 A 
HETATM   19  C   UNL     1      -0.076  13.828  24.048  0.00  0.00     0.000 A 
HETATM   20  C   UNL     1       1.307  13.993  24.058  0.00  0.00     0.002 A 
HETATM   21  C   UNL     1       2.163  12.889  24.200  0.00  0.00     0.031 A 
ENDBRANCH  15  16
ENDBRANCH   8  11
BRANCH   9  22
HETATM   22  O   UNL     1       4.239   8.974  21.205  0.00  0.00    -0.360 OA
HETATM   23  H   UNL     1       4.948   8.481  20.754  0.00  0.00     0.217 HD
ENDBRANCH   9  22
BRANCH   1  24
HETATM   24  C   UNL     1       7.586  14.186  23.887  0.00  0.00     0.100 C 
BRANCH  24  25
HETATM   25  C   UNL     1       6.377  14.978  24.334  0.00  0.00    -0.052 A 
HETATM   26  C   UNL     1       5.906  14.921  25.656  0.00  0.00     0.007 A 
HETATM   27  C   UNL     1       4.672  15.479  26.001  0.00  0.00     0.001 A 
HETATM   28  C   UNL     1       3.894  16.106  25.029  0.00  0.00     0.000 A 
HETATM   29  C   UNL     1       4.362  16.203  23.722  0.00  0.00     0.001 A 
HETATM   30  C   UNL     1       5.597  15.648  23.377  0.00  0.00     0.007 A 
ENDBRANCH  24  25
ENDBRANCH   1  24
TORSDOF 5
ENDMDL
MODEL 6
REMARK VINA RESULT:    -8.747      5.326      8.044
REMARK INTER + INTRA:         -12.085
REMARK INTER:                 -10.473
REMARK INTRA:                  -1.612
REMARK UNBOUND:                -1.037
REMARK  5 active torsions:
REMARK  status: ('A' for Active; 'I' for Inactive)
REMARK    1  A    between atoms: C_6  and  C_7 
REMARK    2  A    between atoms: C_7  and  C_8 
REMARK    3  A    between atoms: C_15  and  C_19 
REMARK    4  A    between atoms: C_16  and  O_18 
REMARK    5  A    between atoms: N_23  and  C_24 
ROOT
HETATM    1  C   UNL     1       7.591  14.033  25.025  0.00  0.00     0.071 A 
HETATM    2  N   UNL     1       6.976  14.946  25.797  0.00  0.00    -0.178 NA
HETATM    3  N   UNL     1       5.682  14.833  25.474  0.00  0.00    -0.277 N 
HETATM    4  H   UNL     1       5.019  15.452  25.924  0.00  0.00     0.189 HD
HETATM    5  C   UNL     1       6.661  13.347  24.182  0.00  0.00     0.020 A 
HETATM    6  C   UNL     1       5.428  13.904  24.500  0.00  0.00     0.065 A 
HETATM    7  C   UNL     1       6.720  12.374  23.150  0.00  0.00     0.032 A 
HETATM    8  C   UNL     1       5.548  11.947  22.482  0.00  0.00     0.027 A 
HETATM    9  C   UNL     1       4.341  12.571  22.857  0.00  0.00     0.080 A 
HETATM   10  C   UNL     1       4.246  13.549  23.861  0.00  0.00     0.069 A 
ENDROOT
BRANCH   8  11
HETATM   11  C   UNL     1       5.613  11.000  21.330  0.00  0.00     0.073 C 
HETATM   12  C   UNL     1       4.665  10.027  21.009  0.00  0.00     0.053 C 
HETATM   13  C   UNL     1       4.982   9.554  19.740  0.00  0.00     0.141 C 
HETATM   14  N   UNL     1       6.063  10.139  19.259  0.00  0.00    -0.179 NA
HETATM   15  N   UNL     1       6.563  10.893  20.289  0.00  0.00    -0.234 N 
BRANCH  15  16
HETATM   16  C   UNL     1       7.903  11.379  20.123  0.00  0.00     0.059 A 
HETATM   17  C   UNL     1       8.926  10.782  20.895  0.00  0.00     0.031 A 
HETATM   18  C   UNL     1      10.255  11.202  20.792  0.00  0.00     0.002 A 
HETATM   19  C   UNL     1      10.580  12.226  19.912  0.00  0.00     0.000 A 
HETATM   20  C   UNL     1       9.580  12.846  19.169  0.00  0.00     0.002 A 
HETATM   21  C   UNL     1       8.240  12.443  19.289  0.00  0.00     0.031 A 
ENDBRANCH  15  16
ENDBRANCH   8  11
BRANCH   9  22
HETATM   22  O   UNL     1       3.156  12.310  22.216  0.00  0.00    -0.360 OA
HETATM   23  H   UNL     1       2.483  12.301  22.919  0.00  0.00     0.217 HD
ENDBRANCH   9  22
BRANCH   1  24
HETATM   24  C   UNL     1       9.082  13.968  24.990  0.00  0.00     0.100 C 
BRANCH  24  25
HETATM   25  C   UNL     1       9.628  14.899  23.929  0.00  0.00    -0.052 A 
HETATM   26  C   UNL     1      10.262  16.107  24.263  0.00  0.00     0.007 A 
HETATM   27  C   UNL     1      10.564  17.053  23.280  0.00  0.00     0.001 A 
HETATM   28  C   UNL     1      10.241  16.802  21.948  0.00  0.00     0.000 A 
HETATM   29  C   UNL     1       9.645  15.595  21.594  0.00  0.00     0.001 A 
HETATM   30  C   UNL     1       9.346  14.647  22.576  0.00  0.00     0.007 A 
ENDBRANCH  24  25
ENDBRANCH   1  24
TORSDOF 5
ENDMDL
MODEL 7
REMARK VINA RESULT:    -8.548      4.742      8.401
REMARK INTER + INTRA:         -11.834
REMARK INTER:                 -10.119
REMARK INTRA:                  -1.715
REMARK UNBOUND:                -1.037
REMARK  5 active torsions:
REMARK  status: ('A' for Active; 'I' for Inactive)
REMARK    1  A    between atoms: C_6  and  C_7 
REMARK    2  A    between atoms: C_7  and  C_8 
REMARK    3  A    between atoms: C_15  and  C_19 
REMARK    4  A    between atoms: C_16  and  O_18 
REMARK    5  A    between atoms: N_23  and  C_24 
ROOT
HETATM    1  C   UNL     1       5.934  15.251  24.743  0.00  0.00     0.071 A 
HETATM    2  N   UNL     1       5.821  15.330  26.081  0.00  0.00    -0.178 NA
HETATM    3  N   UNL     1       6.899  14.682  26.541  0.00  0.00    -0.277 N 
HETATM    4  H   UNL     1       7.013  14.592  27.542  0.00  0.00     0.189 HD
HETATM    5  C   UNL     1       7.098  14.516  24.357  0.00  0.00     0.020 A 
HETATM    6  C   UNL     1       7.696  14.156  25.559  0.00  0.00     0.065 A 
HETATM    7  C   UNL     1       7.683  14.061  23.145  0.00  0.00     0.032 A 
HETATM    8  C   UNL     1       8.869  13.290  23.152  0.00  0.00     0.027 A 
HETATM    9  C   UNL     1       9.403  12.958  24.414  0.00  0.00     0.080 A 
HETATM   10  C   UNL     1       8.844  13.376  25.633  0.00  0.00     0.069 A 
ENDROOT
BRANCH   8  11
HETATM   11  C   UNL     1       9.433  12.724  21.892  0.00  0.00     0.073 C 
HETATM   12  C   UNL     1      10.601  13.142  21.250  0.00  0.00     0.053 C 
HETATM   13  C   UNL     1      10.890  12.195  20.275  0.00  0.00     0.141 C 
HETATM   14  N   UNL     1       9.984  11.235  20.243  0.00  0.00    -0.179 NA
HETATM   15  N   UNL     1       8.993  11.637  21.102  0.00  0.00    -0.234 N 
BRANCH  15  16
HETATM   16  C   UNL     1       7.752  10.923  21.012  0.00  0.00     0.059 A 
HETATM   17  C   UNL     1       7.353  10.141  22.120  0.00  0.00     0.031 A 
HETATM   18  C   UNL     1       6.159   9.415  22.108  0.00  0.00     0.002 A 
HETATM   19  C   UNL     1       5.344   9.463  20.985  0.00  0.00     0.000 A 
HETATM   20  C   UNL     1       5.738  10.202  19.872  0.00  0.00     0.002 A 
HETATM   21  C   UNL     1       6.949  10.912  19.872  0.00  0.00     0.031 A 
ENDBRANCH  15  16
ENDBRANCH   8  11
BRANCH   9  22
HETATM   22  O   UNL     1      10.494  12.137  24.550  0.00  0.00    -0.360 OA
HETATM   23  H   UNL     1      10.858  12.047  23.651  0.00  0.00     0.217 HD
ENDBRANCH   9  22
BRANCH   1  24
HETATM   24  C   UNL     1       4.821  15.732  23.872  0.00  0.00     0.100 C 
BRANCH  24  25
HETATM   25  C   UNL     1       3.736  14.683  23.770  0.00  0.00    -0.052 A 
HETATM   26  C   UNL     1       3.994  13.405  23.246  0.00  0.00     0.007 A 
HETATM   27  C   UNL     1       2.947  12.526  22.957  0.00  0.00     0.001 A 
HETATM   28  C   UNL     1       1.628  12.910  23.190  0.00  0.00     0.000 A 
HETATM   29  C   UNL     1       1.357  14.159  23.742  0.00  0.00     0.001 A 
HETATM   30  C   UNL     1       2.403  15.037  24.036  0.00  0.00     0.007 A 
ENDBRANCH  24  25
ENDBRANCH   1  24
TORSDOF 5
ENDMDL
MODEL 8
REMARK VINA RESULT:    -8.504      3.878      8.335
REMARK INTER + INTRA:         -11.778
REMARK INTER:                 -10.341
REMARK INTRA:                  -1.437
REMARK UNBOUND:                -1.037
REMARK  5 active torsions:
REMARK  status: ('A' for Active; 'I' for Inactive)
REMARK    1  A    between atoms: C_6  and  C_7 
REMARK    2  A    between atoms: C_7  and  C_8 
REMARK    3  A    between atoms: C_15  and  C_19 
REMARK    4  A    between atoms: C_16  and  O_18 
REMARK    5  A    between atoms: N_23  and  C_24 
ROOT
HETATM    1  C   UNL     1       3.723   9.944  23.751  0.00  0.00     0.071 A 
HETATM    2  N   UNL     1       3.243   8.791  23.253  0.00  0.00    -0.178 NA
HETATM    3  N   UNL     1       3.959   8.589  22.140  0.00  0.00    -0.277 N 
HETATM    4  H   UNL     1       3.751   7.776  21.576  0.00  0.00     0.189 HD
HETATM    5  C   UNL     1       4.750  10.489  22.918  0.00  0.00     0.020 A 
HETATM    6  C   UNL     1       4.868   9.579  21.874  0.00  0.00     0.065 A 
HETATM    7  C   UNL     1       5.545  11.665  22.887  0.00  0.00     0.032 A 
HETATM    8  C   UNL     1       6.468  11.895  21.839  0.00  0.00     0.027 A 
HETATM    9  C   UNL     1       6.516  10.928  20.814  0.00  0.00     0.080 A 
HETATM   10  C   UNL     1       5.734   9.761  20.802  0.00  0.00     0.069 A 
ENDROOT
BRANCH   8  11
HETATM   11  C   UNL     1       7.233  13.172  21.745  0.00  0.00     0.073 C 
HETATM   12  C   UNL     1       8.358  13.403  20.951  0.00  0.00     0.053 C 
HETATM   13  C   UNL     1       8.593  14.772  20.968  0.00  0.00     0.141 C 
HETATM   14  N   UNL     1       7.719  15.408  21.727  0.00  0.00    -0.179 NA
HETATM   15  N   UNL     1       6.993  14.427  22.351  0.00  0.00    -0.234 N 
BRANCH  15  16
HETATM   16  C   UNL     1       6.190  14.847  23.464  0.00  0.00     0.059 A 
HETATM   17  C   UNL     1       5.061  15.657  23.200  0.00  0.00     0.031 A 
HETATM   18  C   UNL     1       4.232  16.108  24.230  0.00  0.00     0.002 A 
HETATM   19  C   UNL     1       4.519  15.753  25.541  0.00  0.00     0.000 A 
HETATM   20  C   UNL     1       5.645  14.983  25.821  0.00  0.00     0.002 A 
HETATM   21  C   UNL     1       6.495  14.549  24.791  0.00  0.00     0.031 A 
ENDBRANCH  15  16
ENDBRANCH   8  11
BRANCH   9  22
HETATM   22  O   UNL     1       7.300  11.088  19.699  0.00  0.00    -0.360 OA
HETATM   23  H   UNL     1       8.137  11.461  20.029  0.00  0.00     0.217 HD
ENDBRANCH   9  22
BRANCH   1  24
HETATM   24  C   UNL     1       3.057  10.584  24.924  0.00  0.00     0.100 C 
BRANCH  24  25
HETATM   25  C   UNL     1       2.034  11.599  24.464  0.00  0.00    -0.052 A 
HETATM   26  C   UNL     1       2.377  12.944  24.245  0.00  0.00     0.007 A 
HETATM   27  C   UNL     1       1.389  13.909  24.034  0.00  0.00     0.001 A 
HETATM   28  C   UNL     1       0.044  13.543  24.034  0.00  0.00     0.000 A 
HETATM   29  C   UNL     1      -0.311  12.209  24.213  0.00  0.00     0.001 A 
HETATM   30  C   UNL     1       0.676  11.242  24.421  0.00  0.00     0.007 A 
ENDBRANCH  24  25
ENDBRANCH   1  24
TORSDOF 5
ENDMDL
MODEL 9
REMARK VINA RESULT:    -8.424      3.111      7.837
REMARK INTER + INTRA:         -11.677
REMARK INTER:                 -10.640
REMARK INTRA:                  -1.037
REMARK UNBOUND:                -1.037
REMARK  5 active torsions:
REMARK  status: ('A' for Active; 'I' for Inactive)
REMARK    1  A    between atoms: C_6  and  C_7 
REMARK    2  A    between atoms: C_7  and  C_8 
REMARK    3  A    between atoms: C_15  and  C_19 
REMARK    4  A    between atoms: C_16  and  O_18 
REMARK    5  A    between atoms: N_23  and  C_24 
ROOT
HETATM    1  C   UNL     1       1.982  13.822  23.980  0.00  0.00     0.071 A 
HETATM    2  N   UNL     1       1.344  14.077  25.137  0.00  0.00    -0.178 NA
HETATM    3  N   UNL     1       2.292  14.592  25.929  0.00  0.00    -0.277 N 
HETATM    4  H   UNL     1       2.042  14.843  26.877  0.00  0.00     0.189 HD
HETATM    5  C   UNL     1       3.368  14.165  24.058  0.00  0.00     0.020 A 
HETATM    6  C   UNL     1       3.531  14.658  25.348  0.00  0.00     0.065 A 
HETATM    7  C   UNL     1       4.510  14.063  23.221  0.00  0.00     0.032 A 
HETATM    8  C   UNL     1       5.783  14.487  23.669  0.00  0.00     0.027 A 
HETATM    9  C   UNL     1       5.864  14.961  24.994  0.00  0.00     0.080 A 
HETATM   10  C   UNL     1       4.760  15.062  25.857  0.00  0.00     0.069 A 
ENDROOT
BRANCH   8  11
HETATM   11  C   UNL     1       7.004  14.290  22.835  0.00  0.00     0.073 C 
HETATM   12  C   UNL     1       7.497  15.174  21.873  0.00  0.00     0.053 C 
HETATM   13  C   UNL     1       8.768  14.730  21.527  0.00  0.00     0.141 C 
HETATM   14  N   UNL     1       9.094  13.629  22.177  0.00  0.00    -0.179 NA
HETATM   15  N   UNL     1       7.959  13.247  22.845  0.00  0.00    -0.234 N 
BRANCH  15  16
HETATM   16  C   UNL     1       7.957  11.914  23.375  0.00  0.00     0.059 A 
HETATM   17  C   UNL     1       8.970  11.563  24.297  0.00  0.00     0.031 A 
HETATM   18  C   UNL     1       9.036  10.284  24.855  0.00  0.00     0.002 A 
HETATM   19  C   UNL     1       8.087   9.335  24.499  0.00  0.00     0.000 A 
HETATM   20  C   UNL     1       7.103   9.654  23.567  0.00  0.00     0.002 A 
HETATM   21  C   UNL     1       7.048  10.931  22.986  0.00  0.00     0.031 A 
ENDBRANCH  15  16
ENDBRANCH   8  11
BRANCH   9  22
HETATM   22  O   UNL     1       7.059  15.309  25.571  0.00  0.00    -0.360 OA
HETATM   23  H   UNL     1       6.904  15.252  26.531  0.00  0.00     0.217 HD
ENDBRANCH   9  22
BRANCH   1  24
HETATM   24  C   UNL     1       1.278  13.087  22.888  0.00  0.00     0.100 C 
BRANCH  24  25
HETATM   25  C   UNL     1      -0.009  12.480  23.402  0.00  0.00    -0.052 A 
HETATM   26  C   UNL     1      -0.016  11.288  24.146  0.00  0.00     0.007 A 
HETATM   27  C   UNL     1      -1.215  10.626  24.426  0.00  0.00     0.001 A 
HETATM   28  C   UNL     1      -2.423  11.148  23.969  0.00  0.00     0.000 A 
HETATM   29  C   UNL     1      -2.438  12.347  23.261  0.00  0.00     0.001 A 
HETATM   30  C   UNL     1      -1.240  13.011  22.984  0.00  0.00     0.007 A 
ENDBRANCH  24  25
ENDBRANCH   1  24
TORSDOF 5
ENDMDL
