MODEL 1
REMARK VINA RESULT:    -8.988      0.000      0.000
REMARK INTER + INTRA:         -12.235
REMARK INTER:                 -11.869
REMARK INTRA:                  -0.365
REMARK UNBOUND:                -0.882
REMARK  5 active torsions:
REMARK  status: ('A' for Active; 'I' for Inactive)
REMARK       I    between atoms: C_2  and  N_3 
REMARK    1  A    between atoms: C_2  and  C_17 
REMARK    2  A    between atoms: N_3  and  C_5 
REMARK    3  A    between atoms: C_8  and  N_9 
REMARK    4  A    between atoms: C_18  and  O_19 
REMARK    5  A    between atoms: C_25  and  C_26 
REMARK       I    between atoms: C_26  and  N_28 
ROOT
HETATM    1  C   UNL     1       6.264  11.863  20.725  0.00  0.00     0.066 A 
HETATM    2  C   UNL     1       5.027  12.330  21.213  0.00  0.00     0.083 A 
HETATM    3  C   UNL     1       4.935  13.373  22.139  0.00  0.00     0.069 A 
HETATM    4  C   UNL     1       6.131  13.949  22.558  0.00  0.00     0.065 A 
HETATM    5  N   UNL     1       6.385  14.977  23.420  0.00  0.00    -0.277 N 
HETATM    6  H   UNL     1       5.708  15.534  23.931  0.00  0.00     0.189 HD
HETATM    7  N   UNL     1       7.685  15.269  23.560  0.00  0.00    -0.168 NA
HETATM    8  C   UNL     1       8.309  14.441  22.698  0.00  0.00     0.157 C 
HETATM    9  C   UNL     1       7.378  13.520  22.122  0.00  0.00     0.029 A 
HETATM   10  C   UNL     1       7.449  12.419  21.242  0.00  0.00     0.036 A 
ENDROOT
BRANCH   1  11
HETATM   11  C   UNL     1       6.278  10.744  19.727  0.00  0.00     0.260 C 
HETATM   12  O   UNL     1       6.707  11.066  18.614  0.00  0.00    -0.267 OA
HETATM   13  N   UNL     1       5.856   9.442  20.072  0.00  0.00    -0.318 N 
HETATM   14  C   UNL     1       5.886   8.957  21.457  0.00  0.00     0.159 C 
BRANCH  13  15
HETATM   15  C   UNL     1       5.427   8.487  19.065  0.00  0.00     0.037 A 
HETATM   16  C   UNL     1       4.728   8.868  17.917  0.00  0.00     0.032 A 
HETATM   17  C   UNL     1       4.207   7.918  17.026  0.00  0.00     0.031 A 
HETATM   18  C   UNL     1       4.349   6.543  17.232  0.00  0.00     0.030 A 
HETATM   19  C   UNL     1       5.106   6.159  18.335  0.00  0.00     0.031 A 
HETATM   20  C   UNL     1       5.628   7.106  19.233  0.00  0.00     0.032 A 
BRANCH  18  21
HETATM   21  N   UNL     1       3.757   5.649  16.360  0.00  0.00    -0.377 N 
HETATM   22  C   UNL     1       3.189   4.366  16.797  0.00  0.00     0.149 C 
HETATM   23  C   UNL     1       1.656   4.385  16.748  0.00  0.00     0.187 C 
HETATM   24  O   UNL     1       1.171   4.790  15.456  0.00  0.00    -0.388 OA
HETATM   25  C   UNL     1       1.639   6.113  15.151  0.00  0.00     0.187 C 
HETATM   26  C   UNL     1       3.176   6.180  15.110  0.00  0.00     0.149 C 
ENDBRANCH  18  21
ENDBRANCH  13  15
ENDBRANCH   1  11
BRANCH   2  27
HETATM   27  O   UNL     1       3.822  11.793  20.834  0.00  0.00    -0.360 OA
HETATM   28  H   UNL     1       3.457  11.311  21.612  0.00  0.00     0.217 HD
ENDBRANCH   2  27
BRANCH   8  29
HETATM   29  C   UNL     1       9.754  14.518  22.398  0.00  0.00     0.275 C 
HETATM   30  O   UNL     1      10.130  14.764  21.249  0.00  0.00    -0.266 OA
HETATM   31  N   UNL     1      10.673  14.381  23.451  0.00  0.00    -0.347 N 
HETATM   32  C   UNL     1      12.095  14.246  23.145  0.00  0.00     0.126 C 
HETATM   33  C   UNL     1      10.321  14.253  24.868  0.00  0.00     0.126 C 
HETATM   34  C   UNL     1      12.946  15.184  24.004  0.00  0.00     0.020 C 
HETATM   35  C   UNL     1      12.640  15.004  25.489  0.00  0.00     0.003 C 
HETATM   36  C   UNL     1      11.151  15.188  25.741  0.00  0.00     0.020 C 
ENDBRANCH   8  29
TORSDOF 5
ENDMDL
MODEL 2
REMARK VINA RESULT:    -8.361      1.430      1.651
REMARK INTER + INTRA:         -11.443
REMARK INTER:                 -10.769
REMARK INTRA:                  -0.674
REMARK UNBOUND:                -0.882
REMARK  5 active torsions:
REMARK  status: ('A' for Active; 'I' for Inactive)
REMARK       I    between atoms: C_2  and  N_3 
REMARK    1  A    between atoms: C_2  and  C_17 
REMARK    2  A    between atoms: N_3  and  C_5 
REMARK    3  A    between atoms: C_8  and  N_9 
REMARK    4  A    between atoms: C_18  and  O_19 
REMARK    5  A    between atoms: C_25  and  C_26 
REMARK       I    between atoms: C_26  and  N_28 
ROOT
HETATM    1  C   UNL     1       5.122  12.525  21.379  0.00  0.00     0.066 A 
HETATM    2  C   UNL     1       3.857  12.816  21.926  0.00  0.00     0.083 A 
HETATM    3  C   UNL     1       3.669  13.817  22.884  0.00  0.00     0.069 A 
HETATM    4  C   UNL     1       4.797  14.534  23.273  0.00  0.00     0.065 A 
HETATM    5  N   UNL     1       4.952  15.566  24.153  0.00  0.00    -0.277 N 
HETATM    6  H   UNL     1       4.230  16.019  24.705  0.00  0.00     0.189 HD
HETATM    7  N   UNL     1       6.208  16.021  24.252  0.00  0.00    -0.168 NA
HETATM    8  C   UNL     1       6.897  15.301  23.344  0.00  0.00     0.157 C 
HETATM    9  C   UNL     1       6.070  14.280  22.779  0.00  0.00     0.029 A 
HETATM   10  C   UNL     1       6.246  13.218  21.866  0.00  0.00     0.036 A 
ENDROOT
BRANCH   1  11
HETATM   11  C   UNL     1       5.239  11.440  20.350  0.00  0.00     0.260 C 
HETATM   12  O   UNL     1       4.774  11.740  19.245  0.00  0.00    -0.267 OA
HETATM   13  N   UNL     1       5.859  10.206  20.645  0.00  0.00    -0.318 N 
HETATM   14  C   UNL     1       6.854  10.073  21.715  0.00  0.00     0.159 C 
BRANCH  13  15
HETATM   15  C   UNL     1       5.588   9.012  19.865  0.00  0.00     0.037 A 
HETATM   16  C   UNL     1       5.977   8.882  18.529  0.00  0.00     0.032 A 
HETATM   17  C   UNL     1       5.590   7.777  17.756  0.00  0.00     0.031 A 
HETATM   18  C   UNL     1       4.793   6.749  18.267  0.00  0.00     0.030 A 
HETATM   19  C   UNL     1       4.462   6.837  19.617  0.00  0.00     0.031 A 
HETATM   20  C   UNL     1       4.845   7.944  20.396  0.00  0.00     0.032 A 
BRANCH  18  21
HETATM   21  N   UNL     1       4.382   5.718  17.445  0.00  0.00    -0.377 N 
HETATM   22  C   UNL     1       4.660   4.305  17.736  0.00  0.00     0.149 C 
HETATM   23  C   UNL     1       3.391   3.560  18.171  0.00  0.00     0.187 C 
HETATM   24  O   UNL     1       2.326   3.726  17.219  0.00  0.00    -0.388 OA
HETATM   25  C   UNL     1       1.999   5.119  17.089  0.00  0.00     0.187 C 
HETATM   26  C   UNL     1       3.198   5.943  16.590  0.00  0.00     0.149 C 
ENDBRANCH  18  21
ENDBRANCH  13  15
ENDBRANCH   1  11
BRANCH   2  27
HETATM   27  O   UNL     1       2.716  12.135  21.578  0.00  0.00    -0.360 OA
HETATM   28  H   UNL     1       1.953  12.622  21.966  0.00  0.00     0.217 HD
ENDBRANCH   2  27
BRANCH   8  29
HETATM   29  C   UNL     1       8.307  15.571  22.992  0.00  0.00     0.275 C 
HETATM   30  O   UNL     1       8.574  16.170  21.947  0.00  0.00    -0.266 OA
HETATM   31  N   UNL     1       9.314  15.202  23.899  0.00  0.00    -0.347 N 
HETATM   32  C   UNL     1      10.712  15.271  23.480  0.00  0.00     0.126 C 
HETATM   33  C   UNL     1       9.086  14.640  25.233  0.00  0.00     0.126 C 
HETATM   34  C   UNL     1      11.578  15.979  24.524  0.00  0.00     0.020 C 
HETATM   35  C   UNL     1      11.404  15.350  25.905  0.00  0.00     0.003 C 
HETATM   36  C   UNL     1       9.932  15.339  26.290  0.00  0.00     0.020 C 
ENDBRANCH   8  29
TORSDOF 5
ENDMDL
MODEL 3
REMARK VINA RESULT:    -8.334      2.271      9.986
REMARK INTER + INTRA:         -11.409
REMARK INTER:                  -9.914
REMARK INTRA:                  -1.495
REMARK UNBOUND:                -0.882
REMARK  5 active torsions:
REMARK  status: ('A' for Active; 'I' for Inactive)
REMARK       I    between atoms: C_2  and  N_3 
REMARK    1  A    between atoms: C_2  and  C_17 
REMARK    2  A    between atoms: N_3  and  C_5 
REMARK    3  A    between atoms: C_8  and  N_9 
REMARK    4  A    between atoms: C_18  and  O_19 
REMARK    5  A    between atoms: C_25  and  C_26 
REMARK       I    between atoms: C_26  and  N_28 
ROOT
HETATM    1  C   UNL     1       5.474   9.739  18.531  0.00  0.00     0.066 A 
HETATM    2  C   UNL     1       4.480  10.112  17.604  0.00  0.00     0.083 A 
HETATM    3  C   UNL     1       3.745   9.171  16.879  0.00  0.00     0.069 A 
HETATM    4  C   UNL     1       4.029   7.829  17.120  0.00  0.00     0.065 A 
HETATM    5  N   UNL     1       3.490   6.686  16.605  0.00  0.00    -0.277 N 
HETATM    6  H   UNL     1       2.744   6.609  15.921  0.00  0.00     0.189 HD
HETATM    7  N   UNL     1       4.015   5.558  17.103  0.00  0.00    -0.168 NA
HETATM    8  C   UNL     1       4.889   5.980  18.038  0.00  0.00     0.157 C 
HETATM    9  C   UNL     1       5.007   7.406  18.010  0.00  0.00     0.029 A 
HETATM   10  C   UNL     1       5.785   8.375  18.678  0.00  0.00     0.036 A 
ENDROOT
BRANCH   1  11
HETATM   11  C   UNL     1       6.214  10.810  19.275  0.00  0.00     0.260 C 
HETATM   12  O   UNL     1       7.070  11.395  18.601  0.00  0.00    -0.267 OA
HETATM   13  N   UNL     1       5.915  11.117  20.620  0.00  0.00    -0.318 N 
HETATM   14  C   UNL     1       4.600  10.835  21.207  0.00  0.00     0.159 C 
BRANCH  13  15
HETATM   15  C   UNL     1       6.874  11.786  21.482  0.00  0.00     0.037 A 
HETATM   16  C   UNL     1       6.852  13.165  21.703  0.00  0.00     0.032 A 
HETATM   17  C   UNL     1       7.866  13.807  22.430  0.00  0.00     0.031 A 
HETATM   18  C   UNL     1       8.954  13.115  22.968  0.00  0.00     0.030 A 
HETATM   19  C   UNL     1       8.944  11.731  22.812  0.00  0.00     0.031 A 
HETATM   20  C   UNL     1       7.932  11.082  22.082  0.00  0.00     0.032 A 
BRANCH  18  21
HETATM   21  N   UNL     1       9.961  13.804  23.616  0.00  0.00    -0.377 N 
HETATM   22  C   UNL     1      11.309  13.252  23.810  0.00  0.00     0.149 C 
HETATM   23  C   UNL     1      12.337  13.950  22.910  0.00  0.00     0.187 C 
HETATM   24  O   UNL     1      12.299  15.378  23.069  0.00  0.00    -0.388 OA
HETATM   25  C   UNL     1      10.997  15.875  22.721  0.00  0.00     0.187 C 
HETATM   26  C   UNL     1       9.899  15.280  23.619  0.00  0.00     0.149 C 
ENDBRANCH  18  21
ENDBRANCH  13  15
ENDBRANCH   1  11
BRANCH   2  27
HETATM   27  O   UNL     1       4.166  11.421  17.328  0.00  0.00    -0.360 OA
HETATM   28  H   UNL     1       4.668  11.983  17.962  0.00  0.00     0.217 HD
ENDBRANCH   2  27
BRANCH   8  29
HETATM   29  C   UNL     1       5.595   5.068  18.962  0.00  0.00     0.275 C 
HETATM   30  O   UNL     1       6.589   4.449  18.573  0.00  0.00    -0.266 OA
HETATM   31  N   UNL     1       5.160   4.984  20.295  0.00  0.00    -0.347 N 
HETATM   32  C   UNL     1       5.708   3.942  21.161  0.00  0.00     0.126 C 
HETATM   33  C   UNL     1       4.099   5.801  20.891  0.00  0.00     0.126 C 
HETATM   34  C   UNL     1       6.152   4.509  22.511  0.00  0.00     0.020 C 
HETATM   35  C   UNL     1       5.027   5.300  23.175  0.00  0.00     0.003 C 
HETATM   36  C   UNL     1       4.526   6.385  22.233  0.00  0.00     0.020 C 
ENDBRANCH   8  29
TORSDOF 5
ENDMDL
MODEL 4
REMARK VINA RESULT:    -8.298      2.182      2.661
REMARK INTER + INTRA:         -11.363
REMARK INTER:                 -10.484
REMARK INTRA:                  -0.879
REMARK UNBOUND:                -0.882
REMARK  5 active torsions:
REMARK  status: ('A' for Active; 'I' for Inactive)
REMARK       I    between atoms: C_2  and  N_3 
REMARK    1  A    between atoms: C_2  and  C_17 
REMARK    2  A    between atoms: N_3  and  C_5 
REMARK    3  A    between atoms: C_8  and  N_9 
REMARK    4  A    between atoms: C_18  and  O_19 
REMARK    5  A    between atoms: C_25  and  C_26 
REMARK       I    between atoms: C_26  and  N_28 
ROOT
HETATM    1  C   UNL     1       5.107  11.953  21.854  0.00  0.00     0.066 A 
HETATM    2  C   UNL     1       4.003  12.748  22.221  0.00  0.00     0.083 A 
HETATM    3  C   UNL     1       4.146  14.066  22.663  0.00  0.00     0.069 A 
HETATM    4  C   UNL     1       5.441  14.574  22.717  0.00  0.00     0.065 A 
HETATM    5  N   UNL     1       5.915  15.803  23.077  0.00  0.00    -0.277 N 
HETATM    6  H   UNL     1       5.375  16.606  23.382  0.00  0.00     0.189 HD
HETATM    7  N   UNL     1       7.245  15.930  22.979  0.00  0.00    -0.168 NA
HETATM    8  C   UNL     1       7.657  14.754  22.465  0.00  0.00     0.157 C 
HETATM    9  C   UNL     1       6.566  13.832  22.382  0.00  0.00     0.029 A 
HETATM   10  C   UNL     1       6.402  12.482  22.006  0.00  0.00     0.036 A 
ENDROOT
BRANCH   1  11
HETATM   11  C   UNL     1       4.869  10.550  21.382  0.00  0.00     0.260 C 
HETATM   12  O   UNL     1       4.193   9.864  22.157  0.00  0.00    -0.267 OA
HETATM   13  N   UNL     1       5.365  10.094  20.141  0.00  0.00    -0.318 N 
HETATM   14  C   UNL     1       5.658  11.013  19.036  0.00  0.00     0.159 C 
BRANCH  13  15
HETATM   15  C   UNL     1       5.556   8.679  19.870  0.00  0.00     0.037 A 
HETATM   16  C   UNL     1       4.854   8.005  18.868  0.00  0.00     0.032 A 
HETATM   17  C   UNL     1       4.954   6.614  18.711  0.00  0.00     0.031 A 
HETATM   18  C   UNL     1       5.750   5.823  19.543  0.00  0.00     0.030 A 
HETATM   19  C   UNL     1       6.507   6.498  20.497  0.00  0.00     0.031 A 
HETATM   20  C   UNL     1       6.408   7.891  20.661  0.00  0.00     0.032 A 
BRANCH  18  21
HETATM   21  N   UNL     1       5.760   4.450  19.390  0.00  0.00    -0.377 N 
HETATM   22  C   UNL     1       4.661   3.709  18.754  0.00  0.00     0.149 C 
HETATM   23  C   UNL     1       5.063   3.188  17.368  0.00  0.00     0.187 C 
HETATM   24  O   UNL     1       6.282   2.427  17.421  0.00  0.00    -0.388 OA
HETATM   25  C   UNL     1       7.352   3.250  17.910  0.00  0.00     0.187 C 
HETATM   26  C   UNL     1       7.069   3.769  19.331  0.00  0.00     0.149 C 
ENDBRANCH  18  21
ENDBRANCH  13  15
ENDBRANCH   1  11
BRANCH   2  27
HETATM   27  O   UNL     1       2.708  12.292  22.189  0.00  0.00    -0.360 OA
HETATM   28  H   UNL     1       2.468  12.024  23.106  0.00  0.00     0.217 HD
ENDBRANCH   2  27
BRANCH   8  29
HETATM   29  C   UNL     1       9.047  14.495  22.037  0.00  0.00     0.275 C 
HETATM   30  O   UNL     1       9.304  14.352  20.839  0.00  0.00    -0.266 OA
HETATM   31  N   UNL     1      10.064  14.492  23.006  0.00  0.00    -0.347 N 
HETATM   32  C   UNL     1      11.402  14.036  22.635  0.00  0.00     0.126 C 
HETATM   33  C   UNL     1       9.882  14.815  24.424  0.00  0.00     0.126 C 
HETATM   34  C   UNL     1      12.481  15.009  23.114  0.00  0.00     0.020 C 
HETATM   35  C   UNL     1      12.345  15.293  24.608  0.00  0.00     0.003 C 
HETATM   36  C   UNL     1      10.942  15.793  24.918  0.00  0.00     0.020 C 
ENDBRANCH   8  29
TORSDOF 5
ENDMDL
MODEL 5
REMARK VINA RESULT:    -8.289      2.133      4.631
REMARK INTER + INTRA:         -11.352
REMARK INTER:                 -10.491
REMARK INTRA:                  -0.861
REMARK UNBOUND:                -0.882
REMARK  5 active torsions:
REMARK  status: ('A' for Active; 'I' for Inactive)
REMARK       I    between atoms: C_2  and  N_3 
REMARK    1  A    between atoms: C_2  and  C_17 
REMARK    2  A    between atoms: N_3  and  C_5 
REMARK    3  A    between atoms: C_8  and  N_9 
REMARK    4  A    between atoms: C_18  and  O_19 
REMARK    5  A    between atoms: C_25  and  C_26 
REMARK       I    between atoms: C_26  and  N_28 
ROOT
HETATM    1  C   UNL     1       7.162  12.161  20.867  0.00  0.00     0.066 A 
HETATM    2  C   UNL     1       8.513  12.409  21.184  0.00  0.00     0.083 A 
HETATM    3  C   UNL     1       8.898  13.404  22.085  0.00  0.00     0.069 A 
HETATM    4  C   UNL     1       7.879  14.146  22.678  0.00  0.00     0.065 A 
HETATM    5  N   UNL     1       7.913  15.155  23.596  0.00  0.00    -0.277 N 
HETATM    6  H   UNL     1       8.733  15.562  24.035  0.00  0.00     0.189 HD
HETATM    7  N   UNL     1       6.706  15.617  23.950  0.00  0.00    -0.168 NA
HETATM    8  C   UNL     1       5.837  14.828  23.287  0.00  0.00     0.157 C 
HETATM    9  C   UNL     1       6.533  13.955  22.392  0.00  0.00     0.029 A 
HETATM   10  C   UNL     1       6.173  12.992  21.426  0.00  0.00     0.036 A 
ENDROOT
BRANCH   1  11
HETATM   11  C   UNL     1       6.830  11.069  19.895  0.00  0.00     0.260 C 
HETATM   12  O   UNL     1       7.137  11.324  18.725  0.00  0.00    -0.267 OA
HETATM   13  N   UNL     1       6.244   9.856  20.318  0.00  0.00    -0.318 N 
HETATM   14  C   UNL     1       6.396   9.357  21.689  0.00  0.00     0.159 C 
BRANCH  13  15
HETATM   15  C   UNL     1       5.509   9.004  19.400  0.00  0.00     0.037 A 
HETATM   16  C   UNL     1       4.596   9.509  18.472  0.00  0.00     0.032 A 
HETATM   17  C   UNL     1       3.799   8.660  17.689  0.00  0.00     0.031 A 
HETATM   18  C   UNL     1       3.864   7.268  17.792  0.00  0.00     0.030 A 
HETATM   19  C   UNL     1       4.822   6.758  18.664  0.00  0.00     0.031 A 
HETATM   20  C   UNL     1       5.621   7.604  19.453  0.00  0.00     0.032 A 
BRANCH  18  21
HETATM   21  N   UNL     1       3.009   6.478  17.048  0.00  0.00    -0.377 N 
HETATM   22  C   UNL     1       2.684   6.758  15.642  0.00  0.00     0.149 C 
HETATM   23  C   UNL     1       3.349   5.745  14.701  0.00  0.00     0.187 C 
HETATM   24  O   UNL     1       3.045   4.391  15.077  0.00  0.00    -0.388 OA
HETATM   25  C   UNL     1       3.521   4.135  16.408  0.00  0.00     0.187 C 
HETATM   26  C   UNL     1       2.856   5.062  17.440  0.00  0.00     0.149 C 
ENDBRANCH  18  21
ENDBRANCH  13  15
ENDBRANCH   1  11
BRANCH   2  27
HETATM   27  O   UNL     1       9.553  11.708  20.624  0.00  0.00    -0.360 OA
HETATM   28  H   UNL     1       9.166  10.938  20.148  0.00  0.00     0.217 HD
ENDBRANCH   2  27
BRANCH   8  29
HETATM   29  C   UNL     1       4.375  14.871  23.496  0.00  0.00     0.275 C 
HETATM   30  O   UNL     1       3.752  15.910  23.259  0.00  0.00    -0.266 OA
HETATM   31  N   UNL     1       3.712  13.698  23.893  0.00  0.00    -0.347 N 
HETATM   32  C   UNL     1       2.312  13.774  24.303  0.00  0.00     0.126 C 
HETATM   33  C   UNL     1       4.338  12.381  24.038  0.00  0.00     0.126 C 
HETATM   34  C   UNL     1       1.468  12.692  23.624  0.00  0.00     0.020 C 
HETATM   35  C   UNL     1       2.073  11.306  23.834  0.00  0.00     0.003 C 
HETATM   36  C   UNL     1       3.519  11.291  23.358  0.00  0.00     0.020 C 
ENDBRANCH   8  29
TORSDOF 5
ENDMDL
MODEL 6
REMARK VINA RESULT:    -8.152      2.400     10.327
REMARK INTER + INTRA:         -11.179
REMARK INTER:                  -9.884
REMARK INTRA:                  -1.294
REMARK UNBOUND:                -0.882
REMARK  5 active torsions:
REMARK  status: ('A' for Active; 'I' for Inactive)
REMARK       I    between atoms: C_2  and  N_3 
REMARK    1  A    between atoms: C_2  and  C_17 
REMARK    2  A    between atoms: N_3  and  C_5 
REMARK    3  A    between atoms: C_8  and  N_9 
REMARK    4  A    between atoms: C_18  and  O_19 
REMARK    5  A    between atoms: C_25  and  C_26 
REMARK       I    between atoms: C_26  and  N_28 
ROOT
HETATM    1  C   UNL     1       5.117  10.003  18.804  0.00  0.00     0.066 A 
HETATM    2  C   UNL     1       4.237  10.411  17.781  0.00  0.00     0.083 A 
HETATM    3  C   UNL     1       3.317   9.538  17.195  0.00  0.00     0.069 A 
HETATM    4  C   UNL     1       3.296   8.231  17.676  0.00  0.00     0.065 A 
HETATM    5  N   UNL     1       2.522   7.158  17.341  0.00  0.00    -0.277 N 
HETATM    6  H   UNL     1       1.783   7.124  16.646  0.00  0.00     0.189 HD
HETATM    7  N   UNL     1       2.781   6.050  18.049  0.00  0.00    -0.168 NA
HETATM    8  C   UNL     1       3.720   6.433  18.938  0.00  0.00     0.157 C 
HETATM    9  C   UNL     1       4.150   7.771  18.670  0.00  0.00     0.029 A 
HETATM   10  C   UNL     1       5.117   8.653  19.198  0.00  0.00     0.036 A 
ENDROOT
BRANCH   1  11
HETATM   11  C   UNL     1       6.070  11.004  19.386  0.00  0.00     0.260 C 
HETATM   12  O   UNL     1       7.041  11.256  18.665  0.00  0.00    -0.267 OA
HETATM   13  N   UNL     1       5.832  11.607  20.640  0.00  0.00    -0.318 N 
HETATM   14  C   UNL     1       4.481  11.730  21.200  0.00  0.00     0.159 C 
BRANCH  13  15
HETATM   15  C   UNL     1       6.907  12.196  21.420  0.00  0.00     0.037 A 
HETATM   16  C   UNL     1       7.897  11.427  22.036  0.00  0.00     0.032 A 
HETATM   17  C   UNL     1       8.847  12.004  22.893  0.00  0.00     0.031 A 
HETATM   18  C   UNL     1       8.857  13.370  23.186  0.00  0.00     0.030 A 
HETATM   19  C   UNL     1       7.917  14.152  22.520  0.00  0.00     0.031 A 
HETATM   20  C   UNL     1       6.962  13.579  21.663  0.00  0.00     0.032 A 
BRANCH  18  21
HETATM   21  N   UNL     1       9.771  13.876  24.091  0.00  0.00    -0.377 N 
HETATM   22  C   UNL     1      10.082  13.217  25.367  0.00  0.00     0.149 C 
HETATM   23  C   UNL     1      11.478  12.580  25.344  0.00  0.00     0.187 C 
HETATM   24  O   UNL     1      12.486  13.526  24.954  0.00  0.00    -0.388 OA
HETATM   25  C   UNL     1      12.207  14.024  23.636  0.00  0.00     0.187 C 
HETATM   26  C   UNL     1      10.849  14.744  23.574  0.00  0.00     0.149 C 
ENDBRANCH  18  21
ENDBRANCH  13  15
ENDBRANCH   1  11
BRANCH   2  27
HETATM   27  O   UNL     1       4.222  11.686  17.271  0.00  0.00    -0.360 OA
HETATM   28  H   UNL     1       4.913  11.730  16.570  0.00  0.00     0.217 HD
ENDBRANCH   2  27
BRANCH   8  29
HETATM   29  C   UNL     1       4.200   5.570  20.037  0.00  0.00     0.275 C 
HETATM   30  O   UNL     1       3.535   5.467  21.071  0.00  0.00    -0.266 OA
HETATM   31  N   UNL     1       5.373   4.821  19.847  0.00  0.00    -0.347 N 
HETATM   32  C   UNL     1       5.971   4.130  20.987  0.00  0.00     0.126 C 
HETATM   33  C   UNL     1       6.137   4.749  18.598  0.00  0.00     0.126 C 
HETATM   34  C   UNL     1       6.319   2.679  20.645  0.00  0.00     0.020 C 
HETATM   35  C   UNL     1       7.179   2.599  19.386  0.00  0.00     0.003 C 
HETATM   36  C   UNL     1       6.484   3.310  18.234  0.00  0.00     0.020 C 
ENDBRANCH   8  29
TORSDOF 5
ENDMDL
MODEL 7
REMARK VINA RESULT:    -8.128      5.694      9.565
REMARK INTER + INTRA:         -11.149
REMARK INTER:                 -10.262
REMARK INTRA:                  -0.887
REMARK UNBOUND:                -0.882
REMARK  5 active torsions:
REMARK  status: ('A' for Active; 'I' for Inactive)
REMARK       I    between atoms: C_2  and  N_3 
REMARK    1  A    between atoms: C_2  and  C_17 
REMARK    2  A    between atoms: N_3  and  C_5 
REMARK    3  A    between atoms: C_8  and  N_9 
REMARK    4  A    between atoms: C_18  and  O_19 
REMARK    5  A    between atoms: C_25  and  C_26 
REMARK       I    between atoms: C_26  and  N_28 
ROOT
HETATM    1  C   UNL     1       4.816  10.578  22.927  0.00  0.00     0.066 A 
HETATM    2  C   UNL     1       6.019  11.137  23.404  0.00  0.00     0.083 A 
HETATM    3  C   UNL     1       7.058  11.513  22.549  0.00  0.00     0.069 A 
HETATM    4  C   UNL     1       6.851  11.322  21.185  0.00  0.00     0.065 A 
HETATM    5  N   UNL     1       7.640  11.596  20.105  0.00  0.00    -0.277 N 
HETATM    6  H   UNL     1       8.565  12.013  20.108  0.00  0.00     0.189 HD
HETATM    7  N   UNL     1       7.084  11.288  18.926  0.00  0.00    -0.168 NA
HETATM    8  C   UNL     1       5.846  10.856  19.242  0.00  0.00     0.157 C 
HETATM    9  C   UNL     1       5.693  10.763  20.661  0.00  0.00     0.029 A 
HETATM   10  C   UNL     1       4.687  10.325  21.549  0.00  0.00     0.036 A 
ENDROOT
BRANCH   1  11
HETATM   11  C   UNL     1       3.746  10.207  23.909  0.00  0.00     0.260 C 
HETATM   12  O   UNL     1       3.014  11.147  24.239  0.00  0.00    -0.267 OA
HETATM   13  N   UNL     1       3.597   8.882  24.374  0.00  0.00    -0.318 N 
HETATM   14  C   UNL     1       4.070   7.729  23.599  0.00  0.00     0.159 C 
BRANCH  13  15
HETATM   15  C   UNL     1       2.912   8.583  25.620  0.00  0.00     0.037 A 
HETATM   16  C   UNL     1       3.594   8.351  26.816  0.00  0.00     0.032 A 
HETATM   17  C   UNL     1       2.922   7.933  27.975  0.00  0.00     0.031 A 
HETATM   18  C   UNL     1       1.542   7.719  28.003  0.00  0.00     0.030 A 
HETATM   19  C   UNL     1       0.847   8.017  26.833  0.00  0.00     0.031 A 
HETATM   20  C   UNL     1       1.516   8.433  25.668  0.00  0.00     0.032 A 
BRANCH  18  21
HETATM   21  N   UNL     1       0.938   7.241  29.150  0.00  0.00    -0.377 N 
HETATM   22  C   UNL     1       0.186   5.979  29.191  0.00  0.00     0.149 C 
HETATM   23  C   UNL     1       0.954   4.892  29.954  0.00  0.00     0.187 C 
HETATM   24  O   UNL     1       1.348   5.340  31.262  0.00  0.00    -0.388 OA
HETATM   25  C   UNL     1       2.204   6.488  31.149  0.00  0.00     0.187 C 
HETATM   26  C   UNL     1       1.495   7.662  30.452  0.00  0.00     0.149 C 
ENDBRANCH  18  21
ENDBRANCH  13  15
ENDBRANCH   1  11
BRANCH   2  27
HETATM   27  O   UNL     1       6.272  11.341  24.738  0.00  0.00    -0.360 OA
HETATM   28  H   UNL     1       7.207  11.080  24.903  0.00  0.00     0.217 HD
ENDBRANCH   2  27
BRANCH   8  29
HETATM   29  C   UNL     1       4.809  10.552  18.234  0.00  0.00     0.275 C 
HETATM   30  O   UNL     1       4.328  11.463  17.555  0.00  0.00    -0.266 OA
HETATM   31  N   UNL     1       4.445   9.213  18.020  0.00  0.00    -0.347 N 
HETATM   32  C   UNL     1       3.284   8.913  17.185  0.00  0.00     0.126 C 
HETATM   33  C   UNL     1       5.076   8.053  18.656  0.00  0.00     0.126 C 
HETATM   34  C   UNL     1       3.600   7.829  16.152  0.00  0.00     0.020 C 
HETATM   35  C   UNL     1       4.188   6.587  16.815  0.00  0.00     0.003 C 
HETATM   36  C   UNL     1       5.409   6.966  17.641  0.00  0.00     0.020 C 
ENDBRANCH   8  29
TORSDOF 5
ENDMDL
MODEL 8
REMARK VINA RESULT:    -8.106      4.987      6.836
REMARK INTER + INTRA:         -11.121
REMARK INTER:                 -10.041
REMARK INTRA:                  -1.080
REMARK UNBOUND:                -0.882
REMARK  5 active torsions:
REMARK  status: ('A' for Active; 'I' for Inactive)
REMARK       I    between atoms: C_2  and  N_3 
REMARK    1  A    between atoms: C_2  and  C_17 
REMARK    2  A    between atoms: N_3  and  C_5 
REMARK    3  A    between atoms: C_8  and  N_9 
REMARK    4  A    between atoms: C_18  and  O_19 
REMARK    5  A    between atoms: C_25  and  C_26 
REMARK       I    between atoms: C_26  and  N_28 
ROOT
HETATM    1  C   UNL     1       5.720  10.999  22.225  0.00  0.00     0.066 A 
HETATM    2  C   UNL     1       5.623  10.968  20.819  0.00  0.00     0.083 A 
HETATM    3  C   UNL     1       6.680  11.350  19.989  0.00  0.00     0.069 A 
HETATM    4  C   UNL     1       7.856  11.757  20.614  0.00  0.00     0.065 A 
HETATM    5  N   UNL     1       9.055  12.165  20.105  0.00  0.00    -0.277 N 
HETATM    6  H   UNL     1       9.314  12.244  19.127  0.00  0.00     0.189 HD
HETATM    7  N   UNL     1       9.974  12.463  21.033  0.00  0.00    -0.168 NA
HETATM    8  C   UNL     1       9.374  12.170  22.205  0.00  0.00     0.157 C 
HETATM    9  C   UNL     1       8.002  11.821  21.994  0.00  0.00     0.029 A 
HETATM   10  C   UNL     1       6.898  11.498  22.811  0.00  0.00     0.036 A 
ENDROOT
BRANCH   1  11
HETATM   11  C   UNL     1       4.543  10.566  23.046  0.00  0.00     0.260 C 
HETATM   12  O   UNL     1       3.668  11.430  23.169  0.00  0.00    -0.267 OA
HETATM   13  N   UNL     1       4.461   9.266  23.592  0.00  0.00    -0.318 N 
HETATM   14  C   UNL     1       5.183   8.131  23.007  0.00  0.00     0.159 C 
BRANCH  13  15
HETATM   15  C   UNL     1       3.608   8.970  24.730  0.00  0.00     0.037 A 
HETATM   16  C   UNL     1       4.117   8.569  25.967  0.00  0.00     0.032 A 
HETATM   17  C   UNL     1       3.272   8.159  27.010  0.00  0.00     0.031 A 
HETATM   18  C   UNL     1       1.882   8.120  26.875  0.00  0.00     0.030 A 
HETATM   19  C   UNL     1       1.365   8.586  25.668  0.00  0.00     0.031 A 
HETATM   20  C   UNL     1       2.207   8.995  24.619  0.00  0.00     0.032 A 
BRANCH  18  21
HETATM   21  N   UNL     1       1.099   7.642  27.908  0.00  0.00    -0.377 N 
HETATM   22  C   UNL     1      -0.361   7.805  27.944  0.00  0.00     0.149 C 
HETATM   23  C   UNL     1      -1.081   6.474  27.687  0.00  0.00     0.187 C 
HETATM   24  O   UNL     1      -0.620   5.441  28.574  0.00  0.00    -0.388 OA
HETATM   25  C   UNL     1       0.787   5.226  28.385  0.00  0.00     0.187 C 
HETATM   26  C   UNL     1       1.605   6.493  28.687  0.00  0.00     0.149 C 
ENDBRANCH  18  21
ENDBRANCH  13  15
ENDBRANCH   1  11
BRANCH   2  27
HETATM   27  O   UNL     1       4.485  10.578  20.156  0.00  0.00    -0.360 OA
HETATM   28  H   UNL     1       4.624   9.651  19.855  0.00  0.00     0.217 HD
ENDBRANCH   2  27
BRANCH   8  29
HETATM   29  C   UNL     1      10.074  12.195  23.506  0.00  0.00     0.275 C 
HETATM   30  O   UNL     1      10.626  11.175  23.925  0.00  0.00    -0.266 OA
HETATM   31  N   UNL     1      10.158  13.410  24.206  0.00  0.00    -0.347 N 
HETATM   32  C   UNL     1      10.660  13.410  25.578  0.00  0.00     0.126 C 
HETATM   33  C   UNL     1       9.680  14.704  23.713  0.00  0.00     0.126 C 
HETATM   34  C   UNL     1      11.715  14.496  25.791  0.00  0.00     0.020 C 
HETATM   35  C   UNL     1      11.199  15.864  25.350  0.00  0.00     0.003 C 
HETATM   36  C   UNL     1      10.723  15.800  23.906  0.00  0.00     0.020 C 
ENDBRANCH   8  29
TORSDOF 5
ENDMDL
MODEL 9
REMARK VINA RESULT:    -7.772      4.657      5.886
REMARK INTER + INTRA:         -10.698
REMARK INTER:                  -9.816
REMARK INTRA:                  -0.882
REMARK UNBOUND:                -0.882
REMARK  5 active torsions:
REMARK  status: ('A' for Active; 'I' for Inactive)
REMARK       I    between atoms: C_2  and  N_3 
REMARK    1  A    between atoms: C_2  and  C_17 
REMARK    2  A    between atoms: N_3  and  C_5 
REMARK    3  A    between atoms: C_8  and  N_9 
REMARK    4  A    between atoms: C_18  and  O_19 
REMARK    5  A    between atoms: C_25  and  C_26 
REMARK       I    between atoms: C_26  and  N_28 
ROOT
HETATM    1  C   UNL     1       7.189  11.794  22.003  0.00  0.00     0.066 A 
HETATM    2  C   UNL     1       7.703  11.858  20.693  0.00  0.00     0.083 A 
HETATM    3  C   UNL     1       8.682  12.782  20.319  0.00  0.00     0.069 A 
HETATM    4  C   UNL     1       9.145  13.643  21.310  0.00  0.00     0.065 A 
HETATM    5  N   UNL     1      10.091  14.628  21.281  0.00  0.00    -0.277 N 
HETATM    6  H   UNL     1      10.655  14.917  20.489  0.00  0.00     0.189 HD
HETATM    7  N   UNL     1      10.283  15.240  22.457  0.00  0.00    -0.168 NA
HETATM    8  C   UNL     1       9.478  14.580  23.314  0.00  0.00     0.157 C 
HETATM    9  C   UNL     1       8.664  13.635  22.612  0.00  0.00     0.029 A 
HETATM   10  C   UNL     1       7.626  12.740  22.948  0.00  0.00     0.036 A 
ENDROOT
BRANCH   1  11
HETATM   11  C   UNL     1       6.144  10.768  22.327  0.00  0.00     0.260 C 
HETATM   12  O   UNL     1       5.099  10.888  21.678  0.00  0.00    -0.267 OA
HETATM   13  N   UNL     1       6.378   9.750  23.276  0.00  0.00    -0.318 N 
HETATM   14  C   UNL     1       7.733   9.293  23.607  0.00  0.00     0.159 C 
BRANCH  13  15
HETATM   15  C   UNL     1       5.286   9.054  23.934  0.00  0.00     0.037 A 
HETATM   16  C   UNL     1       5.002   7.707  23.699  0.00  0.00     0.032 A 
HETATM   17  C   UNL     1       3.863   7.092  24.241  0.00  0.00     0.031 A 
HETATM   18  C   UNL     1       2.948   7.783  25.038  0.00  0.00     0.030 A 
HETATM   19  C   UNL     1       3.263   9.107  25.335  0.00  0.00     0.031 A 
HETATM   20  C   UNL     1       4.401   9.730  24.792  0.00  0.00     0.032 A 
BRANCH  18  21
HETATM   21  N   UNL     1       1.806   7.149  25.491  0.00  0.00    -0.377 N 
HETATM   22  C   UNL     1       1.687   6.591  26.845  0.00  0.00     0.149 C 
HETATM   23  C   UNL     1       0.748   7.434  27.719  0.00  0.00     0.187 C 
HETATM   24  O   UNL     1      -0.529   7.629  27.090  0.00  0.00    -0.388 OA
HETATM   25  C   UNL     1      -0.359   8.313  25.838  0.00  0.00     0.187 C 
HETATM   26  C   UNL     1       0.518   7.510  24.863  0.00  0.00     0.149 C 
ENDBRANCH  18  21
ENDBRANCH  13  15
ENDBRANCH   1  11
BRANCH   2  27
HETATM   27  O   UNL     1       7.276  11.034  19.680  0.00  0.00    -0.360 OA
HETATM   28  H   UNL     1       8.032  10.452  19.436  0.00  0.00     0.217 HD
ENDBRANCH   2  27
BRANCH   8  29
HETATM   29  C   UNL     1       9.477  14.814  24.773  0.00  0.00     0.275 C 
HETATM   30  O   UNL     1       8.409  14.995  25.364  0.00  0.00    -0.266 OA
HETATM   31  N   UNL     1      10.694  14.749  25.470  0.00  0.00    -0.347 N 
HETATM   32  C   UNL     1      10.741  15.179  26.866  0.00  0.00     0.126 C 
HETATM   33  C   UNL     1      11.985  14.376  24.884  0.00  0.00     0.126 C 
HETATM   34  C   UNL     1      11.463  14.155  27.745  0.00  0.00     0.020 C 
HETATM   35  C   UNL     1      12.842  13.817  27.182  0.00  0.00     0.003 C 
HETATM   36  C   UNL     1      12.715  13.348  25.740  0.00  0.00     0.020 C 
ENDBRANCH   8  29
TORSDOF 5
ENDMDL
