MODEL 1
REMARK VINA RESULT:    -9.276      0.000      0.000
REMARK INTER + INTRA:         -13.042
REMARK INTER:                 -11.810
REMARK INTRA:                  -1.233
REMARK UNBOUND:                -1.326
REMARK  5 active torsions:
REMARK  status: ('A' for Active; 'I' for Inactive)
REMARK    1  A    between atoms: N_10  and  C_14 
REMARK    2  A    between atoms: C_17  and  C_18 
REMARK       I    between atoms: C_18  and  N_20 
REMARK    3  A    between atoms: C_22  and  N_23 
REMARK    4  A    between atoms: N_23  and  C_24 
REMARK    5  A    between atoms: C_27  and  O_28 
ROOT
HETATM    1  C   UNL     1      -2.011  14.502  22.238  0.00  0.00     0.041 A 
HETATM    2  C   UNL     1      -3.279  14.871  22.682  0.00  0.00     0.031 A 
HETATM    3  C   UNL     1      -4.086  13.950  23.366  0.00  0.00     0.022 A 
HETATM    4  C   UNL     1      -3.655  12.635  23.599  0.00  0.00     0.058 A 
HETATM    5  C   UNL     1      -1.632  13.156  22.416  0.00  0.00     0.060 A 
HETATM    6  C   UNL     1      -2.416  12.204  23.092  0.00  0.00     0.046 A 
ENDROOT
BRANCH   1   7
HETATM    7  N   UNL     1      -1.071  15.418  21.637  0.00  0.00    -0.324 N 
HETATM    8  C   UNL     1       0.306  15.551  21.824  0.00  0.00     0.031 A 
HETATM    9  C   UNL     1       1.203  14.704  22.673  0.00  0.00     0.067 C 
HETATM   10  C   UNL     1       0.767  16.611  21.047  0.00  0.00     0.040 A 
HETATM   11  C   UNL     1       2.700  14.879  22.288  0.00  0.00    -0.036 C 
HETATM   12  C   UNL     1       3.048  16.374  22.101  0.00  0.00     0.093 C 
HETATM   13  C   UNL     1       3.013  14.093  20.995  0.00  0.00     0.015 C 
HETATM   14  C   UNL     1       3.568  14.300  23.418  0.00  0.00     0.015 C 
HETATM   15  C   UNL     1       2.161  17.042  21.064  0.00  0.00     0.162 C 
HETATM   16  O   UNL     1       2.591  17.927  20.328  0.00  0.00    -0.292 OA
HETATM   17  C   UNL     1      -0.306  17.073  20.259  0.00  0.00    -0.030 A 
HETATM   18  C   UNL     1      -1.403  16.341  20.651  0.00  0.00     0.105 A 
HETATM   19  C   UNL     1      -0.273  18.122  19.206  0.00  0.00     0.050 C 
ENDBRANCH   1   7
BRANCH   6  20
HETATM   20  N   UNL     1      -1.925  10.922  23.302  0.00  0.00    -0.384 N 
HETATM   21  H   UNL     1      -2.344  10.174  22.751  0.00  0.00     0.160 HD
BRANCH  20  22
HETATM   22  C   UNL     1      -0.846  10.600  24.226  0.00  0.00     0.082 C 
HETATM   23  C   UNL     1       0.112   9.565  23.622  0.00  0.00     0.027 C 
HETATM   24  C   UNL     1       1.178   9.152  24.634  0.00  0.00     0.034 C 
HETATM   25  C   UNL     1       0.541   8.600  25.906  0.00  0.00     0.118 C 
HETATM   26  C   UNL     1      -0.419   9.611  26.528  0.00  0.00     0.034 C 
HETATM   27  C   UNL     1      -1.474  10.069  25.527  0.00  0.00     0.027 C 
BRANCH  25  28
HETATM   28  O   UNL     1       1.550   8.254  26.845  0.00  0.00    -0.396 OA
HETATM   29  H   UNL     1       1.895   7.373  26.620  0.00  0.00     0.210 HD
ENDBRANCH  25  28
ENDBRANCH  20  22
ENDBRANCH   6  20
BRANCH   4  30
HETATM   30  C   UNL     1      -4.549  11.782  24.434  0.00  0.00     0.251 C 
HETATM   31  O   UNL     1      -5.032  10.739  24.011  0.00  0.00    -0.268 OA
HETATM   32  N   UNL     1      -4.871  12.245  25.681  0.00  0.00    -0.366 N 
HETATM   33  H   UNL     1      -4.653  13.200  25.934  0.00  0.00     0.159 HD
HETATM   34  H   UNL     1      -5.589  11.752  26.191  0.00  0.00     0.159 HD
ENDBRANCH   4  30
TORSDOF 5
ENDMDL
MODEL 2
REMARK VINA RESULT:    -8.765      1.337      1.479
REMARK INTER + INTRA:         -12.397
REMARK INTER:                 -11.103
REMARK INTRA:                  -1.293
REMARK UNBOUND:                -1.326
REMARK  5 active torsions:
REMARK  status: ('A' for Active; 'I' for Inactive)
REMARK    1  A    between atoms: N_10  and  C_14 
REMARK    2  A    between atoms: C_17  and  C_18 
REMARK       I    between atoms: C_18  and  N_20 
REMARK    3  A    between atoms: C_22  and  N_23 
REMARK    4  A    between atoms: N_23  and  C_24 
REMARK    5  A    between atoms: C_27  and  O_28 
ROOT
HETATM    1  C   UNL     1      -2.417  13.950  23.373  0.00  0.00     0.041 A 
HETATM    2  C   UNL     1      -3.616  14.260  24.011  0.00  0.00     0.031 A 
HETATM    3  C   UNL     1      -4.180  13.367  24.934  0.00  0.00     0.022 A 
HETATM    4  C   UNL     1      -3.572  12.133  25.220  0.00  0.00     0.058 A 
HETATM    5  C   UNL     1      -1.867  12.675  23.618  0.00  0.00     0.060 A 
HETATM    6  C   UNL     1      -2.407  11.752  24.531  0.00  0.00     0.046 A 
ENDROOT
BRANCH   1   7
HETATM    7  N   UNL     1      -1.708  14.861  22.506  0.00  0.00    -0.324 N 
HETATM    8  C   UNL     1      -0.345  15.150  22.422  0.00  0.00     0.031 A 
HETATM    9  C   UNL     1       0.777  14.519  23.187  0.00  0.00     0.067 C 
HETATM   10  C   UNL     1      -0.151  16.132  21.454  0.00  0.00     0.040 A 
HETATM   11  C   UNL     1       2.156  14.783  22.517  0.00  0.00    -0.036 C 
HETATM   12  C   UNL     1       2.287  16.265  22.094  0.00  0.00     0.093 C 
HETATM   13  C   UNL     1       2.339  13.860  21.292  0.00  0.00     0.015 C 
HETATM   14  C   UNL     1       3.265  14.452  23.531  0.00  0.00     0.015 C 
HETATM   15  C   UNL     1       1.164  16.694  21.165  0.00  0.00     0.162 C 
HETATM   16  O   UNL     1       1.355  17.507  20.263  0.00  0.00    -0.292 OA
HETATM   17  C   UNL     1      -1.389  16.375  20.825  0.00  0.00    -0.030 A 
HETATM   18  C   UNL     1      -2.309  15.601  21.495  0.00  0.00     0.105 A 
HETATM   19  C   UNL     1      -1.659  17.267  19.667  0.00  0.00     0.050 C 
ENDBRANCH   1   7
BRANCH   6  20
HETATM   20  N   UNL     1      -1.748  10.554  24.780  0.00  0.00    -0.384 N 
HETATM   21  H   UNL     1      -2.147   9.715  24.358  0.00  0.00     0.160 HD
BRANCH  20  22
HETATM   22  C   UNL     1      -0.529  10.438  25.569  0.00  0.00     0.082 C 
HETATM   23  C   UNL     1       0.694  10.216  24.671  0.00  0.00     0.027 C 
HETATM   24  C   UNL     1       1.952   9.990  25.507  0.00  0.00     0.034 C 
HETATM   25  C   UNL     1       1.773   8.806  26.454  0.00  0.00     0.118 C 
HETATM   26  C   UNL     1       0.559   9.002  27.360  0.00  0.00     0.034 C 
HETATM   27  C   UNL     1      -0.705   9.267  26.552  0.00  0.00     0.027 C 
BRANCH  25  28
HETATM   28  O   UNL     1       2.941   8.635  27.245  0.00  0.00    -0.396 OA
HETATM   29  H   UNL     1       2.712   8.798  28.176  0.00  0.00     0.210 HD
ENDBRANCH  25  28
ENDBRANCH  20  22
ENDBRANCH   6  20
BRANCH   4  30
HETATM   30  C   UNL     1      -4.201  11.319  26.299  0.00  0.00     0.251 C 
HETATM   31  O   UNL     1      -3.629  11.093  27.359  0.00  0.00    -0.268 OA
HETATM   32  N   UNL     1      -5.427  10.770  26.035  0.00  0.00    -0.366 N 
HETATM   33  H   UNL     1      -5.787  10.775  25.090  0.00  0.00     0.159 HD
HETATM   34  H   UNL     1      -5.790  10.099  26.697  0.00  0.00     0.159 HD
ENDBRANCH   4  30
TORSDOF 5
ENDMDL
MODEL 3
REMARK VINA RESULT:    -8.326      2.585      7.719
REMARK INTER + INTRA:         -11.842
REMARK INTER:                 -10.358
REMARK INTRA:                  -1.484
REMARK UNBOUND:                -1.326
REMARK  5 active torsions:
REMARK  status: ('A' for Active; 'I' for Inactive)
REMARK    1  A    between atoms: N_10  and  C_14 
REMARK    2  A    between atoms: C_17  and  C_18 
REMARK       I    between atoms: C_18  and  N_20 
REMARK    3  A    between atoms: C_22  and  N_23 
REMARK    4  A    between atoms: N_23  and  C_24 
REMARK    5  A    between atoms: C_27  and  O_28 
ROOT
HETATM    1  C   UNL     1      -1.054  10.597  24.647  0.00  0.00     0.041 A 
HETATM    2  C   UNL     1      -2.236  10.413  23.935  0.00  0.00     0.031 A 
HETATM    3  C   UNL     1      -2.601  11.312  22.922  0.00  0.00     0.022 A 
HETATM    4  C   UNL     1      -1.806  12.428  22.617  0.00  0.00     0.058 A 
HETATM    5  C   UNL     1      -0.312  11.765  24.376  0.00  0.00     0.060 A 
HETATM    6  C   UNL     1      -0.650  12.691  23.373  0.00  0.00     0.046 A 
ENDROOT
BRANCH   1   7
HETATM    7  N   UNL     1      -0.544   9.658  25.617  0.00  0.00    -0.324 N 
HETATM    8  C   UNL     1       0.463   8.698  25.503  0.00  0.00     0.031 A 
HETATM    9  C   UNL     1       1.350   8.435  24.325  0.00  0.00     0.067 C 
HETATM   10  C   UNL     1       0.565   8.003  26.705  0.00  0.00     0.040 A 
HETATM   11  C   UNL     1       2.610   7.613  24.721  0.00  0.00    -0.036 C 
HETATM   12  C   UNL     1       2.228   6.430  25.642  0.00  0.00     0.093 C 
HETATM   13  C   UNL     1       3.642   8.523  25.423  0.00  0.00     0.015 C 
HETATM   14  C   UNL     1       3.258   7.060  23.439  0.00  0.00     0.015 C 
HETATM   15  C   UNL     1       1.493   6.893  26.889  0.00  0.00     0.162 C 
HETATM   16  O   UNL     1       1.641   6.322  27.967  0.00  0.00    -0.292 OA
HETATM   17  C   UNL     1      -0.299   8.615  27.636  0.00  0.00    -0.030 A 
HETATM   18  C   UNL     1      -0.962   9.600  26.942  0.00  0.00     0.105 A 
HETATM   19  C   UNL     1      -0.459   8.287  29.077  0.00  0.00     0.050 C 
ENDBRANCH   1   7
BRANCH   6  20
HETATM   20  N   UNL     1       0.188  13.768  23.111  0.00  0.00    -0.384 N 
HETATM   21  H   UNL     1      -0.193  14.698  23.282  0.00  0.00     0.160 HD
BRANCH  20  22
HETATM   22  C   UNL     1       1.562  13.642  22.643  0.00  0.00     0.082 C 
HETATM   23  C   UNL     1       2.516  14.494  23.488  0.00  0.00     0.027 C 
HETATM   24  C   UNL     1       3.936  14.443  22.929  0.00  0.00     0.034 C 
HETATM   25  C   UNL     1       3.968  14.903  21.474  0.00  0.00     0.118 C 
HETATM   26  C   UNL     1       3.024  14.069  20.610  0.00  0.00     0.034 C 
HETATM   27  C   UNL     1       1.605  14.074  21.167  0.00  0.00     0.027 C 
BRANCH  25  28
HETATM   28  O   UNL     1       5.292  14.814  20.964  0.00  0.00    -0.396 OA
HETATM   29  H   UNL     1       5.245  14.647  20.007  0.00  0.00     0.210 HD
ENDBRANCH  25  28
ENDBRANCH  20  22
ENDBRANCH   6  20
BRANCH   4  30
HETATM   30  C   UNL     1      -2.235  13.248  21.447  0.00  0.00     0.251 C 
HETATM   31  O   UNL     1      -1.869  14.408  21.298  0.00  0.00    -0.268 OA
HETATM   32  N   UNL     1      -3.117  12.675  20.571  0.00  0.00    -0.366 N 
HETATM   33  H   UNL     1      -3.582  11.811  20.818  0.00  0.00     0.159 HD
HETATM   34  H   UNL     1      -3.526  13.270  19.864  0.00  0.00     0.159 HD
ENDBRANCH   4  30
TORSDOF 5
ENDMDL
MODEL 4
REMARK VINA RESULT:    -8.319      2.275      8.271
REMARK INTER + INTRA:         -11.833
REMARK INTER:                 -10.524
REMARK INTRA:                  -1.309
REMARK UNBOUND:                -1.326
REMARK  5 active torsions:
REMARK  status: ('A' for Active; 'I' for Inactive)
REMARK    1  A    between atoms: N_10  and  C_14 
REMARK    2  A    between atoms: C_17  and  C_18 
REMARK       I    between atoms: C_18  and  N_20 
REMARK    3  A    between atoms: C_22  and  N_23 
REMARK    4  A    between atoms: N_23  and  C_24 
REMARK    5  A    between atoms: C_27  and  O_28 
ROOT
HETATM    1  C   UNL     1       1.653  12.808  24.015  0.00  0.00     0.041 A 
HETATM    2  C   UNL     1       2.874  13.379  24.366  0.00  0.00     0.031 A 
HETATM    3  C   UNL     1       3.381  14.468  23.642  0.00  0.00     0.022 A 
HETATM    4  C   UNL     1       2.691  14.994  22.538  0.00  0.00     0.058 A 
HETATM    5  C   UNL     1       1.018  13.303  22.857  0.00  0.00     0.060 A 
HETATM    6  C   UNL     1       1.499  14.389  22.104  0.00  0.00     0.046 A 
ENDROOT
BRANCH   1   7
HETATM    7  N   UNL     1       1.003  11.768  24.776  0.00  0.00    -0.324 N 
HETATM    8  C   UNL     1      -0.332  11.631  25.162  0.00  0.00     0.031 A 
HETATM    9  C   UNL     1      -1.483  12.523  24.814  0.00  0.00     0.067 C 
HETATM   10  C   UNL     1      -0.465  10.473  25.925  0.00  0.00     0.040 A 
HETATM   11  C   UNL     1      -2.852  11.820  25.049  0.00  0.00    -0.036 C 
HETATM   12  C   UNL     1      -2.865  11.085  26.410  0.00  0.00     0.093 C 
HETATM   13  C   UNL     1      -3.144  10.825  23.904  0.00  0.00     0.015 C 
HETATM   14  C   UNL     1      -3.958  12.888  25.046  0.00  0.00     0.015 C 
HETATM   15  C   UNL     1      -1.734  10.077  26.526  0.00  0.00     0.162 C 
HETATM   16  O   UNL     1      -1.877   9.021  27.138  0.00  0.00    -0.292 OA
HETATM   17  C   UNL     1       0.773   9.799  25.914  0.00  0.00    -0.030 A 
HETATM   18  C   UNL     1       1.639  10.615  25.224  0.00  0.00     0.105 A 
HETATM   19  C   UNL     1       1.089   8.473  26.506  0.00  0.00     0.050 C 
ENDBRANCH   1   7
BRANCH   6  20
HETATM   20  N   UNL     1       0.761  14.870  21.030  0.00  0.00    -0.384 N 
HETATM   21  H   UNL     1       1.109  14.648  20.098  0.00  0.00     0.160 HD
BRANCH  20  22
HETATM   22  C   UNL     1      -0.472  15.635  21.161  0.00  0.00     0.082 C 
HETATM   23  C   UNL     1      -1.703  14.726  21.054  0.00  0.00     0.027 C 
HETATM   24  C   UNL     1      -2.991  15.545  21.085  0.00  0.00     0.034 C 
HETATM   25  C   UNL     1      -3.006  16.585  19.967  0.00  0.00     0.118 C 
HETATM   26  C   UNL     1      -1.789  17.503  20.051  0.00  0.00     0.034 C 
HETATM   27  C   UNL     1      -0.488  16.709  20.059  0.00  0.00     0.027 C 
BRANCH  25  28
HETATM   28  O   UNL     1      -4.196  17.357  20.036  0.00  0.00    -0.396 OA
HETATM   29  H   UNL     1      -4.417  17.668  19.142  0.00  0.00     0.210 HD
ENDBRANCH  25  28
ENDBRANCH  20  22
ENDBRANCH   6  20
BRANCH   4  30
HETATM   30  C   UNL     1       3.270  16.222  21.919  0.00  0.00     0.251 C 
HETATM   31  O   UNL     1       2.690  17.301  21.953  0.00  0.00    -0.268 OA
HETATM   32  N   UNL     1       4.453  16.086  21.244  0.00  0.00    -0.366 N 
HETATM   33  H   UNL     1       4.806  15.162  21.031  0.00  0.00     0.159 HD
HETATM   34  H   UNL     1       4.773  16.873  20.699  0.00  0.00     0.159 HD
ENDBRANCH   4  30
TORSDOF 5
ENDMDL
MODEL 5
REMARK VINA RESULT:    -8.158      1.572      3.093
REMARK INTER + INTRA:         -11.629
REMARK INTER:                 -10.374
REMARK INTRA:                  -1.256
REMARK UNBOUND:                -1.326
REMARK  5 active torsions:
REMARK  status: ('A' for Active; 'I' for Inactive)
REMARK    1  A    between atoms: N_10  and  C_14 
REMARK    2  A    between atoms: C_17  and  C_18 
REMARK       I    between atoms: C_18  and  N_20 
REMARK    3  A    between atoms: C_22  and  N_23 
REMARK    4  A    between atoms: N_23  and  C_24 
REMARK    5  A    between atoms: C_27  and  O_28 
ROOT
HETATM    1  C   UNL     1      -0.524  13.495  23.729  0.00  0.00     0.041 A 
HETATM    2  C   UNL     1      -1.464  14.234  24.443  0.00  0.00     0.031 A 
HETATM    3  C   UNL     1      -2.496  13.587  25.139  0.00  0.00     0.022 A 
HETATM    4  C   UNL     1      -2.625  12.189  25.116  0.00  0.00     0.058 A 
HETATM    5  C   UNL     1      -0.720  12.101  23.657  0.00  0.00     0.060 A 
HETATM    6  C   UNL     1      -1.745  11.418  24.337  0.00  0.00     0.046 A 
ENDROOT
BRANCH   1   7
HETATM    7  N   UNL     1       0.635  14.070  23.089  0.00  0.00    -0.324 N 
HETATM    8  C   UNL     1       0.726  15.019  22.069  0.00  0.00     0.031 A 
HETATM    9  C   UNL     1      -0.392  15.759  21.402  0.00  0.00     0.067 C 
HETATM   10  C   UNL     1       2.068  15.224  21.761  0.00  0.00     0.040 A 
HETATM   11  C   UNL     1       0.118  17.021  20.648  0.00  0.00    -0.036 C 
HETATM   12  C   UNL     1       1.387  16.694  19.827  0.00  0.00     0.093 C 
HETATM   13  C   UNL     1       0.409  18.160  21.650  0.00  0.00     0.015 C 
HETATM   14  C   UNL     1      -0.988  17.500  19.691  0.00  0.00     0.015 C 
HETATM   15  C   UNL     1       2.496  16.121  20.694  0.00  0.00     0.162 C 
HETATM   16  O   UNL     1       3.679  16.363  20.463  0.00  0.00    -0.292 OA
HETATM   17  C   UNL     1       2.844  14.494  22.685  0.00  0.00    -0.030 A 
HETATM   18  C   UNL     1       1.947  13.799  23.462  0.00  0.00     0.105 A 
HETATM   19  C   UNL     1       4.324  14.481  22.816  0.00  0.00     0.050 C 
ENDBRANCH   1   7
BRANCH   6  20
HETATM   20  N   UNL     1      -1.809  10.031  24.284  0.00  0.00    -0.384 N 
HETATM   21  H   UNL     1      -2.611   9.627  23.801  0.00  0.00     0.160 HD
BRANCH  20  22
HETATM   22  C   UNL     1      -0.800   9.143  24.845  0.00  0.00     0.082 C 
HETATM   23  C   UNL     1      -0.207   9.722  26.136  0.00  0.00     0.027 C 
HETATM   24  C   UNL     1       0.922   8.840  26.662  0.00  0.00     0.034 C 
HETATM   25  C   UNL     1       2.016   8.667  25.612  0.00  0.00     0.118 C 
HETATM   26  C   UNL     1       1.451   8.092  24.315  0.00  0.00     0.034 C 
HETATM   27  C   UNL     1       0.296   8.933  23.786  0.00  0.00     0.027 C 
BRANCH  25  28
HETATM   28  O   UNL     1       3.039   7.816  26.110  0.00  0.00    -0.396 OA
HETATM   29  H   UNL     1       3.902   8.223  25.919  0.00  0.00     0.210 HD
ENDBRANCH  25  28
ENDBRANCH  20  22
ENDBRANCH   6  20
BRANCH   4  30
HETATM   30  C   UNL     1      -3.690  11.608  25.984  0.00  0.00     0.251 C 
HETATM   31  O   UNL     1      -3.461  10.695  26.768  0.00  0.00    -0.268 OA
HETATM   32  N   UNL     1      -4.961  12.089  25.823  0.00  0.00    -0.366 N 
HETATM   33  H   UNL     1      -5.180  12.676  25.028  0.00  0.00     0.159 HD
HETATM   34  H   UNL     1      -5.708  11.601  26.296  0.00  0.00     0.159 HD
ENDBRANCH   4  30
TORSDOF 5
ENDMDL
MODEL 6
REMARK VINA RESULT:    -8.133      1.870      4.091
REMARK INTER + INTRA:         -11.598
REMARK INTER:                 -10.624
REMARK INTRA:                  -0.974
REMARK UNBOUND:                -1.326
REMARK  5 active torsions:
REMARK  status: ('A' for Active; 'I' for Inactive)
REMARK    1  A    between atoms: N_10  and  C_14 
REMARK    2  A    between atoms: C_17  and  C_18 
REMARK       I    between atoms: C_18  and  N_20 
REMARK    3  A    between atoms: C_22  and  N_23 
REMARK    4  A    between atoms: N_23  and  C_24 
REMARK    5  A    between atoms: C_27  and  O_28 
ROOT
HETATM    1  C   UNL     1       0.342  13.119  24.086  0.00  0.00     0.041 A 
HETATM    2  C   UNL     1       1.139  11.977  24.126  0.00  0.00     0.031 A 
HETATM    3  C   UNL     1       0.766  10.879  24.915  0.00  0.00     0.022 A 
HETATM    4  C   UNL     1      -0.398  10.908  25.701  0.00  0.00     0.058 A 
HETATM    5  C   UNL     1      -0.778  13.154  24.941  0.00  0.00     0.060 A 
HETATM    6  C   UNL     1      -1.180  12.076  25.750  0.00  0.00     0.046 A 
ENDROOT
BRANCH   1   7
HETATM    7  N   UNL     1       0.586  14.240  23.210  0.00  0.00    -0.324 N 
HETATM    8  C   UNL     1       1.788  14.823  22.802  0.00  0.00     0.031 A 
HETATM    9  C   UNL     1       3.180  14.375  23.124  0.00  0.00     0.067 C 
HETATM   10  C   UNL     1       1.506  15.913  21.983  0.00  0.00     0.040 A 
HETATM   11  C   UNL     1       4.226  14.992  22.151  0.00  0.00    -0.036 C 
HETATM   12  C   UNL     1       3.959  16.502  21.944  0.00  0.00     0.093 C 
HETATM   13  C   UNL     1       4.193  14.255  20.794  0.00  0.00     0.015 C 
HETATM   14  C   UNL     1       5.628  14.810  22.758  0.00  0.00     0.015 C 
HETATM   15  C   UNL     1       2.552  16.769  21.435  0.00  0.00     0.162 C 
HETATM   16  O   UNL     1       2.318  17.687  20.653  0.00  0.00    -0.292 OA
HETATM   17  C   UNL     1       0.114  15.944  21.763  0.00  0.00    -0.030 A 
HETATM   18  C   UNL     1      -0.411  14.930  22.530  0.00  0.00     0.105 A 
HETATM   19  C   UNL     1      -0.644  16.865  20.876  0.00  0.00     0.050 C 
ENDBRANCH   1   7
BRANCH   6  20
HETATM   20  N   UNL     1      -2.350  12.163  26.493  0.00  0.00    -0.384 N 
HETATM   21  H   UNL     1      -2.255  12.444  27.469  0.00  0.00     0.160 HD
BRANCH  20  22
HETATM   22  C   UNL     1      -3.681  11.908  25.959  0.00  0.00     0.082 C 
HETATM   23  C   UNL     1      -4.373  10.766  26.715  0.00  0.00     0.027 C 
HETATM   24  C   UNL     1      -5.723  10.432  26.084  0.00  0.00     0.034 C 
HETATM   25  C   UNL     1      -5.562  10.066  24.610  0.00  0.00     0.118 C 
HETATM   26  C   UNL     1      -4.875  11.188  23.835  0.00  0.00     0.034 C 
HETATM   27  C   UNL     1      -3.540  11.567  24.465  0.00  0.00     0.027 C 
BRANCH  25  28
HETATM   28  O   UNL     1      -6.833   9.793  24.036  0.00  0.00    -0.396 OA
HETATM   29  H   UNL     1      -7.404  10.570  24.161  0.00  0.00     0.210 HD
ENDBRANCH  25  28
ENDBRANCH  20  22
ENDBRANCH   6  20
BRANCH   4  30
HETATM   30  C   UNL     1      -0.752   9.643  26.408  0.00  0.00     0.251 C 
HETATM   31  O   UNL     1      -1.192   9.640  27.551  0.00  0.00    -0.268 OA
HETATM   32  N   UNL     1      -0.502   8.468  25.752  0.00  0.00    -0.366 N 
HETATM   33  H   UNL     1       0.061   8.472  24.911  0.00  0.00     0.159 HD
HETATM   34  H   UNL     1      -0.598   7.611  26.277  0.00  0.00     0.159 HD
ENDBRANCH   4  30
TORSDOF 5
ENDMDL
MODEL 7
REMARK VINA RESULT:    -8.113      1.927      7.614
REMARK INTER + INTRA:         -11.573
REMARK INTER:                 -10.253
REMARK INTRA:                  -1.320
REMARK UNBOUND:                -1.326
REMARK  5 active torsions:
REMARK  status: ('A' for Active; 'I' for Inactive)
REMARK    1  A    between atoms: N_10  and  C_14 
REMARK    2  A    between atoms: C_17  and  C_18 
REMARK       I    between atoms: C_18  and  N_20 
REMARK    3  A    between atoms: C_22  and  N_23 
REMARK    4  A    between atoms: N_23  and  C_24 
REMARK    5  A    between atoms: C_27  and  O_28 
ROOT
HETATM    1  C   UNL     1      -1.255  10.904  24.460  0.00  0.00     0.041 A 
HETATM    2  C   UNL     1      -2.572  10.551  24.176  0.00  0.00     0.031 A 
HETATM    3  C   UNL     1      -3.502  11.528  23.792  0.00  0.00     0.022 A 
HETATM    4  C   UNL     1      -3.142  12.883  23.708  0.00  0.00     0.058 A 
HETATM    5  C   UNL     1      -0.938  12.278  24.443  0.00  0.00     0.060 A 
HETATM    6  C   UNL     1      -1.845  13.286  24.069  0.00  0.00     0.046 A 
ENDROOT
BRANCH   1   7
HETATM    7  N   UNL     1      -0.208   9.951  24.741  0.00  0.00    -0.324 N 
HETATM    8  C   UNL     1       0.172   9.356  25.946  0.00  0.00     0.031 A 
HETATM    9  C   UNL     1      -0.475   9.508  27.288  0.00  0.00     0.067 C 
HETATM   10  C   UNL     1       1.269   8.531  25.716  0.00  0.00     0.040 A 
HETATM   11  C   UNL     1      -0.052   8.375  28.266  0.00  0.00    -0.036 C 
HETATM   12  C   UNL     1       1.475   8.133  28.199  0.00  0.00     0.093 C 
HETATM   13  C   UNL     1      -0.813   7.072  27.935  0.00  0.00     0.015 C 
HETATM   14  C   UNL     1      -0.429   8.796  29.697  0.00  0.00     0.015 C 
HETATM   15  C   UNL     1       1.940   7.807  26.790  0.00  0.00     0.162 C 
HETATM   16  O   UNL     1       2.861   7.020  26.586  0.00  0.00    -0.292 OA
HETATM   17  C   UNL     1       1.507   8.499  24.327  0.00  0.00    -0.030 A 
HETATM   18  C   UNL     1       0.607   9.378  23.771  0.00  0.00     0.105 A 
HETATM   19  C   UNL     1       2.509   7.679  23.596  0.00  0.00     0.050 C 
ENDBRANCH   1   7
BRANCH   6  20
HETATM   20  N   UNL     1      -1.422  14.607  23.992  0.00  0.00    -0.384 N 
HETATM   21  H   UNL     1      -1.869  15.270  24.624  0.00  0.00     0.160 HD
BRANCH  20  22
HETATM   22  C   UNL     1      -0.375  15.081  23.096  0.00  0.00     0.082 C 
HETATM   23  C   UNL     1       0.955  15.255  23.839  0.00  0.00     0.027 C 
HETATM   24  C   UNL     1       2.020  15.852  22.922  0.00  0.00     0.034 C 
HETATM   25  C   UNL     1       1.559  17.189  22.347  0.00  0.00     0.118 C 
HETATM   26  C   UNL     1       0.235  17.043  21.601  0.00  0.00     0.034 C 
HETATM   27  C   UNL     1      -0.838  16.415  22.484  0.00  0.00     0.027 C 
BRANCH  25  28
HETATM   28  O   UNL     1       2.550  17.709  21.470  0.00  0.00    -0.396 OA
HETATM   29  H   UNL     1       2.675  18.653  21.669  0.00  0.00     0.210 HD
ENDBRANCH  25  28
ENDBRANCH  20  22
ENDBRANCH   6  20
BRANCH   4  30
HETATM   30  C   UNL     1      -4.182  13.813  23.181  0.00  0.00     0.251 C 
HETATM   31  O   UNL     1      -4.431  14.883  23.723  0.00  0.00    -0.268 OA
HETATM   32  N   UNL     1      -4.905  13.395  22.096  0.00  0.00    -0.366 N 
HETATM   33  H   UNL     1      -4.848  12.430  21.796  0.00  0.00     0.159 HD
HETATM   34  H   UNL     1      -5.705  13.948  21.827  0.00  0.00     0.159 HD
ENDBRANCH   4  30
TORSDOF 5
ENDMDL
MODEL 8
REMARK VINA RESULT:    -7.958      1.985      2.793
REMARK INTER + INTRA:         -11.378
REMARK INTER:                 -10.019
REMARK INTRA:                  -1.358
REMARK UNBOUND:                -1.326
REMARK  5 active torsions:
REMARK  status: ('A' for Active; 'I' for Inactive)
REMARK    1  A    between atoms: N_10  and  C_14 
REMARK    2  A    between atoms: C_17  and  C_18 
REMARK       I    between atoms: C_18  and  N_20 
REMARK    3  A    between atoms: C_22  and  N_23 
REMARK    4  A    between atoms: N_23  and  C_24 
REMARK    5  A    between atoms: C_27  and  O_28 
ROOT
HETATM    1  C   UNL     1      -1.285  13.012  24.049  0.00  0.00     0.041 A 
HETATM    2  C   UNL     1      -1.964  13.222  25.247  0.00  0.00     0.031 A 
HETATM    3  C   UNL     1      -2.051  12.197  26.201  0.00  0.00     0.022 A 
HETATM    4  C   UNL     1      -1.483  10.934  25.968  0.00  0.00     0.058 A 
HETATM    5  C   UNL     1      -0.791  11.714  23.805  0.00  0.00     0.060 A 
HETATM    6  C   UNL     1      -0.864  10.662  24.735  0.00  0.00     0.046 A 
ENDROOT
BRANCH   1   7
HETATM    7  N   UNL     1      -1.044  14.045  23.069  0.00  0.00    -0.324 N 
HETATM    8  C   UNL     1       0.154  14.602  22.620  0.00  0.00     0.031 A 
HETATM    9  C   UNL     1       1.548  14.210  23.002  0.00  0.00     0.067 C 
HETATM   10  C   UNL     1      -0.131  15.601  21.693  0.00  0.00     0.040 A 
HETATM   11  C   UNL     1       2.599  14.743  21.986  0.00  0.00    -0.036 C 
HETATM   12  C   UNL     1       2.315  16.221  21.627  0.00  0.00     0.093 C 
HETATM   13  C   UNL     1       2.596  13.874  20.709  0.00  0.00     0.015 C 
HETATM   14  C   UNL     1       3.994  14.644  22.626  0.00  0.00     0.015 C 
HETATM   15  C   UNL     1       0.911  16.414  21.077  0.00  0.00     0.162 C 
HETATM   16  O   UNL     1       0.675  17.247  20.204  0.00  0.00    -0.292 OA
HETATM   17  C   UNL     1      -1.520  15.590  21.453  0.00  0.00    -0.030 A 
HETATM   18  C   UNL     1      -2.042  14.648  22.311  0.00  0.00     0.105 A 
HETATM   19  C   UNL     1      -2.278  16.406  20.470  0.00  0.00     0.050 C 
ENDBRANCH   1   7
BRANCH   6  20
HETATM   20  N   UNL     1      -0.270   9.440  24.449  0.00  0.00    -0.384 N 
HETATM   21  H   UNL     1      -0.895   8.648  24.301  0.00  0.00     0.160 HD
BRANCH  20  22
HETATM   22  C   UNL     1       1.168   9.237  24.325  0.00  0.00     0.082 C 
HETATM   23  C   UNL     1       1.488   7.819  23.837  0.00  0.00     0.027 C 
HETATM   24  C   UNL     1       2.996   7.578  23.809  0.00  0.00     0.034 C 
HETATM   25  C   UNL     1       3.613   7.814  25.186  0.00  0.00     0.118 C 
HETATM   26  C   UNL     1       3.307   9.221  25.695  0.00  0.00     0.034 C 
HETATM   27  C   UNL     1       1.809   9.501  25.698  0.00  0.00     0.027 C 
BRANCH  25  28
HETATM   28  O   UNL     1       5.019   7.618  25.129  0.00  0.00    -0.396 OA
HETATM   29  H   UNL     1       5.428   8.414  24.750  0.00  0.00     0.210 HD
ENDBRANCH  25  28
ENDBRANCH  20  22
ENDBRANCH   6  20
BRANCH   4  30
HETATM   30  C   UNL     1      -1.540   9.964  27.099  0.00  0.00     0.251 C 
HETATM   31  O   UNL     1      -1.281   8.776  26.949  0.00  0.00    -0.268 OA
HETATM   32  N   UNL     1      -1.963  10.439  28.311  0.00  0.00    -0.366 N 
HETATM   33  H   UNL     1      -2.383  11.357  28.372  0.00  0.00     0.159 HD
HETATM   34  H   UNL     1      -2.146   9.763  29.039  0.00  0.00     0.159 HD
ENDBRANCH   4  30
TORSDOF 5
ENDMDL
MODEL 9
REMARK VINA RESULT:    -7.916      2.441      7.974
REMARK INTER + INTRA:         -11.324
REMARK INTER:                  -9.999
REMARK INTRA:                  -1.326
REMARK UNBOUND:                -1.326
REMARK  5 active torsions:
REMARK  status: ('A' for Active; 'I' for Inactive)
REMARK    1  A    between atoms: N_10  and  C_14 
REMARK    2  A    between atoms: C_17  and  C_18 
REMARK       I    between atoms: C_18  and  N_20 
REMARK    3  A    between atoms: C_22  and  N_23 
REMARK    4  A    between atoms: N_23  and  C_24 
REMARK    5  A    between atoms: C_27  and  O_28 
ROOT
HETATM    1  C   UNL     1      -0.233  10.259  23.979  0.00  0.00     0.041 A 
HETATM    2  C   UNL     1      -1.582  10.068  23.691  0.00  0.00     0.031 A 
HETATM    3  C   UNL     1      -2.313  11.063  23.025  0.00  0.00     0.022 A 
HETATM    4  C   UNL     1      -1.718  12.280  22.655  0.00  0.00     0.058 A 
HETATM    5  C   UNL     1       0.321  11.517  23.667  0.00  0.00     0.060 A 
HETATM    6  C   UNL     1      -0.382  12.540  23.005  0.00  0.00     0.046 A 
ENDROOT
BRANCH   1   7
HETATM    7  N   UNL     1       0.620   9.243  24.549  0.00  0.00    -0.324 N 
HETATM    8  C   UNL     1       0.731   8.791  25.865  0.00  0.00     0.031 A 
HETATM    9  C   UNL     1      -0.083   9.209  27.051  0.00  0.00     0.067 C 
HETATM   10  C   UNL     1       1.727   7.821  25.927  0.00  0.00     0.040 A 
HETATM   11  C   UNL     1       0.030   8.189  28.220  0.00  0.00    -0.036 C 
HETATM   12  C   UNL     1       1.502   7.768  28.440  0.00  0.00     0.093 C 
HETATM   13  C   UNL     1      -0.843   6.948  27.932  0.00  0.00     0.015 C 
HETATM   14  C   UNL     1      -0.497   8.854  29.503  0.00  0.00     0.015 C 
HETATM   15  C   UNL     1       2.124   7.189  27.180  0.00  0.00     0.162 C 
HETATM   16  O   UNL     1       2.951   6.281  27.233  0.00  0.00    -0.292 OA
HETATM   17  C   UNL     1       2.165   7.561  24.612  0.00  0.00    -0.030 A 
HETATM   18  C   UNL     1       1.486   8.447  23.808  0.00  0.00     0.105 A 
HETATM   19  C   UNL     1       3.144   6.534  24.168  0.00  0.00     0.050 C 
ENDBRANCH   1   7
BRANCH   6  20
HETATM   20  N   UNL     1       0.270  13.716  22.655  0.00  0.00    -0.384 N 
HETATM   21  H   UNL     1      -0.251  14.584  22.780  0.00  0.00     0.160 HD
BRANCH  20  22
HETATM   22  C   UNL     1       1.637  13.778  22.155  0.00  0.00     0.082 C 
HETATM   23  C   UNL     1       2.580  14.399  23.194  0.00  0.00     0.027 C 
HETATM   24  C   UNL     1       3.988  14.559  22.627  0.00  0.00     0.034 C 
HETATM   25  C   UNL     1       3.974  15.404  21.356  0.00  0.00     0.118 C 
HETATM   26  C   UNL     1       3.041  14.806  20.305  0.00  0.00     0.034 C 
HETATM   27  C   UNL     1       1.635  14.601  20.856  0.00  0.00     0.027 C 
BRANCH  25  28
HETATM   28  O   UNL     1       5.289  15.510  20.827  0.00  0.00    -0.396 OA
HETATM   29  H   UNL     1       5.914  15.601  21.566  0.00  0.00     0.210 HD
ENDBRANCH  25  28
ENDBRANCH  20  22
ENDBRANCH   6  20
BRANCH   4  30
HETATM   30  C   UNL     1      -2.561  13.213  21.853  0.00  0.00     0.251 C 
HETATM   31  O   UNL     1      -2.699  14.391  22.161  0.00  0.00    -0.268 OA
HETATM   32  N   UNL     1      -3.238  12.686  20.787  0.00  0.00    -0.366 N 
HETATM   33  H   UNL     1      -3.295  11.682  20.675  0.00  0.00     0.159 HD
HETATM   34  H   UNL     1      -3.923  13.272  20.332  0.00  0.00     0.159 HD
ENDBRANCH   4  30
TORSDOF 5
ENDMDL
