MODEL 1
REMARK VINA RESULT:    -8.905      0.000      0.000
REMARK INTER + INTRA:         -12.416
REMARK INTER:                 -11.124
REMARK INTRA:                  -1.292
REMARK UNBOUND:                -1.169
REMARK  5 active torsions:
REMARK  status: ('A' for Active; 'I' for Inactive)
REMARK       I    between atoms: C_2  and  N_4 
REMARK    1  A    between atoms: C_8  and  N_9 
REMARK       I    between atoms: N_9  and  C_10 
REMARK    2  A    between atoms: C_10  and  C_12 
REMARK    3  A    between atoms: C_13  and  O_14 
REMARK    4  A    between atoms: C_20  and  C_21 
REMARK    5  A    between atoms: C_21  and  C_22 
ROOT
HETATM    1  C   UNL     1       4.550   7.278  23.020  0.00  0.00     0.066 C 
HETATM    2  C   UNL     1       5.730   6.515  22.876  0.00  0.00     0.083 C 
HETATM    3  C   UNL     1       6.466   6.490  21.689  0.00  0.00     0.069 C 
HETATM    4  C   UNL     1       5.930   7.180  20.604  0.00  0.00     0.065 C 
HETATM    5  N   UNL     1       6.385   7.362  19.330  0.00  0.00    -0.277 N 
HETATM    6  H   UNL     1       7.277   7.071  18.948  0.00  0.00     0.189 HD
HETATM    7  N   UNL     1       5.515   7.978  18.518  0.00  0.00    -0.178 NA
HETATM    8  C   UNL     1       4.439   8.190  19.292  0.00  0.00     0.071 C 
HETATM    9  C   UNL     1       4.725   7.870  20.659  0.00  0.00     0.020 C 
HETATM   10  C   UNL     1       4.099   8.021  21.911  0.00  0.00     0.035 C 
ENDROOT
BRANCH   1  11
HETATM   11  C   UNL     1       3.856   7.283  24.355  0.00  0.00     0.260 C 
HETATM   12  N   UNL     1       2.633   6.593  24.593  0.00  0.00    -0.318 N 
HETATM   13  C   UNL     1       2.128   5.633  23.614  0.00  0.00     0.159 C 
HETATM   14  O   UNL     1       4.505   7.873  25.231  0.00  0.00    -0.267 OA
BRANCH  12  15
HETATM   15  C   UNL     1       2.013   6.627  25.911  0.00  0.00     0.037 C 
HETATM   16  C   UNL     1       1.178   7.689  26.299  0.00  0.00     0.039 C 
HETATM   17  C   UNL     1       0.829   7.848  27.634  0.00  0.00    -0.027 C 
HETATM   18  C   UNL     1       1.162   6.902  28.591  0.00  0.00     0.043 C 
HETATM   19  C   UNL     1       0.232   9.068  28.259  0.00  0.00     0.061 C 
HETATM   20  N   UNL     1       0.717   7.305  29.858  0.00  0.00    -0.318 N 
HETATM   21  C   UNL     1       1.855   5.772  28.228  0.00  0.00     0.032 C 
HETATM   22  C   UNL     1       0.850   6.583  31.036  0.00  0.00     0.220 C 
HETATM   23  C   UNL     1       0.033   8.608  29.708  0.00  0.00     0.137 C 
HETATM   24  O   UNL     1       1.424   5.499  31.142  0.00  0.00    -0.273 OA
HETATM   25  C   UNL     1       0.204   7.213  32.243  0.00  0.00     0.117 C 
HETATM   26  C   UNL     1       2.283   5.649  26.898  0.00  0.00     0.032 C 
ENDBRANCH  12  15
ENDBRANCH   1  11
BRANCH   2  27
HETATM   27  O   UNL     1       6.258   5.739  23.881  0.00  0.00    -0.360 OA
HETATM   28  H   UNL     1       5.688   4.942  23.974  0.00  0.00     0.217 HD
ENDBRANCH   2  27
BRANCH   8  29
HETATM   29  C   UNL     1       3.141   8.626  18.668  0.00  0.00     0.100 C 
BRANCH  29  30
HETATM   30  C   UNL     1       2.412   7.376  18.181  0.00  0.00    -0.052 A 
HETATM   31  C   UNL     1       2.005   7.227  16.840  0.00  0.00     0.014 A 
HETATM   32  C   UNL     1       1.379   6.058  16.379  0.00  0.00    -0.061 A 
HETATM   33  C   UNL     1       1.109   5.872  14.914  0.00  0.00     0.048 C 
HETATM   34  C   UNL     1       1.086   5.042  17.289  0.00  0.00     0.007 A 
HETATM   35  C   UNL     1       1.405   5.199  18.637  0.00  0.00     0.001 A 
HETATM   36  C   UNL     1       2.066   6.353  19.080  0.00  0.00     0.007 A 
ENDBRANCH  29  30
ENDBRANCH   8  29
TORSDOF 5
ENDMDL
MODEL 2
REMARK VINA RESULT:    -8.826      0.462      1.185
REMARK INTER + INTRA:         -12.316
REMARK INTER:                 -11.008
REMARK INTRA:                  -1.308
REMARK UNBOUND:                -1.169
REMARK  5 active torsions:
REMARK  status: ('A' for Active; 'I' for Inactive)
REMARK       I    between atoms: C_2  and  N_4 
REMARK    1  A    between atoms: C_8  and  N_9 
REMARK       I    between atoms: N_9  and  C_10 
REMARK    2  A    between atoms: C_10  and  C_12 
REMARK    3  A    between atoms: C_13  and  O_14 
REMARK    4  A    between atoms: C_20  and  C_21 
REMARK    5  A    between atoms: C_21  and  C_22 
ROOT
HETATM    1  C   UNL     1       4.656   7.207  23.025  0.00  0.00     0.066 C 
HETATM    2  C   UNL     1       5.792   6.405  22.776  0.00  0.00     0.083 C 
HETATM    3  C   UNL     1       6.459   6.412  21.549  0.00  0.00     0.069 C 
HETATM    4  C   UNL     1       5.893   7.177  20.531  0.00  0.00     0.065 C 
HETATM    5  N   UNL     1       6.284   7.405  19.243  0.00  0.00    -0.277 N 
HETATM    6  H   UNL     1       7.139   7.099  18.797  0.00  0.00     0.189 HD
HETATM    7  N   UNL     1       5.396   8.095  18.515  0.00  0.00    -0.178 NA
HETATM    8  C   UNL     1       4.375   8.310  19.359  0.00  0.00     0.071 C 
HETATM    9  C   UNL     1       4.724   7.911  20.690  0.00  0.00     0.020 C 
HETATM   10  C   UNL     1       4.176   8.022  21.982  0.00  0.00     0.035 C 
ENDROOT
BRANCH   1  11
HETATM   11  C   UNL     1       4.039   7.171  24.397  0.00  0.00     0.260 C 
HETATM   12  N   UNL     1       2.782   6.557  24.664  0.00  0.00    -0.318 N 
HETATM   13  C   UNL     1       2.151   5.705  23.657  0.00  0.00     0.159 C 
HETATM   14  O   UNL     1       4.778   7.652  25.268  0.00  0.00    -0.267 OA
BRANCH  12  15
HETATM   15  C   UNL     1       2.239   6.547  26.016  0.00  0.00     0.037 C 
HETATM   16  C   UNL     1       1.416   7.587  26.482  0.00  0.00     0.039 C 
HETATM   17  C   UNL     1       1.144   7.704  27.838  0.00  0.00    -0.027 C 
HETATM   18  C   UNL     1       1.544   6.736  28.748  0.00  0.00     0.043 C 
HETATM   19  C   UNL     1       0.571   8.898  28.532  0.00  0.00     0.061 C 
HETATM   20  N   UNL     1       1.168   7.099  30.050  0.00  0.00    -0.318 N 
HETATM   21  C   UNL     1       2.227   5.626  28.313  0.00  0.00     0.032 C 
HETATM   22  C   UNL     1       1.379   6.346  31.196  0.00  0.00     0.220 C 
HETATM   23  C   UNL     1       0.462   8.396  29.976  0.00  0.00     0.137 C 
HETATM   24  O   UNL     1       1.970   5.267  31.238  0.00  0.00    -0.273 OA
HETATM   25  C   UNL     1       0.797   6.934  32.457  0.00  0.00     0.117 C 
HETATM   26  C   UNL     1       2.578   5.545  26.957  0.00  0.00     0.032 C 
ENDBRANCH  12  15
ENDBRANCH   1  11
BRANCH   2  27
HETATM   27  O   UNL     1       6.343   5.559  23.710  0.00  0.00    -0.360 OA
HETATM   28  H   UNL     1       5.832   5.664  24.545  0.00  0.00     0.217 HD
ENDBRANCH   2  27
BRANCH   8  29
HETATM   29  C   UNL     1       3.064   8.829  18.833  0.00  0.00     0.100 C 
BRANCH  29  30
HETATM   30  C   UNL     1       2.323   7.660  18.188  0.00  0.00    -0.052 A 
HETATM   31  C   UNL     1       2.150   6.430  18.854  0.00  0.00     0.014 A 
HETATM   32  C   UNL     1       1.427   5.372  18.284  0.00  0.00    -0.061 A 
HETATM   33  C   UNL     1       1.127   4.140  19.089  0.00  0.00     0.048 C 
HETATM   34  C   UNL     1       0.924   5.514  16.990  0.00  0.00     0.007 A 
HETATM   35  C   UNL     1       1.152   6.691  16.278  0.00  0.00     0.001 A 
HETATM   36  C   UNL     1       1.840   7.757  16.872  0.00  0.00     0.007 A 
ENDBRANCH  29  30
ENDBRANCH   8  29
TORSDOF 5
ENDMDL
MODEL 3
REMARK VINA RESULT:    -8.410      3.638      8.815
REMARK INTER + INTRA:         -11.791
REMARK INTER:                 -11.175
REMARK INTRA:                  -0.616
REMARK UNBOUND:                -1.169
REMARK  5 active torsions:
REMARK  status: ('A' for Active; 'I' for Inactive)
REMARK       I    between atoms: C_2  and  N_4 
REMARK    1  A    between atoms: C_8  and  N_9 
REMARK       I    between atoms: N_9  and  C_10 
REMARK    2  A    between atoms: C_10  and  C_12 
REMARK    3  A    between atoms: C_13  and  O_14 
REMARK    4  A    between atoms: C_20  and  C_21 
REMARK    5  A    between atoms: C_21  and  C_22 
ROOT
HETATM    1  C   UNL     1       1.338   7.851  25.893  0.00  0.00     0.066 C 
HETATM    2  C   UNL     1       2.038   8.129  27.088  0.00  0.00     0.083 C 
HETATM    3  C   UNL     1       1.481   8.885  28.123  0.00  0.00     0.069 C 
HETATM    4  C   UNL     1       0.229   9.447  27.887  0.00  0.00     0.065 C 
HETATM    5  N   UNL     1      -0.584  10.215  28.669  0.00  0.00    -0.277 N 
HETATM    6  H   UNL     1      -0.442  10.468  29.640  0.00  0.00     0.189 HD
HETATM    7  N   UNL     1      -1.666  10.689  28.038  0.00  0.00    -0.178 NA
HETATM    8  C   UNL     1      -1.545  10.224  26.786  0.00  0.00     0.071 C 
HETATM    9  C   UNL     1      -0.465   9.286  26.694  0.00  0.00     0.020 C 
HETATM   10  C   UNL     1       0.042   8.380  25.743  0.00  0.00     0.035 C 
ENDROOT
BRANCH   1  11
HETATM   11  C   UNL     1       2.002   6.982  24.859  0.00  0.00     0.260 C 
HETATM   12  N   UNL     1       2.811   7.508  23.811  0.00  0.00    -0.318 N 
HETATM   13  C   UNL     1       3.245   8.904  23.847  0.00  0.00     0.159 C 
HETATM   14  O   UNL     1       1.836   5.773  25.071  0.00  0.00    -0.267 OA
BRANCH  12  15
HETATM   15  C   UNL     1       3.434   6.615  22.843  0.00  0.00     0.037 C 
HETATM   16  C   UNL     1       3.713   7.037  21.532  0.00  0.00     0.039 C 
HETATM   17  C   UNL     1       4.039   6.105  20.556  0.00  0.00    -0.027 C 
HETATM   18  C   UNL     1       4.243   4.769  20.864  0.00  0.00     0.043 C 
HETATM   19  C   UNL     1       4.051   6.331  19.078  0.00  0.00     0.061 C 
HETATM   20  N   UNL     1       4.538   4.035  19.705  0.00  0.00    -0.318 N 
HETATM   21  C   UNL     1       4.123   4.338  22.163  0.00  0.00     0.032 C 
HETATM   22  C   UNL     1       4.830   2.680  19.652  0.00  0.00     0.220 C 
HETATM   23  C   UNL     1       4.536   4.972  18.560  0.00  0.00     0.137 C 
HETATM   24  O   UNL     1       4.827   1.915  20.617  0.00  0.00    -0.273 OA
HETATM   25  C   UNL     1       5.195   2.163  18.285  0.00  0.00     0.117 C 
HETATM   26  C   UNL     1       3.710   5.258  23.138  0.00  0.00     0.032 C 
ENDBRANCH  12  15
ENDBRANCH   1  11
BRANCH   2  27
HETATM   27  O   UNL     1       3.314   7.682  27.342  0.00  0.00    -0.360 OA
HETATM   28  H   UNL     1       3.935   8.410  27.117  0.00  0.00     0.217 HD
ENDBRANCH   2  27
BRANCH   8  29
HETATM   29  C   UNL     1      -2.436  10.760  25.697  0.00  0.00     0.100 C 
BRANCH  29  30
HETATM   30  C   UNL     1      -1.593  11.675  24.811  0.00  0.00    -0.052 A 
HETATM   31  C   UNL     1      -1.824  11.787  23.425  0.00  0.00     0.014 A 
HETATM   32  C   UNL     1      -1.084  12.663  22.617  0.00  0.00    -0.061 A 
HETATM   33  C   UNL     1      -1.468  12.874  21.181  0.00  0.00     0.048 C 
HETATM   34  C   UNL     1      -0.040  13.393  23.187  0.00  0.00     0.007 A 
HETATM   35  C   UNL     1       0.262  13.238  24.539  0.00  0.00     0.001 A 
HETATM   36  C   UNL     1      -0.510  12.391  25.346  0.00  0.00     0.007 A 
ENDBRANCH  29  30
ENDBRANCH   8  29
TORSDOF 5
ENDMDL
MODEL 4
REMARK VINA RESULT:    -8.235      1.650      2.077
REMARK INTER + INTRA:         -11.569
REMARK INTER:                 -10.485
REMARK INTRA:                  -1.084
REMARK UNBOUND:                -1.169
REMARK  5 active torsions:
REMARK  status: ('A' for Active; 'I' for Inactive)
REMARK       I    between atoms: C_2  and  N_4 
REMARK    1  A    between atoms: C_8  and  N_9 
REMARK       I    between atoms: N_9  and  C_10 
REMARK    2  A    between atoms: C_10  and  C_12 
REMARK    3  A    between atoms: C_13  and  O_14 
REMARK    4  A    between atoms: C_20  and  C_21 
REMARK    5  A    between atoms: C_21  and  C_22 
ROOT
HETATM    1  C   UNL     1       4.435   7.310  22.176  0.00  0.00     0.066 C 
HETATM    2  C   UNL     1       5.470   6.388  21.907  0.00  0.00     0.083 C 
HETATM    3  C   UNL     1       5.814   6.004  20.608  0.00  0.00     0.069 C 
HETATM    4  C   UNL     1       5.018   6.498  19.577  0.00  0.00     0.065 C 
HETATM    5  N   UNL     1       5.080   6.332  18.224  0.00  0.00    -0.277 N 
HETATM    6  H   UNL     1       5.797   5.850  17.696  0.00  0.00     0.189 HD
HETATM    7  N   UNL     1       4.043   6.859  17.558  0.00  0.00    -0.178 NA
HETATM    8  C   UNL     1       3.264   7.375  18.520  0.00  0.00     0.071 C 
HETATM    9  C   UNL     1       3.928   7.334  19.789  0.00  0.00     0.020 C 
HETATM   10  C   UNL     1       3.716   7.839  21.086  0.00  0.00     0.035 C 
ENDROOT
BRANCH   1  11
HETATM   11  C   UNL     1       4.175   7.702  23.605  0.00  0.00     0.260 C 
HETATM   12  N   UNL     1       3.322   6.957  24.468  0.00  0.00    -0.318 N 
HETATM   13  C   UNL     1       2.858   5.627  24.076  0.00  0.00     0.159 C 
HETATM   14  O   UNL     1       4.846   8.680  23.964  0.00  0.00    -0.267 OA
BRANCH  12  15
HETATM   15  C   UNL     1       3.115   7.381  25.846  0.00  0.00     0.037 C 
HETATM   16  C   UNL     1       4.017   7.028  26.864  0.00  0.00     0.039 C 
HETATM   17  C   UNL     1       3.664   7.195  28.197  0.00  0.00    -0.027 C 
HETATM   18  C   UNL     1       2.493   7.841  28.564  0.00  0.00     0.043 C 
HETATM   19  C   UNL     1       4.348   6.593  29.382  0.00  0.00     0.061 C 
HETATM   20  N   UNL     1       2.358   7.861  29.960  0.00  0.00    -0.318 N 
HETATM   21  C   UNL     1       1.649   8.334  27.598  0.00  0.00     0.032 C 
HETATM   22  C   UNL     1       1.324   8.456  30.669  0.00  0.00     0.220 C 
HETATM   23  C   UNL     1       3.538   7.185  30.541  0.00  0.00     0.137 C 
HETATM   24  O   UNL     1       0.348   9.014  30.167  0.00  0.00    -0.273 OA
HETATM   25  C   UNL     1       1.471   8.403  32.168  0.00  0.00     0.117 C 
HETATM   26  C   UNL     1       1.959   8.092  26.251  0.00  0.00     0.032 C 
ENDBRANCH  12  15
ENDBRANCH   1  11
BRANCH   2  27
HETATM   27  O   UNL     1       6.230   5.793  22.888  0.00  0.00    -0.360 OA
HETATM   28  H   UNL     1       5.671   5.110  23.325  0.00  0.00     0.217 HD
ENDBRANCH   2  27
BRANCH   8  29
HETATM   29  C   UNL     1       1.866   7.826  18.191  0.00  0.00     0.100 C 
BRANCH  29  30
HETATM   30  C   UNL     1       1.046   6.587  17.837  0.00  0.00    -0.052 A 
HETATM   31  C   UNL     1       0.647   6.313  16.513  0.00  0.00     0.014 A 
HETATM   32  C   UNL     1      -0.064   5.150  16.178  0.00  0.00    -0.061 A 
HETATM   33  C   UNL     1      -0.327   4.814  14.738  0.00  0.00     0.048 C 
HETATM   34  C   UNL     1      -0.450   4.275  17.193  0.00  0.00     0.007 A 
HETATM   35  C   UNL     1      -0.139   4.566  18.521  0.00  0.00     0.001 A 
HETATM   36  C   UNL     1       0.606   5.709  18.841  0.00  0.00     0.007 A 
ENDBRANCH  29  30
ENDBRANCH   8  29
TORSDOF 5
ENDMDL
MODEL 5
REMARK VINA RESULT:    -8.176      1.553      1.989
REMARK INTER + INTRA:         -11.496
REMARK INTER:                 -10.488
REMARK INTRA:                  -1.008
REMARK UNBOUND:                -1.169
REMARK  5 active torsions:
REMARK  status: ('A' for Active; 'I' for Inactive)
REMARK       I    between atoms: C_2  and  N_4 
REMARK    1  A    between atoms: C_8  and  N_9 
REMARK       I    between atoms: N_9  and  C_10 
REMARK    2  A    between atoms: C_10  and  C_12 
REMARK    3  A    between atoms: C_13  and  O_14 
REMARK    4  A    between atoms: C_20  and  C_21 
REMARK    5  A    between atoms: C_21  and  C_22 
ROOT
HETATM    1  C   UNL     1       3.937   6.275  22.343  0.00  0.00     0.066 C 
HETATM    2  C   UNL     1       4.942   5.337  22.021  0.00  0.00     0.083 C 
HETATM    3  C   UNL     1       5.516   5.260  20.750  0.00  0.00     0.069 C 
HETATM    4  C   UNL     1       4.981   6.091  19.768  0.00  0.00     0.065 C 
HETATM    5  N   UNL     1       5.304   6.269  18.454  0.00  0.00    -0.277 N 
HETATM    6  H   UNL     1       6.081   5.858  17.952  0.00  0.00     0.189 HD
HETATM    7  N   UNL     1       4.461   7.067  17.784  0.00  0.00    -0.178 NA
HETATM    8  C   UNL     1       3.538   7.408  18.697  0.00  0.00     0.071 C 
HETATM    9  C   UNL     1       3.927   6.967  20.003  0.00  0.00     0.020 C 
HETATM   10  C   UNL     1       3.490   7.145  21.330  0.00  0.00     0.035 C 
ENDROOT
BRANCH   1  11
HETATM   11  C   UNL     1       3.419   6.317  23.755  0.00  0.00     0.260 C 
HETATM   12  N   UNL     1       3.570   7.453  24.601  0.00  0.00    -0.318 N 
HETATM   13  C   UNL     1       4.013   8.730  24.045  0.00  0.00     0.159 C 
HETATM   14  O   UNL     1       2.781   5.300  24.063  0.00  0.00    -0.267 OA
BRANCH  12  15
HETATM   15  C   UNL     1       3.040   7.436  25.958  0.00  0.00     0.037 C 
HETATM   16  C   UNL     1       1.792   8.004  26.264  0.00  0.00     0.039 C 
HETATM   17  C   UNL     1       1.435   8.231  27.586  0.00  0.00    -0.027 C 
HETATM   18  C   UNL     1       2.216   7.779  28.639  0.00  0.00     0.043 C 
HETATM   19  C   UNL     1       0.316   9.096  28.071  0.00  0.00     0.061 C 
HETATM   20  N   UNL     1       1.651   8.152  29.867  0.00  0.00    -0.318 N 
HETATM   21  C   UNL     1       3.376   7.088  28.385  0.00  0.00     0.032 C 
HETATM   22  C   UNL     1       2.152   7.835  31.122  0.00  0.00     0.220 C 
HETATM   23  C   UNL     1       0.402   8.893  29.588  0.00  0.00     0.137 C 
HETATM   24  O   UNL     1       3.195   7.218  31.335  0.00  0.00    -0.273 OA
HETATM   25  C   UNL     1       1.298   8.290  32.278  0.00  0.00     0.117 C 
HETATM   26  C   UNL     1       3.785   6.932  27.052  0.00  0.00     0.032 C 
ENDBRANCH  12  15
ENDBRANCH   1  11
BRANCH   2  27
HETATM   27  O   UNL     1       5.446   4.427  22.921  0.00  0.00    -0.360 OA
HETATM   28  H   UNL     1       4.735   3.775  23.116  0.00  0.00     0.217 HD
ENDBRANCH   2  27
BRANCH   8  29
HETATM   29  C   UNL     1       2.269   8.089  18.260  0.00  0.00     0.100 C 
BRANCH  29  30
HETATM   30  C   UNL     1       1.393   7.047  17.567  0.00  0.00    -0.052 A 
HETATM   31  C   UNL     1       0.740   6.027  18.288  0.00  0.00     0.014 A 
HETATM   32  C   UNL     1      -0.105   5.099  17.661  0.00  0.00    -0.061 A 
HETATM   33  C   UNL     1      -0.909   4.133  18.481  0.00  0.00     0.048 C 
HETATM   34  C   UNL     1      -0.247   5.141  16.273  0.00  0.00     0.007 A 
HETATM   35  C   UNL     1       0.454   6.089  15.528  0.00  0.00     0.001 A 
HETATM   36  C   UNL     1       1.263   7.037  16.168  0.00  0.00     0.007 A 
ENDBRANCH  29  30
ENDBRANCH   8  29
TORSDOF 5
ENDMDL
MODEL 6
REMARK VINA RESULT:    -8.001      3.339      9.509
REMARK INTER + INTRA:         -11.275
REMARK INTER:                 -10.699
REMARK INTRA:                  -0.576
REMARK UNBOUND:                -1.169
REMARK  5 active torsions:
REMARK  status: ('A' for Active; 'I' for Inactive)
REMARK       I    between atoms: C_2  and  N_4 
REMARK    1  A    between atoms: C_8  and  N_9 
REMARK       I    between atoms: N_9  and  C_10 
REMARK    2  A    between atoms: C_10  and  C_12 
REMARK    3  A    between atoms: C_13  and  O_14 
REMARK    4  A    between atoms: C_20  and  C_21 
REMARK    5  A    between atoms: C_21  and  C_22 
ROOT
HETATM    1  C   UNL     1       3.777   6.514  22.623  0.00  0.00     0.066 C 
HETATM    2  C   UNL     1       5.127   6.430  23.034  0.00  0.00     0.083 C 
HETATM    3  C   UNL     1       5.511   6.545  24.372  0.00  0.00     0.069 C 
HETATM    4  C   UNL     1       4.508   6.851  25.289  0.00  0.00     0.065 C 
HETATM    5  N   UNL     1       4.537   7.023  26.643  0.00  0.00    -0.277 N 
HETATM    6  H   UNL     1       5.325   6.880  27.263  0.00  0.00     0.189 HD
HETATM    7  N   UNL     1       3.381   7.452  27.167  0.00  0.00    -0.178 NA
HETATM    8  C   UNL     1       2.569   7.583  26.107  0.00  0.00     0.071 C 
HETATM    9  C   UNL     1       3.179   7.040  24.929  0.00  0.00     0.020 C 
HETATM   10  C   UNL     1       2.796   6.746  23.606  0.00  0.00     0.035 C 
ENDROOT
BRANCH   1  11
HETATM   11  C   UNL     1       3.458   6.323  21.165  0.00  0.00     0.260 C 
HETATM   12  N   UNL     1       2.882   5.126  20.651  0.00  0.00    -0.318 N 
HETATM   13  C   UNL     1       2.337   4.121  21.562  0.00  0.00     0.159 C 
HETATM   14  O   UNL     1       3.668   7.341  20.490  0.00  0.00    -0.267 OA
BRANCH  12  15
HETATM   15  C   UNL     1       2.588   5.002  19.229  0.00  0.00     0.037 C 
HETATM   16  C   UNL     1       1.861   5.991  18.543  0.00  0.00     0.039 C 
HETATM   17  C   UNL     1       1.352   5.728  17.279  0.00  0.00    -0.027 C 
HETATM   18  C   UNL     1       1.659   4.560  16.598  0.00  0.00     0.043 C 
HETATM   19  C   UNL     1       0.312   6.523  16.555  0.00  0.00     0.061 C 
HETATM   20  N   UNL     1       1.006   4.527  15.357  0.00  0.00    -0.318 N 
HETATM   21  C   UNL     1       2.487   3.628  17.174  0.00  0.00     0.032 C 
HETATM   22  C   UNL     1       1.117   3.522  14.406  0.00  0.00     0.220 C 
HETATM   23  C   UNL     1       0.224   5.775  15.220  0.00  0.00     0.137 C 
HETATM   24  O   UNL     1       1.773   2.489  14.538  0.00  0.00    -0.273 OA
HETATM   25  C   UNL     1       0.372   3.780  13.121  0.00  0.00     0.117 C 
HETATM   26  C   UNL     1       2.935   3.849  18.485  0.00  0.00     0.032 C 
ENDBRANCH  12  15
ENDBRANCH   1  11
BRANCH   2  27
HETATM   27  O   UNL     1       6.172   6.223  22.164  0.00  0.00    -0.360 OA
HETATM   28  H   UNL     1       5.894   6.551  21.279  0.00  0.00     0.217 HD
ENDBRANCH   2  27
BRANCH   8  29
HETATM   29  C   UNL     1       1.253   8.299  26.254  0.00  0.00     0.100 C 
BRANCH  29  30
HETATM   30  C   UNL     1       1.361   9.632  25.518  0.00  0.00    -0.052 A 
HETATM   31  C   UNL     1       0.221  10.393  25.186  0.00  0.00     0.014 A 
HETATM   32  C   UNL     1       0.320  11.641  24.554  0.00  0.00    -0.061 A 
HETATM   33  C   UNL     1      -0.902  12.492  24.365  0.00  0.00     0.048 C 
HETATM   34  C   UNL     1       1.578  12.114  24.179  0.00  0.00     0.007 A 
HETATM   35  C   UNL     1       2.715  11.343  24.422  0.00  0.00     0.001 A 
HETATM   36  C   UNL     1       2.609  10.115  25.090  0.00  0.00     0.007 A 
ENDBRANCH  29  30
ENDBRANCH   8  29
TORSDOF 5
ENDMDL
MODEL 7
REMARK VINA RESULT:    -7.937      2.190      2.777
REMARK INTER + INTRA:         -11.194
REMARK INTER:                  -9.771
REMARK INTRA:                  -1.423
REMARK UNBOUND:                -1.169
REMARK  5 active torsions:
REMARK  status: ('A' for Active; 'I' for Inactive)
REMARK       I    between atoms: C_2  and  N_4 
REMARK    1  A    between atoms: C_8  and  N_9 
REMARK       I    between atoms: N_9  and  C_10 
REMARK    2  A    between atoms: C_10  and  C_12 
REMARK    3  A    between atoms: C_13  and  O_14 
REMARK    4  A    between atoms: C_20  and  C_21 
REMARK    5  A    between atoms: C_21  and  C_22 
ROOT
HETATM    1  C   UNL     1       3.574   8.032  22.819  0.00  0.00     0.066 C 
HETATM    2  C   UNL     1       4.092   9.238  22.296  0.00  0.00     0.083 C 
HETATM    3  C   UNL     1       4.688   9.313  21.035  0.00  0.00     0.069 C 
HETATM    4  C   UNL     1       4.845   8.115  20.342  0.00  0.00     0.065 C 
HETATM    5  N   UNL     1       5.368   7.839  19.112  0.00  0.00    -0.277 N 
HETATM    6  H   UNL     1       5.688   8.503  18.418  0.00  0.00     0.189 HD
HETATM    7  N   UNL     1       5.475   6.532  18.842  0.00  0.00    -0.178 NA
HETATM    8  C   UNL     1       5.019   5.929  19.950  0.00  0.00     0.071 C 
HETATM    9  C   UNL     1       4.440   6.885  20.847  0.00  0.00     0.020 C 
HETATM   10  C   UNL     1       3.689   6.865  22.038  0.00  0.00     0.035 C 
ENDROOT
BRANCH   1  11
HETATM   11  C   UNL     1       2.901   8.062  24.164  0.00  0.00     0.260 C 
HETATM   12  N   UNL     1       3.424   7.389  25.305  0.00  0.00    -0.318 N 
HETATM   13  C   UNL     1       4.781   6.845  25.281  0.00  0.00     0.159 C 
HETATM   14  O   UNL     1       1.905   8.800  24.186  0.00  0.00    -0.267 OA
BRANCH  12  15
HETATM   15  C   UNL     1       2.731   7.462  26.585  0.00  0.00     0.037 C 
HETATM   16  C   UNL     1       3.073   8.426  27.549  0.00  0.00     0.039 C 
HETATM   17  C   UNL     1       2.607   8.304  28.851  0.00  0.00    -0.027 C 
HETATM   18  C   UNL     1       1.687   7.329  29.207  0.00  0.00     0.043 C 
HETATM   19  C   UNL     1       3.116   9.036  30.051  0.00  0.00     0.061 C 
HETATM   20  N   UNL     1       1.395   7.404  30.577  0.00  0.00    -0.318 N 
HETATM   21  C   UNL     1       1.213   6.454  28.260  0.00  0.00     0.032 C 
HETATM   22  C   UNL     1       0.492   6.604  31.261  0.00  0.00     0.220 C 
HETATM   23  C   UNL     1       2.180   8.519  31.149  0.00  0.00     0.137 C 
HETATM   24  O   UNL     1      -0.153   5.678  30.767  0.00  0.00    -0.273 OA
HETATM   25  C   UNL     1       0.308   6.954  32.715  0.00  0.00     0.117 C 
HETATM   26  C   UNL     1       1.744   6.519  26.963  0.00  0.00     0.032 C 
ENDBRANCH  12  15
ENDBRANCH   1  11
BRANCH   2  27
HETATM   27  O   UNL     1       4.052  10.436  22.972  0.00  0.00    -0.360 OA
HETATM   28  H   UNL     1       3.481  10.312  23.764  0.00  0.00     0.217 HD
ENDBRANCH   2  27
BRANCH   8  29
HETATM   29  C   UNL     1       5.227   4.450  20.139  0.00  0.00     0.100 C 
BRANCH  29  30
HETATM   30  C   UNL     1       3.855   3.779  20.120  0.00  0.00    -0.052 A 
HETATM   31  C   UNL     1       3.025   3.815  18.981  0.00  0.00     0.014 A 
HETATM   32  C   UNL     1       1.786   3.157  18.944  0.00  0.00    -0.061 A 
HETATM   33  C   UNL     1       1.008   3.081  17.663  0.00  0.00     0.048 C 
HETATM   34  C   UNL     1       1.329   2.508  20.092  0.00  0.00     0.007 A 
HETATM   35  C   UNL     1       2.095   2.527  21.257  0.00  0.00     0.001 A 
HETATM   36  C   UNL     1       3.349   3.153  21.271  0.00  0.00     0.007 A 
ENDBRANCH  29  30
ENDBRANCH   8  29
TORSDOF 5
ENDMDL
MODEL 8
REMARK VINA RESULT:    -7.897      3.731     10.352
REMARK INTER + INTRA:         -11.143
REMARK INTER:                 -10.199
REMARK INTRA:                  -0.944
REMARK UNBOUND:                -1.169
REMARK  5 active torsions:
REMARK  status: ('A' for Active; 'I' for Inactive)
REMARK       I    between atoms: C_2  and  N_4 
REMARK    1  A    between atoms: C_8  and  N_9 
REMARK       I    between atoms: N_9  and  C_10 
REMARK    2  A    between atoms: C_10  and  C_12 
REMARK    3  A    between atoms: C_13  and  O_14 
REMARK    4  A    between atoms: C_20  and  C_21 
REMARK    5  A    between atoms: C_21  and  C_22 
ROOT
HETATM    1  C   UNL     1       3.677   6.648  20.228  0.00  0.00     0.066 C 
HETATM    2  C   UNL     1       4.242   7.922  19.995  0.00  0.00     0.083 C 
HETATM    3  C   UNL     1       4.497   8.829  21.027  0.00  0.00     0.069 C 
HETATM    4  C   UNL     1       4.075   8.462  22.303  0.00  0.00     0.065 C 
HETATM    5  N   UNL     1       4.172   9.096  23.508  0.00  0.00    -0.277 N 
HETATM    6  H   UNL     1       4.659   9.960  23.710  0.00  0.00     0.189 HD
HETATM    7  N   UNL     1       3.515   8.485  24.504  0.00  0.00    -0.178 NA
HETATM    8  C   UNL     1       2.951   7.418  23.919  0.00  0.00     0.071 C 
HETATM    9  C   UNL     1       3.427   7.263  22.576  0.00  0.00     0.020 C 
HETATM   10  C   UNL     1       3.343   6.301  21.551  0.00  0.00     0.035 C 
ENDROOT
BRANCH   1  11
HETATM   11  C   UNL     1       3.490   5.721  19.058  0.00  0.00     0.260 C 
HETATM   12  N   UNL     1       2.214   5.436  18.494  0.00  0.00    -0.318 N 
HETATM   13  C   UNL     1       1.048   6.236  18.867  0.00  0.00     0.159 C 
HETATM   14  O   UNL     1       4.563   5.310  18.595  0.00  0.00    -0.267 OA
BRANCH  12  15
HETATM   15  C   UNL     1       2.096   4.535  17.355  0.00  0.00     0.037 C 
HETATM   16  C   UNL     1       1.699   5.001  16.090  0.00  0.00     0.039 C 
HETATM   17  C   UNL     1       1.323   4.101  15.103  0.00  0.00    -0.027 C 
HETATM   18  C   UNL     1       1.464   2.732  15.274  0.00  0.00     0.043 C 
HETATM   19  C   UNL     1       0.586   4.418  13.842  0.00  0.00     0.061 C 
HETATM   20  N   UNL     1       0.995   2.043  14.146  0.00  0.00    -0.318 N 
HETATM   21  C   UNL     1       1.987   2.237  16.444  0.00  0.00     0.032 C 
HETATM   22  C   UNL     1       1.017   0.668  13.964  0.00  0.00     0.220 C 
HETATM   23  C   UNL     1       0.524   3.044  13.164  0.00  0.00     0.137 C 
HETATM   24  O   UNL     1       1.413  -0.151  14.794  0.00  0.00    -0.273 OA
HETATM   25  C   UNL     1       0.527   0.197  12.619  0.00  0.00     0.117 C 
HETATM   26  C   UNL     1       2.288   3.137  17.477  0.00  0.00     0.032 C 
ENDBRANCH  12  15
ENDBRANCH   1  11
BRANCH   2  27
HETATM   27  O   UNL     1       4.594   8.378  18.746  0.00  0.00    -0.360 OA
HETATM   28  H   UNL     1       5.559   8.218  18.631  0.00  0.00     0.217 HD
ENDBRANCH   2  27
BRANCH   8  29
HETATM   29  C   UNL     1       1.908   6.622  24.657  0.00  0.00     0.100 C 
BRANCH  29  30
HETATM   30  C   UNL     1       1.031   7.604  25.431  0.00  0.00    -0.052 A 
HETATM   31  C   UNL     1       0.228   8.560  24.776  0.00  0.00     0.014 A 
HETATM   32  C   UNL     1      -0.616   9.430  25.483  0.00  0.00    -0.061 A 
HETATM   33  C   UNL     1      -1.575  10.319  24.745  0.00  0.00     0.048 C 
HETATM   34  C   UNL     1      -0.608   9.398  26.878  0.00  0.00     0.007 A 
HETATM   35  C   UNL     1       0.238   8.518  27.552  0.00  0.00     0.001 A 
HETATM   36  C   UNL     1       1.048   7.625  26.836  0.00  0.00     0.007 A 
ENDBRANCH  29  30
ENDBRANCH   8  29
TORSDOF 5
ENDMDL
MODEL 9
REMARK VINA RESULT:    -7.821      3.238      9.064
REMARK INTER + INTRA:         -11.047
REMARK INTER:                  -9.879
REMARK INTRA:                  -1.169
REMARK UNBOUND:                -1.169
REMARK  5 active torsions:
REMARK  status: ('A' for Active; 'I' for Inactive)
REMARK       I    between atoms: C_2  and  N_4 
REMARK    1  A    between atoms: C_8  and  N_9 
REMARK       I    between atoms: N_9  and  C_10 
REMARK    2  A    between atoms: C_10  and  C_12 
REMARK    3  A    between atoms: C_13  and  O_14 
REMARK    4  A    between atoms: C_20  and  C_21 
REMARK    5  A    between atoms: C_21  and  C_22 
ROOT
HETATM    1  C   UNL     1       2.844   6.271  25.199  0.00  0.00     0.066 C 
HETATM    2  C   UNL     1       3.944   6.368  26.080  0.00  0.00     0.083 C 
HETATM    3  C   UNL     1       3.860   7.019  27.314  0.00  0.00     0.069 C 
HETATM    4  C   UNL     1       2.660   7.666  27.602  0.00  0.00     0.065 C 
HETATM    5  N   UNL     1       2.250   8.373  28.696  0.00  0.00    -0.277 N 
HETATM    6  H   UNL     1       2.749   8.499  29.568  0.00  0.00     0.189 HD
HETATM    7  N   UNL     1       1.061   8.971  28.548  0.00  0.00    -0.178 NA
HETATM    8  C   UNL     1       0.688   8.655  27.298  0.00  0.00     0.071 C 
HETATM    9  C   UNL     1       1.577   7.685  26.732  0.00  0.00     0.020 C 
HETATM   10  C   UNL     1       1.631   6.876  25.580  0.00  0.00     0.035 C 
ENDROOT
BRANCH   1  11
HETATM   11  C   UNL     1       3.017   5.503  23.917  0.00  0.00     0.260 C 
HETATM   12  N   UNL     1       3.302   6.132  22.671  0.00  0.00    -0.318 N 
HETATM   13  C   UNL     1       3.695   7.539  22.631  0.00  0.00     0.159 C 
HETATM   14  O   UNL     1       2.970   4.276  24.083  0.00  0.00    -0.267 OA
BRANCH  12  15
HETATM   15  C   UNL     1       3.467   5.333  21.464  0.00  0.00     0.037 C 
HETATM   16  C   UNL     1       2.373   5.017  20.640  0.00  0.00     0.039 C 
HETATM   17  C   UNL     1       2.496   4.035  19.666  0.00  0.00    -0.027 C 
HETATM   18  C   UNL     1       3.718   3.446  19.376  0.00  0.00     0.043 C 
HETATM   19  C   UNL     1       1.380   3.361  18.935  0.00  0.00     0.061 C 
HETATM   20  N   UNL     1       3.571   2.475  18.375  0.00  0.00    -0.318 N 
HETATM   21  C   UNL     1       4.845   3.832  20.060  0.00  0.00     0.032 C 
HETATM   22  C   UNL     1       4.593   1.718  17.820  0.00  0.00     0.220 C 
HETATM   23  C   UNL     1       2.146   2.441  17.979  0.00  0.00     0.137 C 
HETATM   24  O   UNL     1       5.774   1.760  18.163  0.00  0.00    -0.273 OA
HETATM   25  C   UNL     1       4.168   0.806  16.697  0.00  0.00     0.117 C 
HETATM   26  C   UNL     1       4.711   4.761  21.103  0.00  0.00     0.032 C 
ENDBRANCH  12  15
ENDBRANCH   1  11
BRANCH   2  27
HETATM   27  O   UNL     1       5.181   5.832  25.811  0.00  0.00    -0.360 OA
HETATM   28  H   UNL     1       5.847   6.548  25.920  0.00  0.00     0.217 HD
ENDBRANCH   2  27
BRANCH   8  29
HETATM   29  C   UNL     1      -0.480   9.363  26.663  0.00  0.00     0.100 C 
BRANCH  29  30
HETATM   30  C   UNL     1       0.072  10.494  25.798  0.00  0.00    -0.052 A 
HETATM   31  C   UNL     1       1.382  10.460  25.277  0.00  0.00     0.014 A 
HETATM   32  C   UNL     1       1.874  11.474  24.441  0.00  0.00    -0.061 A 
HETATM   33  C   UNL     1       3.211  11.322  23.775  0.00  0.00     0.048 C 
HETATM   34  C   UNL     1       1.071  12.584  24.176  0.00  0.00     0.007 A 
HETATM   35  C   UNL     1      -0.198  12.680  24.747  0.00  0.00     0.001 A 
HETATM   36  C   UNL     1      -0.696  11.643  25.547  0.00  0.00     0.007 A 
ENDBRANCH  29  30
ENDBRANCH   8  29
TORSDOF 5
ENDMDL
