REMARK  5 active torsions:
REMARK  status: ('A' for Active; 'I' for Inactive)
REMARK       I    between atoms: C_2  and  N_4 
REMARK    1  A    between atoms: C_8  and  N_9 
REMARK       I    between atoms: N_9  and  C_10 
REMARK    2  A    between atoms: C_10  and  C_12 
REMARK    3  A    between atoms: C_13  and  O_14 
REMARK    4  A    between atoms: C_20  and  C_21 
REMARK    5  A    between atoms: C_21  and  C_22 
ROOT
HETATM    1  C   UNL     1       4.400   5.314  -4.864  0.00  0.00     0.066 C 
HETATM    2  C   UNL     1       3.729   4.097  -5.118  0.00  0.00     0.083 C 
HETATM    3  C   UNL     1       4.288   3.082  -5.899  0.00  0.00     0.069 C 
HETATM    4  C   UNL     1       5.509   3.360  -6.509  0.00  0.00     0.065 C 
HETATM    5  N   UNL     1       6.315   2.606  -7.312  0.00  0.00    -0.277 N 
HETATM    6  H   UNL     1       6.195   1.632  -7.562  0.00  0.00     0.189 HD
HETATM    7  N   UNL     1       7.357   3.273  -7.826  0.00  0.00    -0.178 NA
HETATM    8  C   UNL     1       7.214   4.520  -7.352  0.00  0.00     0.071 C 
HETATM    9  C   UNL     1       6.170   4.575  -6.372  0.00  0.00     0.020 C 
HETATM   10  C   UNL     1       5.669   5.507  -5.443  0.00  0.00     0.035 C 
ENDROOT
BRANCH   1  11
HETATM   11  C   UNL     1       3.739   6.324  -3.966  0.00  0.00     0.260 C 
HETATM   12  N   UNL     1       3.972   7.725  -4.075  0.00  0.00    -0.318 N 
HETATM   13  C   UNL     1       4.672   8.266  -5.239  0.00  0.00     0.159 C 
HETATM   14  O   UNL     1       2.917   5.813  -3.192  0.00  0.00    -0.267 OA
BRANCH  12  15
HETATM   15  C   UNL     1       3.296   8.656  -3.181  0.00  0.00     0.037 C 
HETATM   16  C   UNL     1       2.702   8.221  -1.984  0.00  0.00     0.039 C 
HETATM   17  C   UNL     1       1.831   9.055  -1.296  0.00  0.00    -0.027 C 
HETATM   18  C   UNL     1       1.633  10.374  -1.676  0.00  0.00     0.043 C 
HETATM   19  C   UNL     1       0.885   8.654  -0.210  0.00  0.00     0.061 C 
HETATM   20  N   UNL     1       0.695  10.993  -0.837  0.00  0.00    -0.318 N 
HETATM   21  C   UNL     1       2.308  10.885  -2.758  0.00  0.00     0.032 C 
HETATM   22  C   UNL     1       0.287  12.317  -0.910  0.00  0.00     0.220 C 
HETATM   23  C   UNL     1       0.260  10.001   0.170  0.00  0.00     0.137 C 
HETATM   24  O   UNL     1       0.660  13.129  -1.757  0.00  0.00    -0.273 OA
HETATM   25  C   UNL     1      -0.672  12.746   0.171  0.00  0.00     0.117 C 
HETATM   26  C   UNL     1       3.123  10.023  -3.507  0.00  0.00     0.032 C 
ENDBRANCH  12  15
ENDBRANCH   1  11
BRANCH   2  27
HETATM   27  O   UNL     1       2.481   3.801  -4.621  0.00  0.00    -0.360 OA
HETATM   28  H   UNL     1       2.251   4.494  -3.961  0.00  0.00     0.217 HD
ENDBRANCH   2  27
BRANCH   8  29
HETATM   29  C   UNL     1       8.047   5.638  -7.920  0.00  0.00     0.100 C 
BRANCH  29  30
HETATM   30  C   UNL     1       7.284   6.238  -9.099  0.00  0.00    -0.052 A 
HETATM   31  C   UNL     1       6.745   5.433 -10.123  0.00  0.00     0.014 A 
HETATM   32  C   UNL     1       6.001   5.977 -11.181  0.00  0.00    -0.061 A 
HETATM   33  C   UNL     1       5.307   5.075 -12.160  0.00  0.00     0.048 C 
HETATM   34  C   UNL     1       5.850   7.362 -11.262  0.00  0.00     0.007 A 
HETATM   35  C   UNL     1       6.443   8.186 -10.306  0.00  0.00     0.001 A 
HETATM   36  C   UNL     1       7.150   7.630  -9.231  0.00  0.00     0.007 A 
ENDBRANCH  29  30
ENDBRANCH   8  29
TORSDOF 5
