MODEL 1
REMARK VINA RESULT:    -6.327      0.000      0.000
REMARK INTER + INTRA:          -9.203
REMARK INTER:                  -8.181
REMARK INTRA:                  -1.022
REMARK UNBOUND:                -1.027
REMARK  5 active torsions:
REMARK  status: ('A' for Active; 'I' for Inactive)
REMARK    1  A    between atoms: N8_1  and  C24_2 
REMARK    2  A    between atoms: N8_1  and  C7_8 
REMARK    3  A    between atoms: C2_13  and  N1_14 
REMARK    4  A    between atoms: N1_14  and  C17_15 
REMARK    5  A    between atoms: C14_16  and  C13_19 
ROOT
ATOM      1  C17 FTA A   1       5.272  16.093  17.241  1.00  0.00     0.142 C 
ATOM      2  C14 FTA A   1       6.348  16.743  17.728  1.00  0.00     0.158 C 
ATOM      3  C18 FTA A   1       7.668  16.455  17.211  1.00  0.00     0.069 C 
ATOM      4  N21 FTA A   1       8.674  16.080  16.741  1.00  0.00    -0.197 NA
ENDROOT
BRANCH   2   5
ATOM      5  C13 FTA A   1       6.164  17.764  18.785  1.00  0.00     0.197 A 
ATOM      6  N15 FTA A   1       4.946  18.263  19.244  1.00  0.00    -0.093 NA
ATOM      7  N19 FTA A   1       5.225  19.230  20.200  1.00  0.00    -0.231 N 
ATOM      8  N20 FTA A   1       6.600  19.345  20.344  1.00  0.00    -0.017 NA
ATOM      9  H15 FTA A   1       4.523  19.776  20.720  1.00  0.00     0.200 HD
ATOM     10  N16 FTA A   1       7.184  18.429  19.475  1.00  0.00    -0.090 NA
ENDBRANCH   2   5
BRANCH   1  11
ATOM     11  N1  FTA A   1       4.441  15.473  18.101  1.00  0.00    -0.389 N 
ATOM     12  H11 FTA A   1       4.864  14.987  18.905  1.00  0.00     0.159 HD
BRANCH  11  13
ATOM     13  C2  FTA A   1       3.025  15.438  17.983  1.00  0.00     0.028 A 
ATOM     14  C4  FTA A   1       2.268  14.369  18.457  1.00  0.00     0.031 A 
ATOM     15  C6  FTA A   1       0.913  14.287  18.107  1.00  0.00     0.031 A 
ATOM     16  C7  FTA A   1       0.299  15.239  17.298  1.00  0.00     0.032 A 
ATOM     17  C5  FTA A   1       1.058  16.308  16.856  1.00  0.00     0.031 A 
ATOM     18  C3  FTA A   1       2.406  16.401  17.181  1.00  0.00     0.031 A 
BRANCH  16  19
ATOM     19  N8  FTA A   1      -1.003  15.070  16.762  1.00  0.00    -0.356 N 
ATOM     20  H1  FTA A   1      -1.780  15.537  17.251  1.00  0.00     0.166 HD
BRANCH  19  21
ATOM     21  C24 FTA A   1      -1.326  14.304  15.601  1.00  0.00     0.032 A 
ATOM     22  C26 FTA A   1      -0.363  13.618  14.899  1.00  0.00     0.029 A 
ATOM     23  C28 FTA A   1      -0.708  13.041  13.692  1.00  0.00     0.002 A 
ATOM     24  C30 FTA A   1      -1.993  13.102  13.180  1.00  0.00     0.000 A 
ATOM     25  C29 FTA A   1      -2.970  13.750  13.887  1.00  0.00     0.002 A 
ATOM     26  C27 FTA A   1      -2.623  14.338  15.109  1.00  0.00     0.029 A 
ENDBRANCH  19  21
ENDBRANCH  16  19
ENDBRANCH  11  13
ENDBRANCH   1  11
TORSDOF 5
ENDMDL
MODEL 2
REMARK VINA RESULT:    -6.256      2.490      8.741
REMARK INTER + INTRA:          -9.111
REMARK INTER:                  -8.095
REMARK INTRA:                  -1.016
REMARK UNBOUND:                -1.027
REMARK  5 active torsions:
REMARK  status: ('A' for Active; 'I' for Inactive)
REMARK    1  A    between atoms: N8_1  and  C24_2 
REMARK    2  A    between atoms: N8_1  and  C7_8 
REMARK    3  A    between atoms: C2_13  and  N1_14 
REMARK    4  A    between atoms: N1_14  and  C17_15 
REMARK    5  A    between atoms: C14_16  and  C13_19 
ROOT
ATOM      1  C17 FTA A   1      -2.305  14.660  16.113  1.00  0.00     0.142 C 
ATOM      2  C14 FTA A   1      -2.830  14.249  14.942  1.00  0.00     0.158 C 
ATOM      3  C18 FTA A   1      -4.264  14.249  14.748  1.00  0.00     0.069 C 
ATOM      4  N21 FTA A   1      -5.436  14.248  14.754  1.00  0.00    -0.197 NA
ENDROOT
BRANCH   2   5
ATOM      5  C13 FTA A   1      -1.927  13.814  13.852  1.00  0.00     0.197 A 
ATOM      6  N15 FTA A   1      -0.651  13.277  14.006  1.00  0.00    -0.093 NA
ATOM      7  N19 FTA A   1      -0.136  13.050  12.736  1.00  0.00    -0.231 N 
ATOM      8  N20 FTA A   1      -1.072  13.440  11.790  1.00  0.00    -0.017 NA
ATOM      9  H15 FTA A   1       0.793  12.655  12.530  1.00  0.00     0.200 HD
ATOM     10  N16 FTA A   1      -2.188  13.904  12.480  1.00  0.00    -0.090 NA
ENDBRANCH   2   5
BRANCH   1  11
ATOM     11  N1  FTA A   1      -1.441  13.852  16.758  1.00  0.00    -0.389 N 
ATOM     12  H11 FTA A   1      -1.694  12.858  16.847  1.00  0.00     0.159 HD
BRANCH  11  13
ATOM     13  C2  FTA A   1      -0.205  14.268  17.326  1.00  0.00     0.028 A 
ATOM     14  C4  FTA A   1       0.484  15.386  16.863  1.00  0.00     0.031 A 
ATOM     15  C6  FTA A   1       1.796  15.607  17.303  1.00  0.00     0.031 A 
ATOM     16  C7  FTA A   1       2.435  14.742  18.188  1.00  0.00     0.032 A 
ATOM     17  C5  FTA A   1       1.728  13.649  18.658  1.00  0.00     0.031 A 
ATOM     18  C3  FTA A   1       0.431  13.405  18.223  1.00  0.00     0.031 A 
BRANCH  16  19
ATOM     19  N8  FTA A   1       3.820  14.827  18.482  1.00  0.00    -0.356 N 
ATOM     20  H1  FTA A   1       4.268  13.994  18.890  1.00  0.00     0.166 HD
BRANCH  19  21
ATOM     21  C24 FTA A   1       4.643  15.972  18.259  1.00  0.00     0.032 A 
ATOM     22  C26 FTA A   1       5.510  16.040  17.194  1.00  0.00     0.029 A 
ATOM     23  C28 FTA A   1       6.400  17.094  17.131  1.00  0.00     0.002 A 
ATOM     24  C30 FTA A   1       6.430  18.099  18.083  1.00  0.00     0.000 A 
ATOM     25  C29 FTA A   1       5.547  18.063  19.129  1.00  0.00     0.002 A 
ATOM     26  C27 FTA A   1       4.646  16.994  19.197  1.00  0.00     0.029 A 
ENDBRANCH  19  21
ENDBRANCH  16  19
ENDBRANCH  11  13
ENDBRANCH   1  11
TORSDOF 5
ENDMDL
MODEL 3
REMARK VINA RESULT:    -6.236      1.140      2.797
REMARK INTER + INTRA:          -9.085
REMARK INTER:                  -8.112
REMARK INTRA:                  -0.972
REMARK UNBOUND:                -1.027
REMARK  5 active torsions:
REMARK  status: ('A' for Active; 'I' for Inactive)
REMARK    1  A    between atoms: N8_1  and  C24_2 
REMARK    2  A    between atoms: N8_1  and  C7_8 
REMARK    3  A    between atoms: C2_13  and  N1_14 
REMARK    4  A    between atoms: N1_14  and  C17_15 
REMARK    5  A    between atoms: C14_16  and  C13_19 
ROOT
ATOM      1  C17 FTA A   1       4.500  16.207  19.097  1.00  0.00     0.142 C 
ATOM      2  C14 FTA A   1       5.160  17.136  18.377  1.00  0.00     0.158 C 
ATOM      3  C18 FTA A   1       4.824  18.537  18.515  1.00  0.00     0.069 C 
ATOM      4  N21 FTA A   1       4.410  19.620  18.686  1.00  0.00    -0.197 NA
ENDROOT
BRANCH   2   5
ATOM      5  C13 FTA A   1       6.238  16.712  17.455  1.00  0.00     0.197 A 
ATOM      6  N15 FTA A   1       7.605  16.901  17.647  1.00  0.00    -0.093 NA
ATOM      7  N19 FTA A   1       8.258  16.398  16.529  1.00  0.00    -0.231 N 
ATOM      8  N20 FTA A   1       7.318  15.900  15.639  1.00  0.00    -0.017 NA
ATOM      9  H15 FTA A   1       9.278  16.395  16.384  1.00  0.00     0.200 HD
ATOM     10  N16 FTA A   1       6.065  16.084  16.216  1.00  0.00    -0.090 NA
ENDBRANCH   2   5
BRANCH   1  11
ATOM     11  N1  FTA A   1       3.940  15.163  18.457  1.00  0.00    -0.389 N 
ATOM     12  H11 FTA A   1       4.571  14.435  18.092  1.00  0.00     0.159 HD
BRANCH  11  13
ATOM     13  C2  FTA A   1       2.545  14.988  18.248  1.00  0.00     0.028 A 
ATOM     14  C4  FTA A   1       1.885  13.811  18.593  1.00  0.00     0.031 A 
ATOM     15  C6  FTA A   1       0.569  13.615  18.153  1.00  0.00     0.031 A 
ATOM     16  C7  FTA A   1      -0.100  14.559  17.379  1.00  0.00     0.032 A 
ATOM     17  C5  FTA A   1       0.560  15.734  17.066  1.00  0.00     0.031 A 
ATOM     18  C3  FTA A   1       1.869  15.942  17.481  1.00  0.00     0.031 A 
BRANCH  16  19
ATOM     19  N8  FTA A   1      -1.345  14.297  16.750  1.00  0.00    -0.356 N 
ATOM     20  H1  FTA A   1      -2.182  14.279  17.350  1.00  0.00     0.166 HD
BRANCH  19  21
ATOM     21  C24 FTA A   1      -1.531  14.054  15.356  1.00  0.00     0.032 A 
ATOM     22  C26 FTA A   1      -2.748  14.253  14.747  1.00  0.00     0.029 A 
ATOM     23  C28 FTA A   1      -2.909  13.838  13.439  1.00  0.00     0.002 A 
ATOM     24  C30 FTA A   1      -1.883  13.258  12.711  1.00  0.00     0.000 A 
ATOM     25  C29 FTA A   1      -0.656  13.089  13.295  1.00  0.00     0.002 A 
ATOM     26  C27 FTA A   1      -0.491  13.506  14.620  1.00  0.00     0.029 A 
ENDBRANCH  19  21
ENDBRANCH  16  19
ENDBRANCH  11  13
ENDBRANCH   1  11
TORSDOF 5
ENDMDL
MODEL 4
REMARK VINA RESULT:    -6.020      1.657      3.189
REMARK INTER + INTRA:          -8.807
REMARK INTER:                  -7.921
REMARK INTRA:                  -0.886
REMARK UNBOUND:                -1.027
REMARK  5 active torsions:
REMARK  status: ('A' for Active; 'I' for Inactive)
REMARK    1  A    between atoms: N8_1  and  C24_2 
REMARK    2  A    between atoms: N8_1  and  C7_8 
REMARK    3  A    between atoms: C2_13  and  N1_14 
REMARK    4  A    between atoms: N1_14  and  C17_15 
REMARK    5  A    between atoms: C14_16  and  C13_19 
ROOT
ATOM      1  C17 FTA A   1       4.276  16.283  19.171  1.00  0.00     0.142 C 
ATOM      2  C14 FTA A   1       4.931  17.192  18.420  1.00  0.00     0.158 C 
ATOM      3  C18 FTA A   1       4.528  18.582  18.445  1.00  0.00     0.069 C 
ATOM      4  N21 FTA A   1       4.058  19.653  18.520  1.00  0.00    -0.197 NA
ENDROOT
BRANCH   2   5
ATOM      5  C13 FTA A   1       6.073  16.758  17.583  1.00  0.00     0.197 A 
ATOM      6  N15 FTA A   1       7.418  17.034  17.821  1.00  0.00    -0.093 NA
ATOM      7  N19 FTA A   1       8.148  16.485  16.775  1.00  0.00    -0.231 N 
ATOM      8  N20 FTA A   1       7.278  15.871  15.886  1.00  0.00    -0.017 NA
ATOM      9  H15 FTA A   1       9.173  16.526  16.676  1.00  0.00     0.200 HD
ATOM     10  N16 FTA A   1       5.992  16.030  16.391  1.00  0.00    -0.090 NA
ENDBRANCH   2   5
BRANCH   1  11
ATOM     11  N1  FTA A   1       3.796  15.173  18.578  1.00  0.00    -0.389 N 
ATOM     12  H11 FTA A   1       4.439  14.375  18.470  1.00  0.00     0.159 HD
BRANCH  11  13
ATOM     13  C2  FTA A   1       2.470  15.019  18.090  1.00  0.00     0.028 A 
ATOM     14  C4  FTA A   1       1.645  13.976  18.505  1.00  0.00     0.031 A 
ATOM     15  C6  FTA A   1       0.444  13.746  17.820  1.00  0.00     0.031 A 
ATOM     16  C7  FTA A   1       0.048  14.526  16.737  1.00  0.00     0.032 A 
ATOM     17  C5  FTA A   1       0.867  15.574  16.354  1.00  0.00     0.031 A 
ATOM     18  C3  FTA A   1       2.068  15.810  17.010  1.00  0.00     0.031 A 
BRANCH  16  19
ATOM     19  N8  FTA A   1      -1.048  14.187  15.904  1.00  0.00    -0.356 N 
ATOM     20  H1  FTA A   1      -0.892  13.462  15.189  1.00  0.00     0.166 HD
BRANCH  19  21
ATOM     21  C24 FTA A   1      -2.351  14.769  15.974  1.00  0.00     0.032 A 
ATOM     22  C26 FTA A   1      -3.443  14.159  15.403  1.00  0.00     0.029 A 
ATOM     23  C28 FTA A   1      -4.638  14.853  15.355  1.00  0.00     0.002 A 
ATOM     24  C30 FTA A   1      -4.782  16.123  15.888  1.00  0.00     0.000 A 
ATOM     25  C29 FTA A   1      -3.711  16.725  16.493  1.00  0.00     0.002 A 
ATOM     26  C27 FTA A   1      -2.499  16.027  16.540  1.00  0.00     0.029 A 
ENDBRANCH  19  21
ENDBRANCH  16  19
ENDBRANCH  11  13
ENDBRANCH   1  11
TORSDOF 5
ENDMDL
MODEL 5
REMARK VINA RESULT:    -6.018      5.143     10.940
REMARK INTER + INTRA:          -8.804
REMARK INTER:                  -7.640
REMARK INTRA:                  -1.164
REMARK UNBOUND:                -1.027
REMARK  5 active torsions:
REMARK  status: ('A' for Active; 'I' for Inactive)
REMARK    1  A    between atoms: N8_1  and  C24_2 
REMARK    2  A    between atoms: N8_1  and  C7_8 
REMARK    3  A    between atoms: C2_13  and  N1_14 
REMARK    4  A    between atoms: N1_14  and  C17_15 
REMARK    5  A    between atoms: C14_16  and  C13_19 
ROOT
ATOM      1  C17 FTA A   1      -6.224  13.236  13.740  1.00  0.00     0.142 C 
ATOM      2  C14 FTA A   1      -6.341  12.018  14.306  1.00  0.00     0.158 C 
ATOM      3  C18 FTA A   1      -6.410  11.888  15.746  1.00  0.00     0.069 C 
ATOM      4  N21 FTA A   1      -6.397  11.931  16.917  1.00  0.00    -0.197 NA
ENDROOT
BRANCH   2   5
ATOM      5  C13 FTA A   1      -6.413  10.817  13.442  1.00  0.00     0.197 A 
ATOM      6  N15 FTA A   1      -5.350  10.232  12.758  1.00  0.00    -0.093 NA
ATOM      7  N19 FTA A   1      -5.858   9.161  12.034  1.00  0.00    -0.231 N 
ATOM      8  N20 FTA A   1      -7.225   9.071  12.254  1.00  0.00    -0.017 NA
ATOM      9  H15 FTA A   1      -5.308   8.534  11.429  1.00  0.00     0.200 HD
ATOM     10  N16 FTA A   1      -7.569  10.090  13.136  1.00  0.00    -0.090 NA
ENDBRANCH   2   5
BRANCH   1  11
ATOM     11  N1  FTA A   1      -5.228  13.452  12.860  1.00  0.00    -0.389 N 
ATOM     12  H11 FTA A   1      -5.481  13.533  11.865  1.00  0.00     0.159 HD
BRANCH  11  13
ATOM     13  C2  FTA A   1      -3.853  13.578  13.200  1.00  0.00     0.028 A 
ATOM     14  C4  FTA A   1      -2.862  12.827  12.573  1.00  0.00     0.031 A 
ATOM     15  C6  FTA A   1      -1.567  12.828  13.107  1.00  0.00     0.031 A 
ATOM     16  C7  FTA A   1      -1.238  13.555  14.249  1.00  0.00     0.032 A 
ATOM     17  C5  FTA A   1      -2.227  14.316  14.845  1.00  0.00     0.031 A 
ATOM     18  C3  FTA A   1      -3.521  14.318  14.338  1.00  0.00     0.031 A 
BRANCH  16  19
ATOM     19  N8  FTA A   1       0.000  13.408  14.924  1.00  0.00    -0.356 N 
ATOM     20  H1  FTA A   1       0.682  12.748  14.523  1.00  0.00     0.166 HD
BRANCH  19  21
ATOM     21  C24 FTA A   1       0.380  14.100  16.114  1.00  0.00     0.032 A 
ATOM     22  C26 FTA A   1       0.935  15.357  16.071  1.00  0.00     0.029 A 
ATOM     23  C28 FTA A   1       1.439  15.899  17.238  1.00  0.00     0.002 A 
ATOM     24  C30 FTA A   1       1.375  15.237  18.453  1.00  0.00     0.000 A 
ATOM     25  C29 FTA A   1       0.789  14.000  18.516  1.00  0.00     0.002 A 
ATOM     26  C27 FTA A   1       0.282  13.447  17.335  1.00  0.00     0.029 A 
ENDBRANCH  19  21
ENDBRANCH  16  19
ENDBRANCH  11  13
ENDBRANCH   1  11
TORSDOF 5
ENDMDL
MODEL 6
REMARK VINA RESULT:    -5.981      1.421      2.187
REMARK INTER + INTRA:          -8.755
REMARK INTER:                  -7.863
REMARK INTRA:                  -0.892
REMARK UNBOUND:                -1.027
REMARK  5 active torsions:
REMARK  status: ('A' for Active; 'I' for Inactive)
REMARK    1  A    between atoms: N8_1  and  C24_2 
REMARK    2  A    between atoms: N8_1  and  C7_8 
REMARK    3  A    between atoms: C2_13  and  N1_14 
REMARK    4  A    between atoms: N1_14  and  C17_15 
REMARK    5  A    between atoms: C14_16  and  C13_19 
ROOT
ATOM      1  C17 FTA A   1       4.818  15.929  17.450  1.00  0.00     0.142 C 
ATOM      2  C14 FTA A   1       5.739  16.833  17.839  1.00  0.00     0.158 C 
ATOM      3  C18 FTA A   1       7.149  16.540  17.703  1.00  0.00     0.069 C 
ATOM      4  N21 FTA A   1       8.248  16.146  17.589  1.00  0.00    -0.197 NA
ENDROOT
BRANCH   2   5
ATOM      5  C13 FTA A   1       5.294  18.133  18.391  1.00  0.00     0.197 A 
ATOM      6  N15 FTA A   1       5.971  18.900  19.337  1.00  0.00    -0.093 NA
ATOM      7  N19 FTA A   1       5.188  20.014  19.610  1.00  0.00    -0.231 N 
ATOM      8  N20 FTA A   1       4.030  19.954  18.849  1.00  0.00    -0.017 NA
ATOM      9  H15 FTA A   1       5.429  20.766  20.272  1.00  0.00     0.200 HD
ATOM     10  N16 FTA A   1       4.099  18.794  18.084  1.00  0.00    -0.090 NA
ENDBRANCH   2   5
BRANCH   1  11
ATOM     11  N1  FTA A   1       3.859  15.560  18.320  1.00  0.00    -0.389 N 
ATOM     12  H11 FTA A   1       4.131  15.441  19.307  1.00  0.00     0.159 HD
BRANCH  11  13
ATOM     13  C2  FTA A   1       2.498  15.324  17.982  1.00  0.00     0.028 A 
ATOM     14  C4  FTA A   1       1.743  14.329  18.598  1.00  0.00     0.031 A 
ATOM     15  C6  FTA A   1       0.492  13.996  18.062  1.00  0.00     0.031 A 
ATOM     16  C7  FTA A   1      -0.021  14.626  16.931  1.00  0.00     0.032 A 
ATOM     17  C5  FTA A   1       0.730  15.629  16.346  1.00  0.00     0.031 A 
ATOM     18  C3  FTA A   1       1.979  15.965  16.853  1.00  0.00     0.031 A 
BRANCH  16  19
ATOM     19  N8  FTA A   1      -1.179  14.167  16.253  1.00  0.00    -0.356 N 
ATOM     20  H1  FTA A   1      -1.154  13.210  15.870  1.00  0.00     0.166 HD
BRANCH  19  21
ATOM     21  C24 FTA A   1      -2.376  14.920  16.057  1.00  0.00     0.032 A 
ATOM     22  C26 FTA A   1      -2.545  16.162  16.621  1.00  0.00     0.029 A 
ATOM     23  C28 FTA A   1      -3.787  16.763  16.538  1.00  0.00     0.002 A 
ATOM     24  C30 FTA A   1      -4.855  16.175  15.882  1.00  0.00     0.000 A 
ATOM     25  C29 FTA A   1      -4.688  14.955  15.283  1.00  0.00     0.002 A 
ATOM     26  C27 FTA A   1      -3.433  14.342  15.369  1.00  0.00     0.029 A 
ENDBRANCH  19  21
ENDBRANCH  16  19
ENDBRANCH  11  13
ENDBRANCH   1  11
TORSDOF 5
ENDMDL
MODEL 7
REMARK VINA RESULT:    -5.951      1.329      2.222
REMARK INTER + INTRA:          -8.717
REMARK INTER:                  -7.702
REMARK INTRA:                  -1.015
REMARK UNBOUND:                -1.027
REMARK  5 active torsions:
REMARK  status: ('A' for Active; 'I' for Inactive)
REMARK    1  A    between atoms: N8_1  and  C24_2 
REMARK    2  A    between atoms: N8_1  and  C7_8 
REMARK    3  A    between atoms: C2_13  and  N1_14 
REMARK    4  A    between atoms: N1_14  and  C17_15 
REMARK    5  A    between atoms: C14_16  and  C13_19 
ROOT
ATOM      1  C17 FTA A   1       5.257  16.866  16.506  1.00  0.00     0.142 C 
ATOM      2  C14 FTA A   1       6.518  16.438  16.303  1.00  0.00     0.158 C 
ATOM      3  C18 FTA A   1       6.852  15.703  15.102  1.00  0.00     0.069 C 
ATOM      4  N21 FTA A   1       6.964  15.074  14.119  1.00  0.00    -0.197 NA
ENDROOT
BRANCH   2   5
ATOM      5  C13 FTA A   1       7.561  16.740  17.310  1.00  0.00     0.197 A 
ATOM      6  N15 FTA A   1       8.774  16.073  17.463  1.00  0.00    -0.093 NA
ATOM      7  N19 FTA A   1       9.429  16.640  18.548  1.00  0.00    -0.231 N 
ATOM      8  N20 FTA A   1       8.641  17.652  19.077  1.00  0.00    -0.017 NA
ATOM      9  H15 FTA A   1      10.353  16.356  18.904  1.00  0.00     0.200 HD
ATOM     10  N16 FTA A   1       7.487  17.723  18.304  1.00  0.00    -0.090 NA
ENDBRANCH   2   5
BRANCH   1  11
ATOM     11  N1  FTA A   1       4.641  16.553  17.662  1.00  0.00    -0.389 N 
ATOM     12  H11 FTA A   1       5.168  16.695  18.536  1.00  0.00     0.159 HD
BRANCH  11  13
ATOM     13  C2  FTA A   1       3.318  16.043  17.769  1.00  0.00     0.028 A 
ATOM     14  C4  FTA A   1       3.040  14.831  18.396  1.00  0.00     0.031 A 
ATOM     15  C6  FTA A   1       1.759  14.277  18.266  1.00  0.00     0.031 A 
ATOM     16  C7  FTA A   1       0.755  14.898  17.527  1.00  0.00     0.032 A 
ATOM     17  C5  FTA A   1       1.040  16.114  16.932  1.00  0.00     0.031 A 
ATOM     18  C3  FTA A   1       2.307  16.674  17.038  1.00  0.00     0.031 A 
BRANCH  16  19
ATOM     19  N8  FTA A   1      -0.472  14.262  17.209  1.00  0.00    -0.356 N 
ATOM     20  H1  FTA A   1      -1.016  13.868  17.990  1.00  0.00     0.166 HD
BRANCH  19  21
ATOM     21  C24 FTA A   1      -1.014  14.122  15.896  1.00  0.00     0.032 A 
ATOM     22  C26 FTA A   1      -2.284  14.553  15.591  1.00  0.00     0.029 A 
ATOM     23  C28 FTA A   1      -2.812  14.235  14.355  1.00  0.00     0.002 A 
ATOM     24  C30 FTA A   1      -2.100  13.527  13.402  1.00  0.00     0.000 A 
ATOM     25  C29 FTA A   1      -0.820  13.125  13.679  1.00  0.00     0.002 A 
ATOM     26  C27 FTA A   1      -0.284  13.443  14.932  1.00  0.00     0.029 A 
ENDBRANCH  19  21
ENDBRANCH  16  19
ENDBRANCH  11  13
ENDBRANCH   1  11
TORSDOF 5
ENDMDL
MODEL 8
REMARK VINA RESULT:    -5.880      2.760      9.035
REMARK INTER + INTRA:          -8.626
REMARK INTER:                  -7.719
REMARK INTRA:                  -0.907
REMARK UNBOUND:                -1.027
REMARK  5 active torsions:
REMARK  status: ('A' for Active; 'I' for Inactive)
REMARK    1  A    between atoms: N8_1  and  C24_2 
REMARK    2  A    between atoms: N8_1  and  C7_8 
REMARK    3  A    between atoms: C2_13  and  N1_14 
REMARK    4  A    between atoms: N1_14  and  C17_15 
REMARK    5  A    between atoms: C14_16  and  C13_19 
ROOT
ATOM      1  C17 FTA A   1      -2.063  16.015  16.229  1.00  0.00     0.142 C 
ATOM      2  C14 FTA A   1      -3.405  16.129  16.185  1.00  0.00     0.158 C 
ATOM      3  C18 FTA A   1      -4.057  17.278  16.777  1.00  0.00     0.069 C 
ATOM      4  N21 FTA A   1      -4.449  18.226  17.344  1.00  0.00    -0.197 NA
ENDROOT
BRANCH   2   5
ATOM      5  C13 FTA A   1      -4.204  15.079  15.512  1.00  0.00     0.197 A 
ATOM      6  N15 FTA A   1      -3.711  14.081  14.675  1.00  0.00    -0.093 NA
ATOM      7  N19 FTA A   1      -4.796  13.341  14.224  1.00  0.00    -0.231 N 
ATOM      8  N20 FTA A   1      -5.961  13.864  14.766  1.00  0.00    -0.017 NA
ATOM      9  H15 FTA A   1      -4.744  12.532  13.587  1.00  0.00     0.200 HD
ATOM     10  N16 FTA A   1      -5.595  14.935  15.574  1.00  0.00    -0.090 NA
ENDBRANCH   2   5
BRANCH   1  11
ATOM     11  N1  FTA A   1      -1.522  14.882  16.718  1.00  0.00    -0.389 N 
ATOM     12  H11 FTA A   1      -2.145  14.071  16.840  1.00  0.00     0.159 HD
BRANCH  11  13
ATOM     13  C2  FTA A   1      -0.156  14.720  17.078  1.00  0.00     0.028 A 
ATOM     14  C4  FTA A   1       0.267  13.724  17.954  1.00  0.00     0.031 A 
ATOM     15  C6  FTA A   1       1.579  13.763  18.445  1.00  0.00     0.031 A 
ATOM     16  C7  FTA A   1       2.474  14.766  18.086  1.00  0.00     0.032 A 
ATOM     17  C5  FTA A   1       2.047  15.734  17.194  1.00  0.00     0.031 A 
ATOM     18  C3  FTA A   1       0.746  15.722  16.707  1.00  0.00     0.031 A 
BRANCH  16  19
ATOM     19  N8  FTA A   1       3.728  14.944  18.725  1.00  0.00    -0.356 N 
ATOM     20  H1  FTA A   1       4.002  14.246  19.431  1.00  0.00     0.166 HD
BRANCH  19  21
ATOM     21  C24 FTA A   1       4.642  16.012  18.471  1.00  0.00     0.032 A 
ATOM     22  C26 FTA A   1       5.553  15.950  17.444  1.00  0.00     0.029 A 
ATOM     23  C28 FTA A   1       6.521  16.933  17.357  1.00  0.00     0.002 A 
ATOM     24  C30 FTA A   1       6.585  17.992  18.247  1.00  0.00     0.000 A 
ATOM     25  C29 FTA A   1       5.659  18.086  19.251  1.00  0.00     0.002 A 
ATOM     26  C27 FTA A   1       4.681  17.089  19.344  1.00  0.00     0.029 A 
ENDBRANCH  19  21
ENDBRANCH  16  19
ENDBRANCH  11  13
ENDBRANCH   1  11
TORSDOF 5
ENDMDL
MODEL 9
REMARK VINA RESULT:    -5.788      2.489      4.215
REMARK INTER + INTRA:          -8.507
REMARK INTER:                  -7.480
REMARK INTRA:                  -1.027
REMARK UNBOUND:                -1.027
REMARK  5 active torsions:
REMARK  status: ('A' for Active; 'I' for Inactive)
REMARK    1  A    between atoms: N8_1  and  C24_2 
REMARK    2  A    between atoms: N8_1  and  C7_8 
REMARK    3  A    between atoms: C2_13  and  N1_14 
REMARK    4  A    between atoms: N1_14  and  C17_15 
REMARK    5  A    between atoms: C14_16  and  C13_19 
ROOT
ATOM      1  C17 FTA A   1       8.293  19.133  17.784  1.00  0.00     0.142 C 
ATOM      2  C14 FTA A   1       9.142  18.297  18.414  1.00  0.00     0.158 C 
ATOM      3  C18 FTA A   1       9.801  17.239  17.679  1.00  0.00     0.069 C 
ATOM      4  N21 FTA A   1      10.215  16.399  16.973  1.00  0.00    -0.197 NA
ENDROOT
BRANCH   2   5
ATOM      5  C13 FTA A   1       9.405  18.480  19.860  1.00  0.00     0.197 A 
ATOM      6  N15 FTA A   1       9.689  19.686  20.498  1.00  0.00    -0.093 NA
ATOM      7  N19 FTA A   1       9.915  19.406  21.839  1.00  0.00    -0.231 N 
ATOM      8  N20 FTA A   1       9.779  18.041  22.048  1.00  0.00    -0.017 NA
ATOM      9  H15 FTA A   1      10.147  20.101  22.564  1.00  0.00     0.200 HD
ATOM     10  N16 FTA A   1       9.452  17.467  20.824  1.00  0.00    -0.090 NA
ENDBRANCH   2   5
BRANCH   1  11
ATOM     11  N1  FTA A   1       7.054  19.303  18.285  1.00  0.00    -0.389 N 
ATOM     12  H11 FTA A   1       6.831  20.218  18.702  1.00  0.00     0.159 HD
BRANCH  11  13
ATOM     13  C2  FTA A   1       6.031  18.316  18.281  1.00  0.00     0.028 A 
ATOM     14  C4  FTA A   1       5.327  17.974  19.433  1.00  0.00     0.031 A 
ATOM     15  C6  FTA A   1       4.501  16.842  19.414  1.00  0.00     0.031 A 
ATOM     16  C7  FTA A   1       4.362  16.046  18.280  1.00  0.00     0.032 A 
ATOM     17  C5  FTA A   1       5.049  16.413  17.136  1.00  0.00     0.031 A 
ATOM     18  C3  FTA A   1       5.883  17.524  17.138  1.00  0.00     0.031 A 
BRANCH  16  19
ATOM     19  N8  FTA A   1       3.704  14.789  18.297  1.00  0.00    -0.356 N 
ATOM     20  H1  FTA A   1       4.290  13.951  18.425  1.00  0.00     0.166 HD
BRANCH  19  21
ATOM     21  C24 FTA A   1       2.298  14.591  18.152  1.00  0.00     0.032 A 
ATOM     22  C26 FTA A   1       1.667  13.492  18.685  1.00  0.00     0.029 A 
ATOM     23  C28 FTA A   1       0.341  13.269  18.364  1.00  0.00     0.002 A 
ATOM     24  C30 FTA A   1      -0.381  14.127  17.551  1.00  0.00     0.000 A 
ATOM     25  C29 FTA A   1       0.226  15.245  17.045  1.00  0.00     0.002 A 
ATOM     26  C27 FTA A   1       1.569  15.472  17.365  1.00  0.00     0.029 A 
ENDBRANCH  19  21
ENDBRANCH  16  19
ENDBRANCH  11  13
ENDBRANCH   1  11
TORSDOF 5
ENDMDL
