MODEL 1
REMARK VINA RESULT:    -7.912      0.000      0.000
REMARK INTER + INTRA:         -12.663
REMARK INTER:                 -11.343
REMARK INTRA:                  -1.320
REMARK UNBOUND:                -1.514
REMARK  8 active torsions:
REMARK  status: ('A' for Active; 'I' for Inactive)
REMARK    1  A    between atoms: C_2  and  N_3 
REMARK       I    between atoms: N_3  and  C_4 
REMARK    2  A    between atoms: C_4  and  C_6 
REMARK    3  A    between atoms: C_9  and  C_24 
REMARK    4  A    between atoms: C_10  and  C_11 
REMARK    5  A    between atoms: C_14  and  C_15 
REMARK    6  A    between atoms: C_15  and  N_16 
REMARK    7  A    between atoms: C_28  and  O_29 
REMARK    8  A    between atoms: C_31  and  O_32 
ROOT
HETATM    1  C   UNL     1       6.220  15.166  23.151  0.00  0.00     0.165 A 
HETATM    2  N   UNL     1       5.591  16.176  23.769  0.00  0.00    -0.121 NA
HETATM    3  O   UNL     1       4.255  15.901  23.682  0.00  0.00    -0.211 OA
HETATM    4  C   UNL     1       4.039  14.707  23.053  0.00  0.00     0.128 A 
HETATM    5  C   UNL     1       5.274  14.208  22.626  0.00  0.00     0.048 A 
ENDROOT
BRANCH   5   6
HETATM    6  C   UNL     1       5.506  12.863  22.089  0.00  0.00    -0.021 C 
HETATM    7  C   UNL     1       6.420  12.621  21.051  0.00  0.00     0.013 C 
HETATM    8  C   UNL     1       6.304  11.467  20.263  0.00  0.00     0.010 C 
HETATM    9  C   UNL     1       5.353  10.489  20.571  0.00  0.00    -0.030 C 
HETATM   10  C   UNL     1       4.619  10.621  21.750  0.00  0.00     0.010 C 
HETATM   11  C   UNL     1       4.679  11.803  22.484  0.00  0.00     0.013 C 
BRANCH   9  12
HETATM   12  C   UNL     1       4.982   9.384  19.608  0.00  0.00     0.311 C 
BRANCH  12  13
HETATM   13  N   UNL     1       5.410   9.588  18.220  0.00  0.00     0.096 N 
HETATM   14  C   UNL     1       5.882   8.339  17.580  0.00  0.00     0.299 C 
HETATM   15  C   UNL     1       4.766   7.327  17.269  0.00  0.00     0.198 C 
HETATM   16  O   UNL     1       3.738   7.915  16.463  0.00  0.00    -0.388 OA
HETATM   17  C   UNL     1       3.190   9.074  17.097  0.00  0.00     0.198 C 
HETATM   18  C   UNL     1       4.281  10.115  17.415  0.00  0.00     0.299 C 
ENDBRANCH  12  13
ENDBRANCH   9  12
ENDBRANCH   5   6
BRANCH   1  19
HETATM   19  C   UNL     1       7.686  15.114  23.196  0.00  0.00     0.273 C 
HETATM   20  N   UNL     1       8.294  15.731  22.114  0.00  0.00    -0.356 N 
HETATM   21  H   UNL     1       7.682  16.102  21.395  0.00  0.00     0.162 HD
HETATM   22  O   UNL     1       8.323  14.637  24.134  0.00  0.00    -0.266 OA
BRANCH  20  23
HETATM   23  C   UNL     1       9.713  15.987  22.051  0.00  0.00     0.118 C 
HETATM   24  C   UNL     1      10.027  17.287  21.327  0.00  0.00     0.026 C 
ENDBRANCH  20  23
ENDBRANCH   1  19
BRANCH   4  25
HETATM   25  C   UNL     1       2.629  14.275  23.134  0.00  0.00     0.036 A 
HETATM   26  C   UNL     1       1.936  13.848  21.988  0.00  0.00     0.044 A 
HETATM   27  C   UNL     1       0.616  13.395  22.058  0.00  0.00     0.068 A 
HETATM   28 CL   UNL     1      -0.221  12.987  20.607  0.00  0.00    -0.081 Cl
HETATM   29  C   UNL     1      -0.013  13.272  23.293  0.00  0.00     0.090 A 
HETATM   30  C   UNL     1       0.647  13.653  24.452  0.00  0.00     0.075 A 
HETATM   31  C   UNL     1       1.943  14.176  24.366  0.00  0.00     0.081 A 
BRANCH  29  32
HETATM   32  O   UNL     1      -1.276  12.767  23.421  0.00  0.00    -0.359 OA
HETATM   33  H   UNL     1      -1.881  13.525  23.537  0.00  0.00     0.217 HD
ENDBRANCH  29  32
BRANCH  31  34
HETATM   34  O   UNL     1       2.546  14.597  25.522  0.00  0.00    -0.360 OA
HETATM   35  H   UNL     1       3.382  14.120  25.651  0.00  0.00     0.217 HD
ENDBRANCH  31  34
ENDBRANCH   4  25
TORSDOF 8
ENDMDL
MODEL 2
REMARK VINA RESULT:    -7.909      2.841      6.286
REMARK INTER + INTRA:         -12.659
REMARK INTER:                 -10.829
REMARK INTRA:                  -1.830
REMARK UNBOUND:                -1.514
REMARK  8 active torsions:
REMARK  status: ('A' for Active; 'I' for Inactive)
REMARK    1  A    between atoms: C_2  and  N_3 
REMARK       I    between atoms: N_3  and  C_4 
REMARK    2  A    between atoms: C_4  and  C_6 
REMARK    3  A    between atoms: C_9  and  C_24 
REMARK    4  A    between atoms: C_10  and  C_11 
REMARK    5  A    between atoms: C_14  and  C_15 
REMARK    6  A    between atoms: C_15  and  N_16 
REMARK    7  A    between atoms: C_28  and  O_29 
REMARK    8  A    between atoms: C_31  and  O_32 
ROOT
HETATM    1  C   UNL     1       9.702  13.683  22.138  0.00  0.00     0.165 A 
HETATM    2  N   UNL     1      10.316  12.936  21.208  0.00  0.00    -0.121 NA
HETATM    3  O   UNL     1       9.445  11.932  20.894  0.00  0.00    -0.211 OA
HETATM    4  C   UNL     1       8.273  12.062  21.584  0.00  0.00     0.128 A 
HETATM    5  C   UNL     1       8.399  13.147  22.459  0.00  0.00     0.048 A 
ENDROOT
BRANCH   5   6
HETATM    6  C   UNL     1       7.306  13.746  23.232  0.00  0.00    -0.021 C 
HETATM    7  C   UNL     1       6.722  13.093  24.329  0.00  0.00     0.013 C 
HETATM    8  C   UNL     1       5.433  13.444  24.755  0.00  0.00     0.010 C 
HETATM    9  C   UNL     1       4.760  14.522  24.170  0.00  0.00    -0.030 C 
HETATM   10  C   UNL     1       5.447  15.318  23.254  0.00  0.00     0.010 C 
HETATM   11  C   UNL     1       6.693  14.920  22.776  0.00  0.00     0.013 C 
BRANCH   9  12
HETATM   12  C   UNL     1       3.281  14.763  24.372  0.00  0.00     0.311 C 
BRANCH  12  13
HETATM   13  N   UNL     1       2.466  14.737  23.154  0.00  0.00     0.096 N 
HETATM   14  C   UNL     1       2.451  13.407  22.506  0.00  0.00     0.299 C 
HETATM   15  C   UNL     1       1.651  12.340  23.271  0.00  0.00     0.198 C 
HETATM   16  O   UNL     1       0.304  12.768  23.507  0.00  0.00    -0.388 OA
HETATM   17  C   UNL     1       0.278  14.008  24.219  0.00  0.00     0.198 C 
HETATM   18  C   UNL     1       1.065  15.105  23.475  0.00  0.00     0.299 C 
ENDBRANCH  12  13
ENDBRANCH   9  12
ENDBRANCH   5   6
BRANCH   1  19
HETATM   19  C   UNL     1      10.345  14.927  22.582  0.00  0.00     0.273 C 
HETATM   20  N   UNL     1      10.449  15.033  23.960  0.00  0.00    -0.356 N 
HETATM   21  H   UNL     1      10.038  14.285  24.509  0.00  0.00     0.162 HD
HETATM   22  O   UNL     1      10.813  15.764  21.813  0.00  0.00    -0.266 OA
BRANCH  20  23
HETATM   23  C   UNL     1      11.227  16.058  24.613  0.00  0.00     0.118 C 
HETATM   24  C   UNL     1      12.552  15.526  25.133  0.00  0.00     0.026 C 
ENDBRANCH  20  23
ENDBRANCH   1  19
BRANCH   4  25
HETATM   25  C   UNL     1       7.233  11.127  21.111  0.00  0.00     0.036 A 
HETATM   26  C   UNL     1       6.466  10.378  22.021  0.00  0.00     0.044 A 
HETATM   27  C   UNL     1       5.449   9.522  21.588  0.00  0.00     0.068 A 
HETATM   28 CL   UNL     1       4.613   8.547  22.738  0.00  0.00    -0.081 Cl
HETATM   29  C   UNL     1       5.114   9.465  20.240  0.00  0.00     0.090 A 
HETATM   30  C   UNL     1       5.827  10.211  19.312  0.00  0.00     0.075 A 
HETATM   31  C   UNL     1       6.893  11.009  19.744  0.00  0.00     0.081 A 
BRANCH  29  32
HETATM   32  O   UNL     1       4.083   8.698  19.776  0.00  0.00    -0.359 OA
HETATM   33  H   UNL     1       4.035   8.829  18.809  0.00  0.00     0.217 HD
ENDBRANCH  29  32
BRANCH  31  34
HETATM   34  O   UNL     1       7.614  11.690  18.798  0.00  0.00    -0.360 OA
HETATM   35  H   UNL     1       8.522  11.827  19.113  0.00  0.00     0.217 HD
ENDBRANCH  31  34
ENDBRANCH   4  25
TORSDOF 8
ENDMDL
MODEL 3
REMARK VINA RESULT:    -7.890      2.716      6.137
REMARK INTER + INTRA:         -12.633
REMARK INTER:                 -11.006
REMARK INTRA:                  -1.627
REMARK UNBOUND:                -1.514
REMARK  8 active torsions:
REMARK  status: ('A' for Active; 'I' for Inactive)
REMARK    1  A    between atoms: C_2  and  N_3 
REMARK       I    between atoms: N_3  and  C_4 
REMARK    2  A    between atoms: C_4  and  C_6 
REMARK    3  A    between atoms: C_9  and  C_24 
REMARK    4  A    between atoms: C_10  and  C_11 
REMARK    5  A    between atoms: C_14  and  C_15 
REMARK    6  A    between atoms: C_15  and  N_16 
REMARK    7  A    between atoms: C_28  and  O_29 
REMARK    8  A    between atoms: C_31  and  O_32 
ROOT
HETATM    1  C   UNL     1       9.565  13.735  22.057  0.00  0.00     0.165 A 
HETATM    2  N   UNL     1      10.150  13.006  21.096  0.00  0.00    -0.121 NA
HETATM    3  O   UNL     1       9.252  12.035  20.756  0.00  0.00    -0.211 OA
HETATM    4  C   UNL     1       8.090  12.170  21.463  0.00  0.00     0.128 A 
HETATM    5  C   UNL     1       8.252  13.220  22.373  0.00  0.00     0.048 A 
ENDROOT
BRANCH   5   6
HETATM    6  C   UNL     1       7.182  13.820  23.178  0.00  0.00    -0.021 C 
HETATM    7  C   UNL     1       6.560  13.126  24.228  0.00  0.00     0.013 C 
HETATM    8  C   UNL     1       5.286  13.509  24.670  0.00  0.00     0.010 C 
HETATM    9  C   UNL     1       4.668  14.652  24.152  0.00  0.00    -0.030 C 
HETATM   10  C   UNL     1       5.399  15.473  23.293  0.00  0.00     0.010 C 
HETATM   11  C   UNL     1       6.628  15.048  22.796  0.00  0.00     0.013 C 
BRANCH   9  12
HETATM   12  C   UNL     1       3.201  14.949  24.363  0.00  0.00     0.311 C 
BRANCH  12  13
HETATM   13  N   UNL     1       2.360  14.852  23.166  0.00  0.00     0.096 N 
HETATM   14  C   UNL     1       2.474  13.539  22.493  0.00  0.00     0.299 C 
HETATM   15  C   UNL     1       1.818  12.378  23.259  0.00  0.00     0.198 C 
HETATM   16  O   UNL     1       0.440  12.650  23.538  0.00  0.00    -0.388 OA
HETATM   17  C   UNL     1       0.297  13.869  24.273  0.00  0.00     0.198 C 
HETATM   18  C   UNL     1       0.936  15.057  23.529  0.00  0.00     0.299 C 
ENDBRANCH  12  13
ENDBRANCH   9  12
ENDBRANCH   5   6
BRANCH   1  19
HETATM   19  C   UNL     1      10.243  14.946  22.536  0.00  0.00     0.273 C 
HETATM   20  N   UNL     1      10.317  15.027  23.918  0.00  0.00    -0.356 N 
HETATM   21  H   UNL     1       9.864  14.288  24.445  0.00  0.00     0.162 HD
HETATM   22  O   UNL     1      10.762  15.777  21.792  0.00  0.00    -0.266 OA
BRANCH  20  23
HETATM   23  C   UNL     1      11.117  16.013  24.606  0.00  0.00     0.118 C 
HETATM   24  C   UNL     1      12.438  15.438  25.090  0.00  0.00     0.026 C 
ENDBRANCH  20  23
ENDBRANCH   1  19
BRANCH   4  25
HETATM   25  C   UNL     1       7.022  11.278  20.970  0.00  0.00     0.036 A 
HETATM   26  C   UNL     1       6.289  11.597  19.814  0.00  0.00     0.044 A 
HETATM   27  C   UNL     1       5.306  10.740  19.312  0.00  0.00     0.068 A 
HETATM   28 CL   UNL     1       4.363  11.231  17.954  0.00  0.00    -0.081 Cl
HETATM   29  C   UNL     1       5.096   9.499  19.904  0.00  0.00     0.090 A 
HETATM   30  C   UNL     1       5.820   9.133  21.030  0.00  0.00     0.075 A 
HETATM   31  C   UNL     1       6.751  10.028  21.571  0.00  0.00     0.081 A 
BRANCH  29  32
HETATM   32  O   UNL     1       4.196   8.597  19.409  0.00  0.00    -0.359 OA
HETATM   33  H   UNL     1       4.698   7.945  18.883  0.00  0.00     0.217 HD
ENDBRANCH  29  32
BRANCH  31  34
HETATM   34  O   UNL     1       7.408   9.660  22.716  0.00  0.00    -0.360 OA
HETATM   35  H   UNL     1       7.970  10.391  23.021  0.00  0.00     0.217 HD
ENDBRANCH  31  34
ENDBRANCH   4  25
TORSDOF 8
ENDMDL
MODEL 4
REMARK VINA RESULT:    -7.786      3.718      6.733
REMARK INTER + INTRA:         -12.486
REMARK INTER:                 -10.888
REMARK INTRA:                  -1.598
REMARK UNBOUND:                -1.514
REMARK  8 active torsions:
REMARK  status: ('A' for Active; 'I' for Inactive)
REMARK    1  A    between atoms: C_2  and  N_3 
REMARK       I    between atoms: N_3  and  C_4 
REMARK    2  A    between atoms: C_4  and  C_6 
REMARK    3  A    between atoms: C_9  and  C_24 
REMARK    4  A    between atoms: C_10  and  C_11 
REMARK    5  A    between atoms: C_14  and  C_15 
REMARK    6  A    between atoms: C_15  and  N_16 
REMARK    7  A    between atoms: C_28  and  O_29 
REMARK    8  A    between atoms: C_31  and  O_32 
ROOT
HETATM    1  C   UNL     1      10.663  14.109  22.374  0.00  0.00     0.165 A 
HETATM    2  N   UNL     1      11.338  13.031  21.949  0.00  0.00    -0.121 NA
HETATM    3  O   UNL     1      10.612  11.946  22.351  0.00  0.00    -0.211 OA
HETATM    4  C   UNL     1       9.464  12.330  22.987  0.00  0.00     0.128 A 
HETATM    5  C   UNL     1       9.469  13.725  23.091  0.00  0.00     0.048 A 
ENDROOT
BRANCH   5   6
HETATM    6  C   UNL     1       8.334  14.548  23.527  0.00  0.00    -0.021 C 
HETATM    7  C   UNL     1       7.994  14.694  24.880  0.00  0.00     0.013 C 
HETATM    8  C   UNL     1       6.697  15.081  25.245  0.00  0.00     0.010 C 
HETATM    9  C   UNL     1       5.762  15.439  24.268  0.00  0.00    -0.030 C 
HETATM   10  C   UNL     1       6.186  15.530  22.942  0.00  0.00     0.010 C 
HETATM   11  C   UNL     1       7.447  15.069  22.576  0.00  0.00     0.013 C 
BRANCH   9  12
HETATM   12  C   UNL     1       4.286  15.577  24.567  0.00  0.00     0.311 C 
BRANCH  12  13
HETATM   13  N   UNL     1       3.612  14.348  24.999  0.00  0.00     0.096 N 
HETATM   14  C   UNL     1       2.154  14.528  25.170  0.00  0.00     0.299 C 
HETATM   15  C   UNL     1       1.378  14.695  23.852  0.00  0.00     0.198 C 
HETATM   16  O   UNL     1       1.621  13.600  22.962  0.00  0.00    -0.388 OA
HETATM   17  C   UNL     1       3.019  13.455  22.697  0.00  0.00     0.198 C 
HETATM   18  C   UNL     1       3.826  13.276  23.997  0.00  0.00     0.299 C 
ENDBRANCH  12  13
ENDBRANCH   9  12
ENDBRANCH   5   6
BRANCH   1  19
HETATM   19  C   UNL     1      11.135  15.441  21.974  0.00  0.00     0.273 C 
HETATM   20  N   UNL     1      10.146  16.230  21.407  0.00  0.00    -0.356 N 
HETATM   21  H   UNL     1       9.234  15.802  21.283  0.00  0.00     0.162 HD
HETATM   22  O   UNL     1      12.275  15.852  22.184  0.00  0.00    -0.266 OA
BRANCH  20  23
HETATM   23  C   UNL     1      10.322  17.636  21.135  0.00  0.00     0.118 C 
HETATM   24  C   UNL     1       9.040  18.287  20.642  0.00  0.00     0.026 C 
ENDBRANCH  20  23
ENDBRANCH   1  19
BRANCH   4  25
HETATM   25  C   UNL     1       8.553  11.196  23.240  0.00  0.00     0.036 A 
HETATM   26  C   UNL     1       7.233  11.208  22.758  0.00  0.00     0.044 A 
HETATM   27  C   UNL     1       6.374  10.122  22.954  0.00  0.00     0.068 A 
HETATM   28 CL   UNL     1       4.733  10.233  22.437  0.00  0.00    -0.081 Cl
HETATM   29  C   UNL     1       6.846   8.961  23.557  0.00  0.00     0.090 A 
HETATM   30  C   UNL     1       8.153   8.898  24.020  0.00  0.00     0.075 A 
HETATM   31  C   UNL     1       8.985  10.016  23.887  0.00  0.00     0.081 A 
BRANCH  29  32
HETATM   32  O   UNL     1       6.067   7.848  23.707  0.00  0.00    -0.359 OA
HETATM   33  H   UNL     1       5.368   8.068  24.352  0.00  0.00     0.217 HD
ENDBRANCH  29  32
BRANCH  31  34
HETATM   34  O   UNL     1      10.251   9.942  24.406  0.00  0.00    -0.360 OA
HETATM   35  H   UNL     1      10.249   9.382  25.199  0.00  0.00     0.217 HD
ENDBRANCH  31  34
ENDBRANCH   4  25
TORSDOF 8
ENDMDL
MODEL 5
REMARK VINA RESULT:    -7.754      3.448      5.277
REMARK INTER + INTRA:         -12.441
REMARK INTER:                 -10.528
REMARK INTRA:                  -1.913
REMARK UNBOUND:                -1.514
REMARK  8 active torsions:
REMARK  status: ('A' for Active; 'I' for Inactive)
REMARK    1  A    between atoms: C_2  and  N_3 
REMARK       I    between atoms: N_3  and  C_4 
REMARK    2  A    between atoms: C_4  and  C_6 
REMARK    3  A    between atoms: C_9  and  C_24 
REMARK    4  A    between atoms: C_10  and  C_11 
REMARK    5  A    between atoms: C_14  and  C_15 
REMARK    6  A    between atoms: C_15  and  N_16 
REMARK    7  A    between atoms: C_28  and  O_29 
REMARK    8  A    between atoms: C_31  and  O_32 
ROOT
HETATM    1  C   UNL     1       7.713  13.718  23.580  0.00  0.00     0.165 A 
HETATM    2  N   UNL     1       8.375  13.469  24.719  0.00  0.00    -0.121 NA
HETATM    3  O   UNL     1       8.348  12.113  24.885  0.00  0.00    -0.211 OA
HETATM    4  C   UNL     1       7.712  11.502  23.840  0.00  0.00     0.128 A 
HETATM    5  C   UNL     1       7.219  12.496  22.987  0.00  0.00     0.048 A 
ENDROOT
BRANCH   5   6
HETATM    6  C   UNL     1       6.652  12.267  21.654  0.00  0.00    -0.021 C 
HETATM    7  C   UNL     1       5.269  12.301  21.415  0.00  0.00     0.013 C 
HETATM    8  C   UNL     1       4.730  11.653  20.295  0.00  0.00     0.010 C 
HETATM    9  C   UNL     1       5.569  11.066  19.341  0.00  0.00    -0.030 C 
HETATM   10  C   UNL     1       6.946  11.255  19.460  0.00  0.00     0.010 C 
HETATM   11  C   UNL     1       7.478  11.827  20.612  0.00  0.00     0.013 C 
BRANCH   9  12
HETATM   12  C   UNL     1       5.057  10.113  18.285  0.00  0.00     0.311 C 
BRANCH  12  13
HETATM   13  N   UNL     1       5.618   8.760  18.331  0.00  0.00     0.096 N 
HETATM   14  C   UNL     1       4.787   7.825  19.121  0.00  0.00     0.299 C 
HETATM   15  C   UNL     1       3.459   7.437  18.449  0.00  0.00     0.198 C 
HETATM   16  O   UNL     1       3.675   6.892  17.142  0.00  0.00    -0.388 OA
HETATM   17  C   UNL     1       4.396   7.811  16.317  0.00  0.00     0.198 C 
HETATM   18  C   UNL     1       5.739   8.214  16.957  0.00  0.00     0.299 C 
ENDBRANCH  12  13
ENDBRANCH   9  12
ENDBRANCH   5   6
BRANCH   1  19
HETATM   19  C   UNL     1       7.687  15.093  23.065  0.00  0.00     0.273 C 
HETATM   20  N   UNL     1       8.749  15.388  22.225  0.00  0.00    -0.356 N 
HETATM   21  H   UNL     1       9.445  14.661  22.093  0.00  0.00     0.162 HD
HETATM   22  O   UNL     1       6.778  15.889  23.292  0.00  0.00    -0.266 OA
BRANCH  20  23
HETATM   23  C   UNL     1       8.818  16.597  21.439  0.00  0.00     0.118 C 
HETATM   24  C   UNL     1      10.219  17.189  21.424  0.00  0.00     0.026 C 
ENDBRANCH  20  23
ENDBRANCH   1  19
BRANCH   4  25
HETATM   25  C   UNL     1       7.854  10.033  23.874  0.00  0.00     0.036 A 
HETATM   26  C   UNL     1       6.746   9.194  23.660  0.00  0.00     0.044 A 
HETATM   27  C   UNL     1       6.876   7.803  23.647  0.00  0.00     0.068 A 
HETATM   28 CL   UNL     1       5.467   6.821  23.488  0.00  0.00    -0.081 Cl
HETATM   29  C   UNL     1       8.133   7.219  23.756  0.00  0.00     0.090 A 
HETATM   30  C   UNL     1       9.256   8.013  23.938  0.00  0.00     0.075 A 
HETATM   31  C   UNL     1       9.110   9.403  24.025  0.00  0.00     0.081 A 
BRANCH  29  32
HETATM   32  O   UNL     1       8.320   5.868  23.678  0.00  0.00    -0.359 OA
HETATM   33  H   UNL     1       9.137   5.658  24.169  0.00  0.00     0.217 HD
ENDBRANCH  29  32
BRANCH  31  34
HETATM   34  O   UNL     1      10.230  10.155  24.263  0.00  0.00    -0.360 OA
HETATM   35  H   UNL     1      10.437  10.694  23.482  0.00  0.00     0.217 HD
ENDBRANCH  31  34
ENDBRANCH   4  25
TORSDOF 8
ENDMDL
MODEL 6
REMARK VINA RESULT:    -7.707      2.530      5.745
REMARK INTER + INTRA:         -12.374
REMARK INTER:                 -11.156
REMARK INTRA:                  -1.218
REMARK UNBOUND:                -1.514
REMARK  8 active torsions:
REMARK  status: ('A' for Active; 'I' for Inactive)
REMARK    1  A    between atoms: C_2  and  N_3 
REMARK       I    between atoms: N_3  and  C_4 
REMARK    2  A    between atoms: C_4  and  C_6 
REMARK    3  A    between atoms: C_9  and  C_24 
REMARK    4  A    between atoms: C_10  and  C_11 
REMARK    5  A    between atoms: C_14  and  C_15 
REMARK    6  A    between atoms: C_15  and  N_16 
REMARK    7  A    between atoms: C_28  and  O_29 
REMARK    8  A    between atoms: C_31  and  O_32 
ROOT
HETATM    1  C   UNL     1       3.347  13.710  22.791  0.00  0.00     0.165 A 
HETATM    2  N   UNL     1       3.326  14.927  23.353  0.00  0.00    -0.121 NA
HETATM    3  O   UNL     1       4.616  15.204  23.708  0.00  0.00    -0.211 OA
HETATM    4  C   UNL     1       5.456  14.192  23.336  0.00  0.00     0.128 A 
HETATM    5  C   UNL     1       4.684  13.161  22.791  0.00  0.00     0.048 A 
ENDROOT
BRANCH   5   6
HETATM    6  C   UNL     1       5.210  11.984  22.091  0.00  0.00    -0.021 C 
HETATM    7  C   UNL     1       6.085  12.094  20.998  0.00  0.00     0.013 C 
HETATM    8  C   UNL     1       6.211  11.038  20.085  0.00  0.00     0.010 C 
HETATM    9  C   UNL     1       5.558   9.822  20.311  0.00  0.00    -0.030 C 
HETATM   10  C   UNL     1       4.894   9.638  21.524  0.00  0.00     0.010 C 
HETATM   11  C   UNL     1       4.705  10.712  22.389  0.00  0.00     0.013 C 
BRANCH   9  12
HETATM   12  C   UNL     1       5.414   8.765  19.239  0.00  0.00     0.311 C 
BRANCH  12  13
HETATM   13  N   UNL     1       5.587   9.237  17.862  0.00  0.00     0.096 N 
HETATM   14  C   UNL     1       5.839   8.133  16.909  0.00  0.00     0.299 C 
HETATM   15  C   UNL     1       4.616   7.244  16.634  0.00  0.00     0.198 C 
HETATM   16  O   UNL     1       3.499   8.018  16.179  0.00  0.00    -0.388 OA
HETATM   17  C   UNL     1       3.165   9.039  17.124  0.00  0.00     0.198 C 
HETATM   18  C   UNL     1       4.368   9.955  17.416  0.00  0.00     0.299 C 
ENDBRANCH  12  13
ENDBRANCH   9  12
ENDBRANCH   5   6
BRANCH   1  19
HETATM   19  C   UNL     1       2.115  13.191  22.185  0.00  0.00     0.273 C 
HETATM   20  N   UNL     1       1.009  13.285  23.015  0.00  0.00    -0.356 N 
HETATM   21  H   UNL     1       1.167  13.646  23.950  0.00  0.00     0.162 HD
HETATM   22  O   UNL     1       2.045  12.778  21.028  0.00  0.00    -0.266 OA
BRANCH  20  23
HETATM   23  C   UNL     1      -0.339  13.035  22.561  0.00  0.00     0.118 C 
HETATM   24  C   UNL     1      -1.249  12.587  23.693  0.00  0.00     0.026 C 
ENDBRANCH  20  23
ENDBRANCH   1  19
BRANCH   4  25
HETATM   25  C   UNL     1       6.879  14.549  23.505  0.00  0.00     0.036 A 
HETATM   26  C   UNL     1       7.534  15.372  22.572  0.00  0.00     0.044 A 
HETATM   27  C   UNL     1       8.868  15.753  22.744  0.00  0.00     0.068 A 
HETATM   28 CL   UNL     1       9.652  16.674  21.516  0.00  0.00    -0.081 Cl
HETATM   29  C   UNL     1       9.551  15.394  23.900  0.00  0.00     0.090 A 
HETATM   30  C   UNL     1       8.931  14.606  24.860  0.00  0.00     0.075 A 
HETATM   31  C   UNL     1       7.619  14.167  24.647  0.00  0.00     0.081 A 
BRANCH  29  32
HETATM   32  O   UNL     1      10.832  15.800  24.147  0.00  0.00    -0.359 OA
HETATM   33  H   UNL     1      11.228  16.050  23.290  0.00  0.00     0.217 HD
ENDBRANCH  29  32
BRANCH  31  34
HETATM   34  O   UNL     1       7.055  13.343  25.586  0.00  0.00    -0.360 OA
HETATM   35  H   UNL     1       6.238  13.744  25.926  0.00  0.00     0.217 HD
ENDBRANCH  31  34
ENDBRANCH   4  25
TORSDOF 8
ENDMDL
MODEL 7
REMARK VINA RESULT:    -7.702      3.888      7.850
REMARK INTER + INTRA:         -12.368
REMARK INTER:                 -10.629
REMARK INTRA:                  -1.739
REMARK UNBOUND:                -1.514
REMARK  8 active torsions:
REMARK  status: ('A' for Active; 'I' for Inactive)
REMARK    1  A    between atoms: C_2  and  N_3 
REMARK       I    between atoms: N_3  and  C_4 
REMARK    2  A    between atoms: C_4  and  C_6 
REMARK    3  A    between atoms: C_9  and  C_24 
REMARK    4  A    between atoms: C_10  and  C_11 
REMARK    5  A    between atoms: C_14  and  C_15 
REMARK    6  A    between atoms: C_15  and  N_16 
REMARK    7  A    between atoms: C_28  and  O_29 
REMARK    8  A    between atoms: C_31  and  O_32 
ROOT
HETATM    1  C   UNL     1       5.434   9.848  19.404  0.00  0.00     0.165 A 
HETATM    2  N   UNL     1       6.280  10.327  18.481  0.00  0.00    -0.121 NA
HETATM    3  O   UNL     1       6.867  11.427  19.040  0.00  0.00    -0.211 OA
HETATM    4  C   UNL     1       6.431  11.620  20.321  0.00  0.00     0.128 A 
HETATM    5  C   UNL     1       5.449  10.663  20.597  0.00  0.00     0.048 A 
ENDROOT
BRANCH   5   6
HETATM    6  C   UNL     1       4.871  10.397  21.919  0.00  0.00    -0.021 C 
HETATM    7  C   UNL     1       5.110   9.199  22.611  0.00  0.00     0.013 C 
HETATM    8  C   UNL     1       4.226   8.774  23.613  0.00  0.00     0.010 C 
HETATM    9  C   UNL     1       3.163   9.589  24.015  0.00  0.00    -0.030 C 
HETATM   10  C   UNL     1       3.082  10.882  23.497  0.00  0.00     0.010 C 
HETATM   11  C   UNL     1       3.910  11.269  22.447  0.00  0.00     0.013 C 
BRANCH   9  12
HETATM   12  C   UNL     1       2.021   9.076  24.863  0.00  0.00     0.311 C 
BRANCH  12  13
HETATM   13  N   UNL     1       1.956   7.620  25.018  0.00  0.00     0.096 N 
HETATM   14  C   UNL     1       2.326   7.174  26.379  0.00  0.00     0.299 C 
HETATM   15  C   UNL     1       1.283   7.508  27.459  0.00  0.00     0.198 C 
HETATM   16  O   UNL     1      -0.006   6.982  27.121  0.00  0.00    -0.388 OA
HETATM   17  C   UNL     1      -0.440   7.469  25.848  0.00  0.00     0.198 C 
HETATM   18  C   UNL     1       0.579   7.143  24.739  0.00  0.00     0.299 C 
ENDBRANCH  12  13
ENDBRANCH   9  12
ENDBRANCH   5   6
BRANCH   1  19
HETATM   19  C   UNL     1       4.746   8.577  19.140  0.00  0.00     0.273 C 
HETATM   20  N   UNL     1       5.479   7.463  19.515  0.00  0.00    -0.356 N 
HETATM   21  H   UNL     1       6.412   7.630  19.879  0.00  0.00     0.162 HD
HETATM   22  O   UNL     1       3.601   8.502  18.696  0.00  0.00    -0.266 OA
BRANCH  20  23
HETATM   23  C   UNL     1       4.925   6.131  19.547  0.00  0.00     0.118 C 
HETATM   24  C   UNL     1       4.330   5.792  20.904  0.00  0.00     0.026 C 
ENDBRANCH  20  23
ENDBRANCH   1  19
BRANCH   4  25
HETATM   25  C   UNL     1       7.201  12.663  21.027  0.00  0.00     0.036 A 
HETATM   26  C   UNL     1       6.552  13.653  21.786  0.00  0.00     0.044 A 
HETATM   27  C   UNL     1       7.272  14.619  22.495  0.00  0.00     0.068 A 
HETATM   28 CL   UNL     1       6.423  15.873  23.320  0.00  0.00    -0.081 Cl
HETATM   29  C   UNL     1       8.660  14.562  22.535  0.00  0.00     0.090 A 
HETATM   30  C   UNL     1       9.339  13.583  21.825  0.00  0.00     0.075 A 
HETATM   31  C   UNL     1       8.614  12.663  21.057  0.00  0.00     0.081 A 
BRANCH  29  32
HETATM   32  O   UNL     1       9.405  15.441  23.271  0.00  0.00    -0.359 OA
HETATM   33  H   UNL     1       8.903  15.637  24.085  0.00  0.00     0.217 HD
ENDBRANCH  29  32
BRANCH  31  34
HETATM   34  O   UNL     1       9.315  11.744  20.320  0.00  0.00    -0.360 OA
HETATM   35  H   UNL     1      10.260  11.969  20.327  0.00  0.00     0.217 HD
ENDBRANCH  31  34
ENDBRANCH   4  25
TORSDOF 8
ENDMDL
MODEL 8
REMARK VINA RESULT:    -7.625      3.164      7.329
REMARK INTER + INTRA:         -12.260
REMARK INTER:                 -10.570
REMARK INTRA:                  -1.689
REMARK UNBOUND:                -1.514
REMARK  8 active torsions:
REMARK  status: ('A' for Active; 'I' for Inactive)
REMARK    1  A    between atoms: C_2  and  N_3 
REMARK       I    between atoms: N_3  and  C_4 
REMARK    2  A    between atoms: C_4  and  C_6 
REMARK    3  A    between atoms: C_9  and  C_24 
REMARK    4  A    between atoms: C_10  and  C_11 
REMARK    5  A    between atoms: C_14  and  C_15 
REMARK    6  A    between atoms: C_15  and  N_16 
REMARK    7  A    between atoms: C_28  and  O_29 
REMARK    8  A    between atoms: C_31  and  O_32 
ROOT
HETATM    1  C   UNL     1       5.102  11.069  19.967  0.00  0.00     0.165 A 
HETATM    2  N   UNL     1       3.903  11.597  19.683  0.00  0.00    -0.121 NA
HETATM    3  O   UNL     1       3.549  12.344  20.770  0.00  0.00    -0.211 OA
HETATM    4  C   UNL     1       4.533  12.326  21.720  0.00  0.00     0.128 A 
HETATM    5  C   UNL     1       5.544  11.463  21.285  0.00  0.00     0.048 A 
ENDROOT
BRANCH   5   6
HETATM    6  C   UNL     1       6.862  11.316  21.912  0.00  0.00    -0.021 C 
HETATM    7  C   UNL     1       7.038  10.641  23.131  0.00  0.00     0.013 C 
HETATM    8  C   UNL     1       8.169  10.893  23.920  0.00  0.00     0.010 C 
HETATM    9  C   UNL     1       9.190  11.728  23.453  0.00  0.00    -0.030 C 
HETATM   10  C   UNL     1       9.121  12.194  22.140  0.00  0.00     0.010 C 
HETATM   11  C   UNL     1       7.962  12.008  21.391  0.00  0.00     0.013 C 
BRANCH   9  12
HETATM   12  C   UNL     1      10.276  12.268  24.357  0.00  0.00     0.311 C 
BRANCH  12  13
HETATM   13  N   UNL     1      10.786  13.597  24.005  0.00  0.00     0.096 N 
HETATM   14  C   UNL     1      10.014  14.689  24.637  0.00  0.00     0.299 C 
HETATM   15  C   UNL     1      10.229  14.819  26.155  0.00  0.00     0.198 C 
HETATM   16  O   UNL     1      11.617  14.971  26.474  0.00  0.00    -0.388 OA
HETATM   17  C   UNL     1      12.384  13.880  25.958  0.00  0.00     0.198 C 
HETATM   18  C   UNL     1      12.199  13.727  24.436  0.00  0.00     0.299 C 
ENDBRANCH  12  13
ENDBRANCH   9  12
ENDBRANCH   5   6
BRANCH   1  19
HETATM   19  C   UNL     1       5.807  10.314  18.923  0.00  0.00     0.273 C 
HETATM   20  N   UNL     1       5.128   9.180  18.508  0.00  0.00    -0.356 N 
HETATM   21  H   UNL     1       4.261   8.963  18.988  0.00  0.00     0.162 HD
HETATM   22  O   UNL     1       6.861  10.683  18.410  0.00  0.00    -0.266 OA
BRANCH  20  23
HETATM   23  C   UNL     1       5.522   8.405  17.355  0.00  0.00     0.118 C 
HETATM   24  C   UNL     1       4.554   8.576  16.195  0.00  0.00     0.026 C 
ENDBRANCH  20  23
ENDBRANCH   1  19
BRANCH   4  25
HETATM   25  C   UNL     1       4.283  13.292  22.809  0.00  0.00     0.036 A 
HETATM   26  C   UNL     1       5.342  13.997  23.407  0.00  0.00     0.044 A 
HETATM   27  C   UNL     1       5.114  14.946  24.408  0.00  0.00     0.068 A 
HETATM   28 CL   UNL     1       6.456  15.702  25.183  0.00  0.00    -0.081 Cl
HETATM   29  C   UNL     1       3.813  15.278  24.770  0.00  0.00     0.090 A 
HETATM   30  C   UNL     1       2.738  14.626  24.181  0.00  0.00     0.075 A 
HETATM   31  C   UNL     1       2.976  13.625  23.233  0.00  0.00     0.081 A 
BRANCH  29  32
HETATM   32  O   UNL     1       3.537  16.248  25.692  0.00  0.00    -0.359 OA
HETATM   33  H   UNL     1       3.958  15.979  26.531  0.00  0.00     0.217 HD
ENDBRANCH  29  32
BRANCH  31  34
HETATM   34  O   UNL     1       1.897  12.960  22.712  0.00  0.00    -0.360 OA
HETATM   35  H   UNL     1       1.751  13.239  21.794  0.00  0.00     0.217 HD
ENDBRANCH  31  34
ENDBRANCH   4  25
TORSDOF 8
ENDMDL
MODEL 9
REMARK VINA RESULT:    -7.570      3.078      7.471
REMARK INTER + INTRA:         -12.182
REMARK INTER:                 -10.668
REMARK INTRA:                  -1.514
REMARK UNBOUND:                -1.514
REMARK  8 active torsions:
REMARK  status: ('A' for Active; 'I' for Inactive)
REMARK    1  A    between atoms: C_2  and  N_3 
REMARK       I    between atoms: N_3  and  C_4 
REMARK    2  A    between atoms: C_4  and  C_6 
REMARK    3  A    between atoms: C_9  and  C_24 
REMARK    4  A    between atoms: C_10  and  C_11 
REMARK    5  A    between atoms: C_14  and  C_15 
REMARK    6  A    between atoms: C_15  and  N_16 
REMARK    7  A    between atoms: C_28  and  O_29 
REMARK    8  A    between atoms: C_31  and  O_32 
ROOT
HETATM    1  C   UNL     1       4.697  12.802  21.770  0.00  0.00     0.165 A 
HETATM    2  N   UNL     1       3.448  12.583  21.334  0.00  0.00    -0.121 NA
HETATM    3  O   UNL     1       3.555  11.671  20.322  0.00  0.00    -0.211 OA
HETATM    4  C   UNL     1       4.853  11.282  20.145  0.00  0.00     0.128 A 
HETATM    5  C   UNL     1       5.655  12.028  21.014  0.00  0.00     0.048 A 
ENDROOT
BRANCH   5   6
HETATM    6  C   UNL     1       7.076  11.780  21.283  0.00  0.00    -0.021 C 
HETATM    7  C   UNL     1       7.515  11.145  22.455  0.00  0.00     0.013 C 
HETATM    8  C   UNL     1       8.832  11.319  22.902  0.00  0.00     0.010 C 
HETATM    9  C   UNL     1       9.756  12.030  22.129  0.00  0.00    -0.030 C 
HETATM   10  C   UNL     1       9.378  12.443  20.851  0.00  0.00     0.010 C 
HETATM   11  C   UNL     1       8.050  12.339  20.446  0.00  0.00     0.013 C 
BRANCH   9  12
HETATM   12  C   UNL     1      11.085  12.500  22.678  0.00  0.00     0.311 C 
BRANCH  12  13
HETATM   13  N   UNL     1      11.268  13.954  22.725  0.00  0.00     0.096 N 
HETATM   14  C   UNL     1      10.189  14.641  23.469  0.00  0.00     0.299 C 
HETATM   15  C   UNL     1      10.226  14.414  24.989  0.00  0.00     0.198 C 
HETATM   16  O   UNL     1      11.495  14.785  25.542  0.00  0.00    -0.388 OA
HETATM   17  C   UNL     1      12.558  14.067  24.910  0.00  0.00     0.198 C 
HETATM   18  C   UNL     1      12.557  14.280  23.384  0.00  0.00     0.299 C 
ENDBRANCH  12  13
ENDBRANCH   9  12
ENDBRANCH   5   6
BRANCH   1  19
HETATM   19  C   UNL     1       4.893  13.647  22.955  0.00  0.00     0.273 C 
HETATM   20  N   UNL     1       5.848  14.635  22.777  0.00  0.00    -0.356 N 
HETATM   21  H   UNL     1       6.338  14.644  21.888  0.00  0.00     0.162 HD
HETATM   22  O   UNL     1       4.228  13.542  23.984  0.00  0.00    -0.266 OA
BRANCH  20  23
HETATM   23  C   UNL     1       6.056  15.707  23.721  0.00  0.00     0.118 C 
HETATM   24  C   UNL     1       6.782  15.233  24.971  0.00  0.00     0.026 C 
ENDBRANCH  20  23
ENDBRANCH   1  19
BRANCH   4  25
HETATM   25  C   UNL     1       4.978  10.143  19.214  0.00  0.00     0.036 A 
HETATM   26  C   UNL     1       5.350   8.868  19.676  0.00  0.00     0.044 A 
HETATM   27  C   UNL     1       5.429   7.772  18.811  0.00  0.00     0.068 A 
HETATM   28 CL   UNL     1       5.995   6.258  19.411  0.00  0.00    -0.081 Cl
HETATM   29  C   UNL     1       5.050   7.907  17.480  0.00  0.00     0.090 A 
HETATM   30  C   UNL     1       4.648   9.141  16.991  0.00  0.00     0.075 A 
HETATM   31  C   UNL     1       4.642  10.251  17.845  0.00  0.00     0.081 A 
BRANCH  29  32
HETATM   32  O   UNL     1       5.043   6.850  16.614  0.00  0.00    -0.359 OA
HETATM   33  H   UNL     1       5.484   7.144  15.793  0.00  0.00     0.217 HD
ENDBRANCH  29  32
BRANCH  31  34
HETATM   34  O   UNL     1       4.295  11.467  17.318  0.00  0.00    -0.360 OA
HETATM   35  H   UNL     1       3.728  11.947  17.944  0.00  0.00     0.217 HD
ENDBRANCH  31  34
ENDBRANCH   4  25
TORSDOF 8
ENDMDL
