MODEL 1
REMARK VINA RESULT:    -7.416      0.000      0.000
REMARK INTER + INTRA:         -11.372
REMARK INTER:                 -10.156
REMARK INTRA:                  -1.216
REMARK UNBOUND:                -1.355
REMARK  7 active torsions:
REMARK  status: ('A' for Active; 'I' for Inactive)
REMARK    1  A    between atoms: O_2  and  C_3 
REMARK    2  A    between atoms: C_6  and  C_7 
REMARK    3  A    between atoms: C_9  and  N_10 
REMARK    4  A    between atoms: C_11  and  C_12 
REMARK       I    between atoms: C_12  and  N_14 
REMARK    5  A    between atoms: N_14  and  C_15 
REMARK    6  A    between atoms: C_25  and  N_26 
REMARK    7  A    between atoms: C_31  and  O_32 
ROOT
HETATM    1  C   UNL     1       7.183  13.622  23.196  0.00  0.00     0.013 C 
HETATM    2  C   UNL     1       6.480  12.985  22.109  0.00  0.00     0.035 C 
HETATM    3  C   UNL     1       6.859  12.274  20.894  0.00  0.00     0.043 C 
HETATM    4  C   UNL     1       5.815  11.554  20.334  0.00  0.00     0.097 C 
HETATM    5  S   UNL     1       4.330  11.973  21.077  0.00  0.00    -0.062 SA
HETATM    6  C   UNL     1       5.090  12.994  22.197  0.00  0.00     0.113 C 
HETATM    7  N   UNL     1       4.329  13.659  23.082  0.00  0.00    -0.227 NA
HETATM    8  C   UNL     1       4.989  14.318  24.034  0.00  0.00     0.123 C 
HETATM    9  C   UNL     1       6.375  14.274  24.177  0.00  0.00     0.096 C 
HETATM   10  C   UNL     1       6.927  14.863  25.365  0.00  0.00     0.103 C 
HETATM   11  N   UNL     1       7.377  15.383  26.308  0.00  0.00    -0.191 NA
ENDROOT
BRANCH   1  12
HETATM   12  C   UNL     1       8.650  13.436  23.378  0.00  0.00    -0.021 C 
HETATM   13  C   UNL     1       9.564  14.488  23.261  0.00  0.00     0.015 C 
HETATM   14  C   UNL     1      10.876  14.357  23.727  0.00  0.00     0.040 C 
HETATM   15  C   UNL     1      11.341  13.139  24.241  0.00  0.00     0.101 C 
HETATM   16  C   UNL     1      10.526  12.015  24.143  0.00  0.00     0.102 C 
HETATM   17  C   UNL     1       9.178  12.204  23.805  0.00  0.00     0.052 C 
BRANCH  15  18
HETATM   18  O   UNL     1      12.546  13.067  24.889  0.00  0.00    -0.353 OA
HETATM   19  C   UNL     1      12.421  13.198  26.313  0.00  0.00     0.210 C 
ENDBRANCH  15  18
BRANCH  16  20
HETATM   20  O   UNL     1      10.805  10.706  24.408  0.00  0.00    -0.353 OA
HETATM   21  C   UNL     1      10.719   9.754  23.357  0.00  0.00     0.210 C 
ENDBRANCH  16  20
ENDBRANCH   1  12
BRANCH   8  22
HETATM   22  N   UNL     1       4.165  14.980  24.949  0.00  0.00    -0.286 NA
HETATM   23  H   UNL     1       4.635  15.833  25.246  0.00  0.00     0.125 HD
HETATM   24  H   UNL     1       3.875  14.411  25.736  0.00  0.00     0.125 HD
ENDBRANCH   8  22
BRANCH   3  25
HETATM   25  N   UNL     1       8.121  12.254  20.371  0.00  0.00    -0.301 NA
HETATM   26  H   UNL     1       8.570  13.161  20.213  0.00  0.00     0.124 HD
HETATM   27  H   UNL     1       8.806  11.679  20.871  0.00  0.00     0.124 HD
ENDBRANCH   3  25
BRANCH   4  28
HETATM   28  C   UNL     1       5.778  10.568  19.252  0.00  0.00     0.265 C 
HETATM   29  O   UNL     1       6.602  10.574  18.340  0.00  0.00    -0.267 OA
HETATM   30  N   UNL     1       4.735   9.659  19.342  0.00  0.00    -0.322 N 
HETATM   31  H   UNL     1       4.167   9.740  20.181  0.00  0.00     0.169 HD
BRANCH  30  32
HETATM   32  C   UNL     1       4.373   8.659  18.414  0.00  0.00     0.035 A 
HETATM   33  C   UNL     1       4.788   7.324  18.496  0.00  0.00     0.031 A 
HETATM   34  C   UNL     1       4.422   6.396  17.512  0.00  0.00     0.021 A 
HETATM   35  C   UNL     1       3.636   6.791  16.438  0.00  0.00     0.011 A 
HETATM   36 BR   UNL     1       3.174   5.543  15.098  0.00  0.00    -0.051 Br
HETATM   37  C   UNL     1       3.197   8.112  16.346  0.00  0.00     0.021 A 
HETATM   38  C   UNL     1       3.568   9.037  17.331  0.00  0.00     0.031 A 
ENDBRANCH  30  32
ENDBRANCH   4  28
TORSDOF 7
ENDMDL
MODEL 2
REMARK VINA RESULT:    -7.253      1.355      2.207
REMARK INTER + INTRA:         -11.152
REMARK INTER:                  -9.798
REMARK INTRA:                  -1.353
REMARK UNBOUND:                -1.355
REMARK  7 active torsions:
REMARK  status: ('A' for Active; 'I' for Inactive)
REMARK    1  A    between atoms: O_2  and  C_3 
REMARK    2  A    between atoms: C_6  and  C_7 
REMARK    3  A    between atoms: C_9  and  N_10 
REMARK    4  A    between atoms: C_11  and  C_12 
REMARK       I    between atoms: C_12  and  N_14 
REMARK    5  A    between atoms: N_14  and  C_15 
REMARK    6  A    between atoms: C_25  and  N_26 
REMARK    7  A    between atoms: C_31  and  O_32 
ROOT
HETATM    1  C   UNL     1       7.012  13.586  23.019  0.00  0.00     0.013 C 
HETATM    2  C   UNL     1       6.288  12.849  22.013  0.00  0.00     0.035 C 
HETATM    3  C   UNL     1       6.617  12.217  20.741  0.00  0.00     0.043 C 
HETATM    4  C   UNL     1       5.639  11.340  20.297  0.00  0.00     0.097 C 
HETATM    5  S   UNL     1       4.214  11.506  21.232  0.00  0.00    -0.062 SA
HETATM    6  C   UNL     1       4.937  12.630  22.274  0.00  0.00     0.113 C 
HETATM    7  N   UNL     1       4.199  13.157  23.266  0.00  0.00    -0.227 NA
HETATM    8  C   UNL     1       4.860  13.909  24.145  0.00  0.00     0.123 C 
HETATM    9  C   UNL     1       6.242  14.091  24.112  0.00  0.00     0.096 C 
HETATM   10  C   UNL     1       6.840  14.754  25.236  0.00  0.00     0.103 C 
HETATM   11  N   UNL     1       7.317  15.335  26.129  0.00  0.00    -0.191 NA
ENDROOT
BRANCH   1  12
HETATM   12  C   UNL     1       8.500  13.640  23.011  0.00  0.00    -0.021 C 
HETATM   13  C   UNL     1       9.296  12.569  23.434  0.00  0.00     0.015 C 
HETATM   14  C   UNL     1      10.662  12.527  23.138  0.00  0.00     0.040 C 
HETATM   15  C   UNL     1      11.294  13.596  22.489  0.00  0.00     0.101 C 
HETATM   16  C   UNL     1      10.576  14.769  22.277  0.00  0.00     0.102 C 
HETATM   17  C   UNL     1       9.185  14.734  22.454  0.00  0.00     0.052 C 
BRANCH  15  18
HETATM   18  O   UNL     1      12.571  13.469  22.011  0.00  0.00    -0.353 OA
HETATM   19  C   UNL     1      12.692  12.446  21.011  0.00  0.00     0.210 C 
ENDBRANCH  15  18
BRANCH  16  20
HETATM   20  O   UNL     1      11.001  15.987  21.830  0.00  0.00    -0.353 OA
HETATM   21  C   UNL     1      10.038  16.981  21.509  0.00  0.00     0.210 C 
ENDBRANCH  16  20
ENDBRANCH   1  12
BRANCH   8  22
HETATM   22  N   UNL     1       4.065  14.422  25.174  0.00  0.00    -0.286 NA
HETATM   23  H   UNL     1       3.240  14.851  24.758  0.00  0.00     0.125 HD
HETATM   24  H   UNL     1       4.550  15.056  25.799  0.00  0.00     0.125 HD
ENDBRANCH   8  22
BRANCH   3  25
HETATM   25  N   UNL     1       7.788  12.406  20.063  0.00  0.00    -0.301 NA
HETATM   26  H   UNL     1       8.646  12.100  20.530  0.00  0.00     0.124 HD
HETATM   27  H   UNL     1       7.825  12.021  19.114  0.00  0.00     0.124 HD
ENDBRANCH   3  25
BRANCH   4  28
HETATM   28  C   UNL     1       5.623  10.367  19.202  0.00  0.00     0.265 C 
HETATM   29  O   UNL     1       6.440  10.410  18.284  0.00  0.00    -0.267 OA
HETATM   30  N   UNL     1       4.608   9.427  19.288  0.00  0.00    -0.322 N 
HETATM   31  H   UNL     1       4.044   9.480  20.131  0.00  0.00     0.169 HD
BRANCH  30  32
HETATM   32  C   UNL     1       4.268   8.429  18.348  0.00  0.00     0.035 A 
HETATM   33  C   UNL     1       4.780   7.125  18.368  0.00  0.00     0.031 A 
HETATM   34  C   UNL     1       4.429   6.201  17.376  0.00  0.00     0.021 A 
HETATM   35  C   UNL     1       3.560   6.568  16.356  0.00  0.00     0.011 A 
HETATM   36 BR   UNL     1       3.117   5.327  15.003  0.00  0.00    -0.051 Br
HETATM   37  C   UNL     1       3.026   7.856  16.327  0.00  0.00     0.021 A 
HETATM   38  C   UNL     1       3.382   8.778  17.320  0.00  0.00     0.031 A 
ENDBRANCH  30  32
ENDBRANCH   4  28
TORSDOF 7
ENDMDL
MODEL 3
REMARK VINA RESULT:    -7.013      3.973      4.924
REMARK INTER + INTRA:         -10.828
REMARK INTER:                  -9.497
REMARK INTRA:                  -1.332
REMARK UNBOUND:                -1.355
REMARK  7 active torsions:
REMARK  status: ('A' for Active; 'I' for Inactive)
REMARK    1  A    between atoms: O_2  and  C_3 
REMARK    2  A    between atoms: C_6  and  C_7 
REMARK    3  A    between atoms: C_9  and  N_10 
REMARK    4  A    between atoms: C_11  and  C_12 
REMARK       I    between atoms: C_12  and  N_14 
REMARK    5  A    between atoms: N_14  and  C_15 
REMARK    6  A    between atoms: C_25  and  N_26 
REMARK    7  A    between atoms: C_31  and  O_32 
ROOT
HETATM    1  C   UNL     1       6.670  13.527  23.018  0.00  0.00     0.013 C 
HETATM    2  C   UNL     1       6.833  12.114  22.778  0.00  0.00     0.035 C 
HETATM    3  C   UNL     1       7.960  11.201  22.635  0.00  0.00     0.043 C 
HETATM    4  C   UNL     1       7.600   9.867  22.744  0.00  0.00     0.097 C 
HETATM    5  S   UNL     1       5.896   9.699  22.708  0.00  0.00    -0.062 SA
HETATM    6  C   UNL     1       5.656  11.377  22.673  0.00  0.00     0.113 C 
HETATM    7  N   UNL     1       4.398  11.846  22.609  0.00  0.00    -0.227 NA
HETATM    8  C   UNL     1       4.263  13.165  22.746  0.00  0.00     0.123 C 
HETATM    9  C   UNL     1       5.329  14.020  23.018  0.00  0.00     0.096 C 
HETATM   10  C   UNL     1       5.008  15.382  23.342  0.00  0.00     0.103 C 
HETATM   11  N   UNL     1       4.746  16.498  23.558  0.00  0.00    -0.191 NA
ENDROOT
BRANCH   1  12
HETATM   12  C   UNL     1       7.823  14.374  23.435  0.00  0.00    -0.021 C 
HETATM   13  C   UNL     1       8.259  14.452  24.763  0.00  0.00     0.015 C 
HETATM   14  C   UNL     1       9.505  15.001  25.079  0.00  0.00     0.040 C 
HETATM   15  C   UNL     1      10.315  15.573  24.088  0.00  0.00     0.101 C 
HETATM   16  C   UNL     1       9.798  15.724  22.805  0.00  0.00     0.102 C 
HETATM   17  C   UNL     1       8.614  15.044  22.486  0.00  0.00     0.052 C 
BRANCH  15  18
HETATM   18  O   UNL     1      11.614  15.915  24.357  0.00  0.00    -0.353 OA
HETATM   19  C   UNL     1      12.541  14.862  24.052  0.00  0.00     0.210 C 
ENDBRANCH  15  18
BRANCH  16  20
HETATM   20  O   UNL     1      10.309  16.389  21.728  0.00  0.00    -0.353 OA
HETATM   21  C   UNL     1       9.552  17.436  21.139  0.00  0.00     0.210 C 
ENDBRANCH  16  20
ENDBRANCH   1  12
BRANCH   8  22
HETATM   22  N   UNL     1       2.940  13.614  22.695  0.00  0.00    -0.286 NA
HETATM   23  H   UNL     1       2.422  13.016  22.054  0.00  0.00     0.125 HD
HETATM   24  H   UNL     1       2.842  14.596  22.463  0.00  0.00     0.125 HD
ENDBRANCH   8  22
BRANCH   3  25
HETATM   25  N   UNL     1       9.258  11.594  22.468  0.00  0.00    -0.301 NA
HETATM   26  H   UNL     1       9.980  10.890  22.648  0.00  0.00     0.124 HD
HETATM   27  H   UNL     1       9.487  12.016  21.563  0.00  0.00     0.124 HD
ENDBRANCH   3  25
BRANCH   4  28
HETATM   28  C   UNL     1       8.400   8.645  22.853  0.00  0.00     0.265 C 
HETATM   29  O   UNL     1       9.624   8.678  22.966  0.00  0.00    -0.267 OA
HETATM   30  N   UNL     1       7.662   7.472  22.797  0.00  0.00    -0.322 N 
HETATM   31  H   UNL     1       6.655   7.600  22.759  0.00  0.00     0.169 HD
BRANCH  30  32
HETATM   32  C   UNL     1       8.144   6.144  22.775  0.00  0.00     0.035 A 
HETATM   33  C   UNL     1       8.264   5.334  23.912  0.00  0.00     0.031 A 
HETATM   34  C   UNL     1       8.790   4.040  23.819  0.00  0.00     0.021 A 
HETATM   35  C   UNL     1       9.199   3.539  22.589  0.00  0.00     0.011 A 
HETATM   36 BR   UNL     1       9.939   1.806  22.476  0.00  0.00    -0.051 Br
HETATM   37  C   UNL     1       9.073   4.323  21.442  0.00  0.00     0.021 A 
HETATM   38  C   UNL     1       8.547   5.619  21.541  0.00  0.00     0.031 A 
ENDBRANCH  30  32
ENDBRANCH   4  28
TORSDOF 7
ENDMDL
MODEL 4
REMARK VINA RESULT:    -6.849      5.129      8.983
REMARK INTER + INTRA:         -10.607
REMARK INTER:                  -9.242
REMARK INTRA:                  -1.365
REMARK UNBOUND:                -1.355
REMARK  7 active torsions:
REMARK  status: ('A' for Active; 'I' for Inactive)
REMARK    1  A    between atoms: O_2  and  C_3 
REMARK    2  A    between atoms: C_6  and  C_7 
REMARK    3  A    between atoms: C_9  and  N_10 
REMARK    4  A    between atoms: C_11  and  C_12 
REMARK       I    between atoms: C_12  and  N_14 
REMARK    5  A    between atoms: N_14  and  C_15 
REMARK    6  A    between atoms: C_25  and  N_26 
REMARK    7  A    between atoms: C_31  and  O_32 
ROOT
HETATM    1  C   UNL     1       4.353   5.796  20.994  0.00  0.00     0.013 C 
HETATM    2  C   UNL     1       4.693   6.965  20.220  0.00  0.00     0.035 C 
HETATM    3  C   UNL     1       4.870   8.385  20.495  0.00  0.00     0.043 C 
HETATM    4  C   UNL     1       5.525   9.062  19.478  0.00  0.00     0.097 C 
HETATM    5  S   UNL     1       5.647   8.076  18.083  0.00  0.00    -0.062 SA
HETATM    6  C   UNL     1       4.955   6.744  18.870  0.00  0.00     0.113 C 
HETATM    7  N   UNL     1       4.773   5.608  18.175  0.00  0.00    -0.227 NA
HETATM    8  C   UNL     1       4.376   4.552  18.884  0.00  0.00     0.123 C 
HETATM    9  C   UNL     1       4.225   4.571  20.269  0.00  0.00     0.096 C 
HETATM   10  C   UNL     1       3.991   3.312  20.918  0.00  0.00     0.103 C 
HETATM   11  N   UNL     1       3.755   2.293  21.437  0.00  0.00    -0.191 NA
ENDROOT
BRANCH   1  12
HETATM   12  C   UNL     1       4.335   5.838  22.483  0.00  0.00    -0.021 C 
HETATM   13  C   UNL     1       5.504   5.898  23.250  0.00  0.00     0.015 C 
HETATM   14  C   UNL     1       5.458   6.238  24.605  0.00  0.00     0.040 C 
HETATM   15  C   UNL     1       4.235   6.440  25.259  0.00  0.00     0.101 C 
HETATM   16  C   UNL     1       3.056   6.148  24.578  0.00  0.00     0.102 C 
HETATM   17  C   UNL     1       3.126   5.947  23.192  0.00  0.00     0.052 C 
BRANCH  15  18
HETATM   18  O   UNL     1       4.194   6.976  26.518  0.00  0.00    -0.353 OA
HETATM   19  C   UNL     1       3.831   8.366  26.519  0.00  0.00     0.210 C 
ENDBRANCH  15  18
BRANCH  16  20
HETATM   20  O   UNL     1       1.771   6.098  25.035  0.00  0.00    -0.353 OA
HETATM   21  C   UNL     1       0.785   6.910  24.414  0.00  0.00     0.210 C 
ENDBRANCH  16  20
ENDBRANCH   1  12
BRANCH   8  22
HETATM   22  N   UNL     1       4.218   3.384  18.132  0.00  0.00    -0.286 NA
HETATM   23  H   UNL     1       3.852   3.638  17.216  0.00  0.00     0.125 HD
HETATM   24  H   UNL     1       3.655   2.672  18.583  0.00  0.00     0.125 HD
ENDBRANCH   8  22
BRANCH   3  25
HETATM   25  N   UNL     1       4.492   9.002  21.655  0.00  0.00    -0.301 NA
HETATM   26  H   UNL     1       5.194   9.055  22.399  0.00  0.00     0.124 HD
HETATM   27  H   UNL     1       4.108   9.947  21.556  0.00  0.00     0.124 HD
ENDBRANCH   3  25
BRANCH   4  28
HETATM   28  C   UNL     1       6.073  10.418  19.401  0.00  0.00     0.265 C 
HETATM   29  O   UNL     1       6.017  11.084  18.369  0.00  0.00    -0.267 OA
HETATM   30  N   UNL     1       6.667  10.862  20.573  0.00  0.00    -0.322 N 
HETATM   31  H   UNL     1       6.588  10.225  21.361  0.00  0.00     0.169 HD
BRANCH  30  32
HETATM   32  C   UNL     1       7.365  12.070  20.789  0.00  0.00     0.035 A 
HETATM   33  C   UNL     1       8.631  12.350  20.262  0.00  0.00     0.031 A 
HETATM   34  C   UNL     1       9.281  13.556  20.554  0.00  0.00     0.021 A 
HETATM   35  C   UNL     1       8.670  14.497  21.374  0.00  0.00     0.011 A 
HETATM   36 BR   UNL     1       9.565  16.106  21.791  0.00  0.00    -0.051 Br
HETATM   37  C   UNL     1       7.401  14.245  21.895  0.00  0.00     0.021 A 
HETATM   38  C   UNL     1       6.756  13.036  21.602  0.00  0.00     0.031 A 
ENDBRANCH  30  32
ENDBRANCH   4  28
TORSDOF 7
ENDMDL
MODEL 5
REMARK VINA RESULT:    -6.845      4.473      9.600
REMARK INTER + INTRA:         -10.601
REMARK INTER:                  -9.179
REMARK INTRA:                  -1.422
REMARK UNBOUND:                -1.355
REMARK  7 active torsions:
REMARK  status: ('A' for Active; 'I' for Inactive)
REMARK    1  A    between atoms: O_2  and  C_3 
REMARK    2  A    between atoms: C_6  and  C_7 
REMARK    3  A    between atoms: C_9  and  N_10 
REMARK    4  A    between atoms: C_11  and  C_12 
REMARK       I    between atoms: C_12  and  N_14 
REMARK    5  A    between atoms: N_14  and  C_15 
REMARK    6  A    between atoms: C_25  and  N_26 
REMARK    7  A    between atoms: C_31  and  O_32 
ROOT
HETATM    1  C   UNL     1       3.389   6.397  18.377  0.00  0.00     0.013 C 
HETATM    2  C   UNL     1       3.865   7.758  18.440  0.00  0.00     0.035 C 
HETATM    3  C   UNL     1       4.590   8.566  19.412  0.00  0.00     0.043 C 
HETATM    4  C   UNL     1       5.107   9.735  18.873  0.00  0.00     0.097 C 
HETATM    5  S   UNL     1       4.468  10.008  17.308  0.00  0.00    -0.062 SA
HETATM    6  C   UNL     1       3.625   8.538  17.311  0.00  0.00     0.113 C 
HETATM    7  N   UNL     1       2.870   8.225  16.244  0.00  0.00    -0.227 NA
HETATM    8  C   UNL     1       2.362   6.994  16.234  0.00  0.00     0.123 C 
HETATM    9  C   UNL     1       2.642   6.040  17.212  0.00  0.00     0.096 C 
HETATM   10  C   UNL     1       2.192   4.699  16.964  0.00  0.00     0.103 C 
HETATM   11  N   UNL     1       1.784   3.621  16.781  0.00  0.00    -0.191 NA
ENDROOT
BRANCH   1  12
HETATM   12  C   UNL     1       3.824   5.382  19.376  0.00  0.00    -0.021 C 
HETATM   13  C   UNL     1       5.069   4.746  19.311  0.00  0.00     0.015 C 
HETATM   14  C   UNL     1       5.572   4.037  20.406  0.00  0.00     0.040 C 
HETATM   15  C   UNL     1       4.809   3.865  21.569  0.00  0.00     0.101 C 
HETATM   16  C   UNL     1       3.480   4.280  21.564  0.00  0.00     0.102 C 
HETATM   17  C   UNL     1       3.048   5.105  20.516  0.00  0.00     0.052 C 
BRANCH  15  18
HETATM   18  O   UNL     1       5.374   3.361  22.710  0.00  0.00    -0.353 OA
HETATM   19  C   UNL     1       5.890   4.386  23.574  0.00  0.00     0.210 C 
ENDBRANCH  15  18
BRANCH  16  20
HETATM   20  O   UNL     1       2.497   4.077  22.490  0.00  0.00    -0.353 OA
HETATM   21  C   UNL     1       2.142   5.138  23.365  0.00  0.00     0.210 C 
ENDBRANCH  16  20
ENDBRANCH   1  12
BRANCH   8  22
HETATM   22  N   UNL     1       1.600   6.698  15.100  0.00  0.00    -0.286 NA
HETATM   23  H   UNL     1       1.850   5.764  14.780  0.00  0.00     0.125 HD
HETATM   24  H   UNL     1       1.672   7.386  14.359  0.00  0.00     0.125 HD
ENDBRANCH   8  22
BRANCH   3  25
HETATM   25  N   UNL     1       4.805   8.206  20.712  0.00  0.00    -0.301 NA
HETATM   26  H   UNL     1       4.217   7.456  21.087  0.00  0.00     0.124 HD
HETATM   27  H   UNL     1       5.770   7.964  20.957  0.00  0.00     0.124 HD
ENDBRANCH   3  25
BRANCH   4  28
HETATM   28  C   UNL     1       6.038  10.730  19.410  0.00  0.00     0.265 C 
HETATM   29  O   UNL     1       6.961  11.184  18.737  0.00  0.00    -0.267 OA
HETATM   30  N   UNL     1       5.796  11.086  20.728  0.00  0.00    -0.322 N 
HETATM   31  H   UNL     1       4.964  10.671  21.139  0.00  0.00     0.169 HD
BRANCH  30  32
HETATM   32  C   UNL     1       6.565  11.936  21.552  0.00  0.00     0.035 A 
HETATM   33  C   UNL     1       7.761  11.555  22.175  0.00  0.00     0.031 A 
HETATM   34  C   UNL     1       8.448  12.441  23.013  0.00  0.00     0.021 A 
HETATM   35  C   UNL     1       7.951  13.719  23.236  0.00  0.00     0.011 A 
HETATM   36 BR   UNL     1       8.865  14.898  24.394  0.00  0.00    -0.051 Br
HETATM   37  C   UNL     1       6.771  14.125  22.612  0.00  0.00     0.021 A 
HETATM   38  C   UNL     1       6.086  13.234  21.776  0.00  0.00     0.031 A 
ENDBRANCH  30  32
ENDBRANCH   4  28
TORSDOF 7
ENDMDL
MODEL 6
REMARK VINA RESULT:    -6.822      3.536      4.490
REMARK INTER + INTRA:         -10.570
REMARK INTER:                  -9.482
REMARK INTRA:                  -1.089
REMARK UNBOUND:                -1.355
REMARK  7 active torsions:
REMARK  status: ('A' for Active; 'I' for Inactive)
REMARK    1  A    between atoms: O_2  and  C_3 
REMARK    2  A    between atoms: C_6  and  C_7 
REMARK    3  A    between atoms: C_9  and  N_10 
REMARK    4  A    between atoms: C_11  and  C_12 
REMARK       I    between atoms: C_12  and  N_14 
REMARK    5  A    between atoms: N_14  and  C_15 
REMARK    6  A    between atoms: C_25  and  N_26 
REMARK    7  A    between atoms: C_31  and  O_32 
ROOT
HETATM    1  C   UNL     1       6.274  13.195  22.396  0.00  0.00     0.013 C 
HETATM    2  C   UNL     1       5.987  11.821  22.063  0.00  0.00     0.035 C 
HETATM    3  C   UNL     1       6.750  10.688  21.557  0.00  0.00     0.043 C 
HETATM    4  C   UNL     1       6.098   9.474  21.716  0.00  0.00     0.097 C 
HETATM    5  S   UNL     1       4.469   9.725  22.180  0.00  0.00    -0.062 SA
HETATM    6  C   UNL     1       4.676  11.404  22.284  0.00  0.00     0.113 C 
HETATM    7  N   UNL     1       3.619  12.165  22.614  0.00  0.00    -0.227 NA
HETATM    8  C   UNL     1       3.878  13.453  22.836  0.00  0.00     0.123 C 
HETATM    9  C   UNL     1       5.163  13.992  22.813  0.00  0.00     0.096 C 
HETATM   10  C   UNL     1       5.312  15.345  23.270  0.00  0.00     0.103 C 
HETATM   11  N   UNL     1       5.422  16.459  23.598  0.00  0.00    -0.191 NA
ENDROOT
BRANCH   1  12
HETATM   12  C   UNL     1       7.676  13.688  22.486  0.00  0.00    -0.021 C 
HETATM   13  C   UNL     1       8.243  14.530  21.522  0.00  0.00     0.015 C 
HETATM   14  C   UNL     1       9.436  15.214  21.776  0.00  0.00     0.040 C 
HETATM   15  C   UNL     1      10.147  15.008  22.965  0.00  0.00     0.101 C 
HETATM   16  C   UNL     1       9.731  13.998  23.828  0.00  0.00     0.102 C 
HETATM   17  C   UNL     1       8.466  13.430  23.620  0.00  0.00     0.052 C 
BRANCH  15  18
HETATM   18  O   UNL     1      11.191  15.825  23.307  0.00  0.00    -0.353 OA
HETATM   19  C   UNL     1      12.465  15.303  22.897  0.00  0.00     0.210 C 
ENDBRANCH  15  18
BRANCH  16  20
HETATM   20  O   UNL     1      10.338  13.494  24.943  0.00  0.00    -0.353 OA
HETATM   21  C   UNL     1      10.679  12.116  24.981  0.00  0.00     0.210 C 
ENDBRANCH  16  20
ENDBRANCH   1  12
BRANCH   8  22
HETATM   22  N   UNL     1       2.758  14.209  23.197  0.00  0.00    -0.286 NA
HETATM   23  H   UNL     1       2.050  14.101  22.473  0.00  0.00     0.125 HD
HETATM   24  H   UNL     1       2.958  15.183  23.392  0.00  0.00     0.125 HD
ENDBRANCH   8  22
BRANCH   3  25
HETATM   25  N   UNL     1       8.007  10.775  21.029  0.00  0.00    -0.301 NA
HETATM   26  H   UNL     1       8.274  11.675  20.618  0.00  0.00     0.124 HD
HETATM   27  H   UNL     1       8.776  10.504  21.650  0.00  0.00     0.124 HD
ENDBRANCH   3  25
BRANCH   4  28
HETATM   28  C   UNL     1       6.547   8.092  21.534  0.00  0.00     0.265 C 
HETATM   29  O   UNL     1       6.071   7.363  20.668  0.00  0.00    -0.267 OA
HETATM   30  N   UNL     1       7.527   7.688  22.429  0.00  0.00    -0.322 N 
HETATM   31  H   UNL     1       7.865   8.416  23.052  0.00  0.00     0.169 HD
BRANCH  30  32
HETATM   32  C   UNL     1       8.091   6.402  22.575  0.00  0.00     0.035 A 
HETATM   33  C   UNL     1       8.659   5.669  21.526  0.00  0.00     0.031 A 
HETATM   34  C   UNL     1       9.161   4.379  21.739  0.00  0.00     0.021 A 
HETATM   35  C   UNL     1       9.104   3.809  23.004  0.00  0.00     0.011 A 
HETATM   36 BR   UNL     1       9.752   2.056  23.278  0.00  0.00    -0.051 Br
HETATM   37  C   UNL     1       8.558   4.528  24.068  0.00  0.00     0.021 A 
HETATM   38  C   UNL     1       8.055   5.817  23.849  0.00  0.00     0.031 A 
ENDBRANCH  30  32
ENDBRANCH   4  28
TORSDOF 7
ENDMDL
MODEL 7
REMARK VINA RESULT:    -6.714      5.846      8.353
REMARK INTER + INTRA:         -10.424
REMARK INTER:                  -9.130
REMARK INTRA:                  -1.294
REMARK UNBOUND:                -1.355
REMARK  7 active torsions:
REMARK  status: ('A' for Active; 'I' for Inactive)
REMARK    1  A    between atoms: O_2  and  C_3 
REMARK    2  A    between atoms: C_6  and  C_7 
REMARK    3  A    between atoms: C_9  and  N_10 
REMARK    4  A    between atoms: C_11  and  C_12 
REMARK       I    between atoms: C_12  and  N_14 
REMARK    5  A    between atoms: N_14  and  C_15 
REMARK    6  A    between atoms: C_25  and  N_26 
REMARK    7  A    between atoms: C_31  and  O_32 
ROOT
HETATM    1  C   UNL     1       5.024  10.012  21.165  0.00  0.00     0.013 C 
HETATM    2  C   UNL     1       5.034   8.964  22.156  0.00  0.00     0.035 C 
HETATM    3  C   UNL     1       5.064   8.903  23.611  0.00  0.00     0.043 C 
HETATM    4  C   UNL     1       4.723   7.656  24.114  0.00  0.00     0.097 C 
HETATM    5  S   UNL     1       4.673   6.495  22.855  0.00  0.00    -0.062 SA
HETATM    6  C   UNL     1       4.975   7.662  21.663  0.00  0.00     0.113 C 
HETATM    7  N   UNL     1       5.071   7.265  20.383  0.00  0.00    -0.227 NA
HETATM    8  C   UNL     1       5.149   8.240  19.478  0.00  0.00     0.123 C 
HETATM    9  C   UNL     1       5.059   9.593  19.799  0.00  0.00     0.096 C 
HETATM   10  C   UNL     1       4.953  10.518  18.705  0.00  0.00     0.103 C 
HETATM   11  N   UNL     1       4.915  11.270  17.814  0.00  0.00    -0.191 NA
ENDROOT
BRANCH   1  12
HETATM   12  C   UNL     1       4.792  11.432  21.550  0.00  0.00    -0.021 C 
HETATM   13  C   UNL     1       3.523  11.931  21.861  0.00  0.00     0.015 C 
HETATM   14  C   UNL     1       3.372  13.164  22.502  0.00  0.00     0.040 C 
HETATM   15  C   UNL     1       4.480  13.979  22.771  0.00  0.00     0.101 C 
HETATM   16  C   UNL     1       5.720  13.615  22.254  0.00  0.00     0.102 C 
HETATM   17  C   UNL     1       5.867  12.318  21.743  0.00  0.00     0.052 C 
BRANCH  15  18
HETATM   18  O   UNL     1       4.361  15.077  23.581  0.00  0.00    -0.353 OA
HETATM   19  C   UNL     1       3.418  14.883  24.646  0.00  0.00     0.210 C 
ENDBRANCH  15  18
BRANCH  16  20
HETATM   20  O   UNL     1       6.896  14.308  22.230  0.00  0.00    -0.353 OA
HETATM   21  C   UNL     1       7.990  13.787  21.489  0.00  0.00     0.210 C 
ENDBRANCH  16  20
ENDBRANCH   1  12
BRANCH   8  22
HETATM   22  N   UNL     1       5.227   7.790  18.156  0.00  0.00    -0.286 NA
HETATM   23  H   UNL     1       6.185   7.498  17.973  0.00  0.00     0.125 HD
HETATM   24  H   UNL     1       4.894   8.457  17.469  0.00  0.00     0.125 HD
ENDBRANCH   8  22
BRANCH   3  25
HETATM   25  N   UNL     1       5.337   9.965  24.426  0.00  0.00    -0.301 NA
HETATM   26  H   UNL     1       6.180   9.899  25.003  0.00  0.00     0.124 HD
HETATM   27  H   UNL     1       5.373  10.883  23.970  0.00  0.00     0.124 HD
ENDBRANCH   3  25
BRANCH   4  28
HETATM   28  C   UNL     1       4.442   7.194  25.475  0.00  0.00     0.265 C 
HETATM   29  O   UNL     1       4.906   6.143  25.912  0.00  0.00    -0.267 OA
HETATM   30  N   UNL     1       3.605   8.028  26.200  0.00  0.00    -0.322 N 
HETATM   31  H   UNL     1       3.346   8.890  25.729  0.00  0.00     0.169 HD
BRANCH  30  32
HETATM   32  C   UNL     1       3.074   7.815  27.491  0.00  0.00     0.035 A 
HETATM   33  C   UNL     1       3.851   7.700  28.650  0.00  0.00     0.031 A 
HETATM   34  C   UNL     1       3.254   7.445  29.892  0.00  0.00     0.021 A 
HETATM   35  C   UNL     1       1.876   7.307  29.989  0.00  0.00     0.011 A 
HETATM   36 BR   UNL     1       1.081   6.932  31.660  0.00  0.00    -0.051 Br
HETATM   37  C   UNL     1       1.082   7.435  28.849  0.00  0.00     0.021 A 
HETATM   38  C   UNL     1       1.683   7.687  27.609  0.00  0.00     0.031 A 
ENDBRANCH  30  32
ENDBRANCH   4  28
TORSDOF 7
ENDMDL
MODEL 8
REMARK VINA RESULT:    -6.691      4.414      9.925
REMARK INTER + INTRA:         -10.393
REMARK INTER:                  -9.214
REMARK INTRA:                  -1.179
REMARK UNBOUND:                -1.355
REMARK  7 active torsions:
REMARK  status: ('A' for Active; 'I' for Inactive)
REMARK    1  A    between atoms: O_2  and  C_3 
REMARK    2  A    between atoms: C_6  and  C_7 
REMARK    3  A    between atoms: C_9  and  N_10 
REMARK    4  A    between atoms: C_11  and  C_12 
REMARK       I    between atoms: C_12  and  N_14 
REMARK    5  A    between atoms: N_14  and  C_15 
REMARK    6  A    between atoms: C_25  and  N_26 
REMARK    7  A    between atoms: C_31  and  O_32 
ROOT
HETATM    1  C   UNL     1       4.134   6.087  17.875  0.00  0.00     0.013 C 
HETATM    2  C   UNL     1       4.346   7.487  18.150  0.00  0.00     0.035 C 
HETATM    3  C   UNL     1       5.076   8.257  19.148  0.00  0.00     0.043 C 
HETATM    4  C   UNL     1       5.249   9.586  18.796  0.00  0.00     0.097 C 
HETATM    5  S   UNL     1       4.282   9.977  17.437  0.00  0.00    -0.062 SA
HETATM    6  C   UNL     1       3.751   8.377  17.259  0.00  0.00     0.113 C 
HETATM    7  N   UNL     1       2.878   8.094  16.277  0.00  0.00    -0.227 NA
HETATM    8  C   UNL     1       2.621   6.800  16.085  0.00  0.00     0.123 C 
HETATM    9  C   UNL     1       3.259   5.779  16.787  0.00  0.00     0.096 C 
HETATM   10  C   UNL     1       3.033   4.436  16.335  0.00  0.00     0.103 C 
HETATM   11  N   UNL     1       2.811   3.342  15.993  0.00  0.00    -0.191 NA
ENDROOT
BRANCH   1  12
HETATM   12  C   UNL     1       4.938   5.038  18.562  0.00  0.00    -0.021 C 
HETATM   13  C   UNL     1       4.422   4.249  19.596  0.00  0.00     0.015 C 
HETATM   14  C   UNL     1       5.081   3.088  20.011  0.00  0.00     0.040 C 
HETATM   15  C   UNL     1       6.322   2.727  19.470  0.00  0.00     0.101 C 
HETATM   16  C   UNL     1       6.966   3.621  18.619  0.00  0.00     0.102 C 
HETATM   17  C   UNL     1       6.228   4.701  18.114  0.00  0.00     0.052 C 
BRANCH  15  18
HETATM   18  O   UNL     1       6.862   1.493  19.716  0.00  0.00    -0.353 OA
HETATM   19  C   UNL     1       6.519   0.525  18.712  0.00  0.00     0.210 C 
ENDBRANCH  15  18
BRANCH  16  20
HETATM   20  O   UNL     1       8.229   3.584  18.104  0.00  0.00    -0.353 OA
HETATM   21  C   UNL     1       9.330   3.416  18.985  0.00  0.00     0.210 C 
ENDBRANCH  16  20
ENDBRANCH   1  12
BRANCH   8  22
HETATM   22  N   UNL     1       1.726   6.543  15.042  0.00  0.00    -0.286 NA
HETATM   23  H   UNL     1       2.263   6.352  14.199  0.00  0.00     0.125 HD
HETATM   24  H   UNL     1       1.035   7.270  14.898  0.00  0.00     0.125 HD
ENDBRANCH   8  22
BRANCH   3  25
HETATM   25  N   UNL     1       5.602   7.734  20.297  0.00  0.00    -0.301 NA
HETATM   26  H   UNL     1       5.045   7.021  20.776  0.00  0.00     0.124 HD
HETATM   27  H   UNL     1       6.551   7.356  20.225  0.00  0.00     0.124 HD
ENDBRANCH   3  25
BRANCH   4  28
HETATM   28  C   UNL     1       6.059  10.656  19.382  0.00  0.00     0.265 C 
HETATM   29  O   UNL     1       6.932  11.236  18.740  0.00  0.00    -0.267 OA
HETATM   30  N   UNL     1       5.768  10.931  20.710  0.00  0.00    -0.322 N 
HETATM   31  H   UNL     1       4.984  10.410  21.094  0.00  0.00     0.169 HD
BRANCH  30  32
HETATM   32  C   UNL     1       6.432  11.827  21.576  0.00  0.00     0.035 A 
HETATM   33  C   UNL     1       7.523  11.478  22.382  0.00  0.00     0.031 A 
HETATM   34  C   UNL     1       8.104  12.412  23.249  0.00  0.00     0.021 A 
HETATM   35  C   UNL     1       7.603  13.706  23.317  0.00  0.00     0.011 A 
HETATM   36 BR   UNL     1       8.370  14.951  24.512  0.00  0.00    -0.051 Br
HETATM   37  C   UNL     1       6.528  14.080  22.510  0.00  0.00     0.021 A 
HETATM   38  C   UNL     1       5.949  13.141  21.646  0.00  0.00     0.031 A 
ENDBRANCH  30  32
ENDBRANCH   4  28
TORSDOF 7
ENDMDL
MODEL 9
REMARK VINA RESULT:    -6.658      5.555      7.167
REMARK INTER + INTRA:         -10.348
REMARK INTER:                  -8.993
REMARK INTRA:                  -1.355
REMARK UNBOUND:                -1.355
REMARK  7 active torsions:
REMARK  status: ('A' for Active; 'I' for Inactive)
REMARK    1  A    between atoms: O_2  and  C_3 
REMARK    2  A    between atoms: C_6  and  C_7 
REMARK    3  A    between atoms: C_9  and  N_10 
REMARK    4  A    between atoms: C_11  and  C_12 
REMARK       I    between atoms: C_12  and  N_14 
REMARK    5  A    between atoms: N_14  and  C_15 
REMARK    6  A    between atoms: C_25  and  N_26 
REMARK    7  A    between atoms: C_31  and  O_32 
ROOT
HETATM    1  C   UNL     1       8.027  11.173  23.142  0.00  0.00     0.013 C 
HETATM    2  C   UNL     1       7.335   9.990  23.591  0.00  0.00     0.035 C 
HETATM    3  C   UNL     1       6.055   9.707  24.229  0.00  0.00     0.043 C 
HETATM    4  C   UNL     1       5.694   8.370  24.162  0.00  0.00     0.097 C 
HETATM    5  S   UNL     1       7.011   7.419  23.618  0.00  0.00    -0.062 SA
HETATM    6  C   UNL     1       7.988   8.781  23.364  0.00  0.00     0.113 C 
HETATM    7  N   UNL     1       9.246   8.599  22.926  0.00  0.00    -0.227 NA
HETATM    8  C   UNL     1       9.910   9.706  22.594  0.00  0.00     0.123 C 
HETATM    9  C   UNL     1       9.339  10.977  22.612  0.00  0.00     0.096 C 
HETATM   10  C   UNL     1      10.106  12.046  22.036  0.00  0.00     0.103 C 
HETATM   11  N   UNL     1      10.752  12.919  21.609  0.00  0.00    -0.191 NA
ENDROOT
BRANCH   1  12
HETATM   12  C   UNL     1       7.329  12.486  23.057  0.00  0.00    -0.021 C 
HETATM   13  C   UNL     1       6.461  12.813  22.010  0.00  0.00     0.015 C 
HETATM   14  C   UNL     1       5.598  13.908  22.106  0.00  0.00     0.040 C 
HETATM   15  C   UNL     1       5.640  14.766  23.213  0.00  0.00     0.101 C 
HETATM   16  C   UNL     1       6.657  14.603  24.148  0.00  0.00     0.102 C 
HETATM   17  C   UNL     1       7.414  13.423  24.103  0.00  0.00     0.052 C 
BRANCH  15  18
HETATM   18  O   UNL     1       4.662  15.705  23.409  0.00  0.00    -0.353 OA
HETATM   19  C   UNL     1       3.369  15.123  23.637  0.00  0.00     0.210 C 
ENDBRANCH  15  18
BRANCH  16  20
HETATM   20  O   UNL     1       7.013  15.394  25.203  0.00  0.00    -0.353 OA
HETATM   21  C   UNL     1       8.127  15.023  26.001  0.00  0.00     0.210 C 
ENDBRANCH  16  20
ENDBRANCH   1  12
BRANCH   8  22
HETATM   22  N   UNL     1      11.206   9.476  22.123  0.00  0.00    -0.286 NA
HETATM   23  H   UNL     1      11.417  10.172  21.410  0.00  0.00     0.125 HD
HETATM   24  H   UNL     1      11.368   8.531  21.793  0.00  0.00     0.125 HD
ENDBRANCH   8  22
BRANCH   3  25
HETATM   25  N   UNL     1       5.245  10.652  24.792  0.00  0.00    -0.301 NA
HETATM   26  H   UNL     1       5.076  11.500  24.244  0.00  0.00     0.124 HD
HETATM   27  H   UNL     1       4.326  10.326  25.106  0.00  0.00     0.124 HD
ENDBRANCH   3  25
BRANCH   4  28
HETATM   28  C   UNL     1       4.446   7.676  24.488  0.00  0.00     0.265 C 
HETATM   29  O   UNL     1       3.827   7.025  23.649  0.00  0.00    -0.267 OA
HETATM   30  N   UNL     1       4.028   7.839  25.800  0.00  0.00    -0.322 N 
HETATM   31  H   UNL     1       4.670   8.357  26.393  0.00  0.00     0.169 HD
BRANCH  30  32
HETATM   32  C   UNL     1       2.829   7.385  26.391  0.00  0.00     0.035 A 
HETATM   33  C   UNL     1       2.705   6.174  27.084  0.00  0.00     0.031 A 
HETATM   34  C   UNL     1       1.471   5.769  27.608  0.00  0.00     0.021 A 
HETATM   35  C   UNL     1       0.349   6.572  27.449  0.00  0.00     0.011 A 
HETATM   36 BR   UNL     1      -1.320   6.005  28.129  0.00  0.00    -0.051 Br
HETATM   37  C   UNL     1       0.454   7.790  26.778  0.00  0.00     0.021 A 
HETATM   38  C   UNL     1       1.690   8.189  26.253  0.00  0.00     0.031 A 
ENDBRANCH  30  32
ENDBRANCH   4  28
TORSDOF 7
ENDMDL
