MODEL 1
REMARK minimizedAffinity -7.77739334
REMARK minimizedRMSD -1
REMARK  4 active torsions:
REMARK  status: ('A' for Active; 'I' for Inactive)
REMARK    1  A    between atoms: O_1  and  C_2 
REMARK    2  A    between atoms: C_4  and  O_5 
REMARK    3  A    between atoms: C_6  and  C_9 
REMARK    4  A    between atoms: N_15  and  C_16 
ROOT
HETATM    1  C   UNL     1       0.192   8.640  26.373  0.00  0.00     0.172 A 
HETATM    2  N   UNL     1       0.064   8.063  27.542  0.00  0.00    -0.151 NA
HETATM    3  N   UNL     1      -0.648   8.942  28.298  0.00  0.00    -0.226 N 
HETATM    4  H   UNL     1      -1.029   8.698  29.201  0.00  0.00     0.194 HD
HETATM    5  C   UNL     1      -0.978  10.068  27.565  0.00  0.00     0.349 A 
HETATM    6  O   UNL     1      -1.712  10.966  27.956  0.00  0.00    -0.245 OA
HETATM    7  N   UNL     1      -0.388   9.888  26.324  0.00  0.00    -0.241 N 
ENDROOT
BRANCH   1   8
HETATM    8  C   UNL     1       0.958   8.006  25.260  0.00  0.00     0.045 A 
HETATM    9  C   UNL     1       0.329   7.116  24.367  0.00  0.00     0.082 A 
HETATM   10  C   UNL     1       1.014   6.589  23.267  0.00  0.00     0.074 A 
HETATM   11  C   UNL     1       2.341   6.943  23.061  0.00  0.00     0.068 A 
HETATM   12  C   UNL     1       3.010   7.743  23.975  0.00  0.00     0.037 A 
HETATM   13  C   UNL     1       2.329   8.247  25.088  0.00  0.00     0.021 A 
BRANCH   9  14
HETATM   14  O   UNL     1      -0.982   6.757  24.527  0.00  0.00    -0.360 OA
HETATM   15  H   UNL     1      -1.139   5.899  24.100  0.00  0.00     0.217 HD
ENDBRANCH   9  14
BRANCH  11  16
HETATM   16  O   UNL     1       3.025   6.522  21.961  0.00  0.00    -0.361 OA
HETATM   17  H   UNL     1       2.401   6.117  21.336  0.00  0.00     0.217 HD
ENDBRANCH  11  16
ENDBRANCH   1   8
BRANCH   7  18
HETATM   18  C   UNL     1      -0.646  10.782  25.266  0.00  0.00     0.084 A 
HETATM   19  C   UNL     1       0.348  11.570  24.681  0.00  0.00     0.143 A 
HETATM   20  F   UNL     1       1.619  11.494  25.107  0.00  0.00    -0.204 F 
HETATM   21  C   UNL     1       0.059  12.402  23.600  0.00  0.00     0.044 A 
HETATM   22  C   UNL     1      -1.240  12.461  23.091  0.00  0.00     0.003 A 
HETATM   23  C   UNL     1      -2.244  11.686  23.664  0.00  0.00     0.002 A 
HETATM   24  C   UNL     1      -1.949  10.844  24.738  0.00  0.00     0.033 A 
ENDBRANCH   7  18
TORSDOF 4
ENDMDL
MODEL 2
REMARK minimizedAffinity -7.56365395
REMARK minimizedRMSD -1
REMARK  4 active torsions:
REMARK  status: ('A' for Active; 'I' for Inactive)
REMARK    1  A    between atoms: O_1  and  C_2 
REMARK    2  A    between atoms: C_4  and  O_5 
REMARK    3  A    between atoms: C_6  and  C_9 
REMARK    4  A    between atoms: N_15  and  C_16 
ROOT
HETATM    1  C   UNL     1      -0.682  10.388  26.276  0.00  0.00     0.172 A 
HETATM    2  N   UNL     1      -1.351  10.875  27.291  0.00  0.00    -0.151 NA
HETATM    3  N   UNL     1      -1.333   9.894  28.234  0.00  0.00    -0.226 N 
HETATM    4  H   UNL     1      -1.643  10.047  29.184  0.00  0.00     0.194 HD
HETATM    5  C   UNL     1      -0.618   8.797  27.789  0.00  0.00     0.349 A 
HETATM    6  O   UNL     1      -0.342   7.819  28.472  0.00  0.00    -0.245 OA
HETATM    7  N   UNL     1      -0.235   9.104  26.494  0.00  0.00    -0.241 N 
ENDROOT
BRANCH   1   8
HETATM    8  C   UNL     1      -0.507  11.153  25.006  0.00  0.00     0.045 A 
HETATM    9  C   UNL     1      -1.615  11.476  24.200  0.00  0.00     0.082 A 
HETATM   10  C   UNL     1      -1.473  12.271  23.057  0.00  0.00     0.074 A 
HETATM   11  C   UNL     1      -0.214  12.738  22.709  0.00  0.00     0.068 A 
HETATM   12  C   UNL     1       0.907  12.359  23.433  0.00  0.00     0.037 A 
HETATM   13  C   UNL     1       0.765  11.543  24.559  0.00  0.00     0.021 A 
BRANCH   9  14
HETATM   14  O   UNL     1      -2.876  11.048  24.520  0.00  0.00    -0.360 OA
HETATM   15  H   UNL     1      -3.423  11.019  23.718  0.00  0.00     0.217 HD
ENDBRANCH   9  14
BRANCH  11  16
HETATM   16  O   UNL     1      -0.035  13.582  21.654  0.00  0.00    -0.361 OA
HETATM   17  H   UNL     1      -0.905  13.890  21.346  0.00  0.00     0.217 HD
ENDBRANCH  11  16
ENDBRANCH   1   8
BRANCH   7  18
HETATM   18  C   UNL     1       0.645   8.264  25.783  0.00  0.00     0.084 A 
HETATM   19  C   UNL     1       2.018   8.222  26.030  0.00  0.00     0.143 A 
HETATM   20  F   UNL     1       2.564   8.991  26.987  0.00  0.00    -0.204 F 
HETATM   21  C   UNL     1       2.845   7.336  25.340  0.00  0.00     0.044 A 
HETATM   22  C   UNL     1       2.303   6.478  24.381  0.00  0.00     0.003 A 
HETATM   23  C   UNL     1       0.936   6.509  24.118  0.00  0.00     0.002 A 
HETATM   24  C   UNL     1       0.110   7.388  24.820  0.00  0.00     0.033 A 
ENDBRANCH   7  18
TORSDOF 4
ENDMDL
MODEL 3
REMARK minimizedAffinity -7.29898548
REMARK minimizedRMSD -1
REMARK  4 active torsions:
REMARK  status: ('A' for Active; 'I' for Inactive)
REMARK    1  A    between atoms: O_1  and  C_2 
REMARK    2  A    between atoms: C_4  and  O_5 
REMARK    3  A    between atoms: C_6  and  C_9 
REMARK    4  A    between atoms: N_15  and  C_16 
ROOT
HETATM    1  C   UNL     1       0.117   8.487  26.350  0.00  0.00     0.172 A 
HETATM    2  N   UNL     1      -0.057   7.891  27.503  0.00  0.00    -0.151 NA
HETATM    3  N   UNL     1      -0.745   8.784  28.266  0.00  0.00    -0.226 N 
HETATM    4  H   UNL     1      -1.153   8.538  29.157  0.00  0.00     0.194 HD
HETATM    5  C   UNL     1      -1.014   9.937  27.551  0.00  0.00     0.349 A 
HETATM    6  O   UNL     1      -1.716  10.858  27.949  0.00  0.00    -0.245 OA
HETATM    7  N   UNL     1      -0.409   9.759  26.318  0.00  0.00    -0.241 N 
ENDROOT
BRANCH   1   8
HETATM    8  C   UNL     1       0.876   7.843  25.237  0.00  0.00     0.045 A 
HETATM    9  C   UNL     1       2.279   7.945  25.166  0.00  0.00     0.082 A 
HETATM   10  C   UNL     1       3.005   7.270  24.180  0.00  0.00     0.074 A 
HETATM   11  C   UNL     1       2.327   6.496  23.248  0.00  0.00     0.068 A 
HETATM   12  C   UNL     1       0.941   6.453  23.238  0.00  0.00     0.037 A 
HETATM   13  C   UNL     1       0.216   7.151  24.210  0.00  0.00     0.021 A 
BRANCH   9  14
HETATM   14  O   UNL     1       2.984   8.684  26.077  0.00  0.00    -0.360 OA
HETATM   15  H   UNL     1       3.832   8.957  25.689  0.00  0.00     0.217 HD
ENDBRANCH   9  14
BRANCH  11  16
HETATM   16  O   UNL     1       2.994   5.754  22.320  0.00  0.00    -0.361 OA
HETATM   17  H   UNL     1       3.941   5.747  22.543  0.00  0.00     0.217 HD
ENDBRANCH  11  16
ENDBRANCH   1   8
BRANCH   7  18
HETATM   18  C   UNL     1      -0.609  10.685  25.275  0.00  0.00     0.084 A 
HETATM   19  C   UNL     1       0.431  11.428  24.713  0.00  0.00     0.143 A 
HETATM   20  F   UNL     1       1.692  11.276  25.147  0.00  0.00    -0.204 F 
HETATM   21  C   UNL     1       0.197  12.295  23.645  0.00  0.00     0.044 A 
HETATM   22  C   UNL     1      -1.092  12.433  23.127  0.00  0.00     0.003 A 
HETATM   23  C   UNL     1      -2.142  11.702  23.677  0.00  0.00     0.002 A 
HETATM   24  C   UNL     1      -1.901  10.827  24.738  0.00  0.00     0.033 A 
ENDBRANCH   7  18
TORSDOF 4
ENDMDL
MODEL 4
REMARK minimizedAffinity -7.21596718
REMARK minimizedRMSD -1
REMARK  4 active torsions:
REMARK  status: ('A' for Active; 'I' for Inactive)
REMARK    1  A    between atoms: O_1  and  C_2 
REMARK    2  A    between atoms: C_4  and  O_5 
REMARK    3  A    between atoms: C_6  and  C_9 
REMARK    4  A    between atoms: N_15  and  C_16 
ROOT
HETATM    1  C   UNL     1      -0.873  10.428  26.196  0.00  0.00     0.172 A 
HETATM    2  N   UNL     1      -1.455  10.840  27.295  0.00  0.00    -0.151 NA
HETATM    3  N   UNL     1      -1.225   9.859  28.209  0.00  0.00    -0.226 N 
HETATM    4  H   UNL     1      -1.427   9.974  29.193  0.00  0.00     0.194 HD
HETATM    5  C   UNL     1      -0.468   8.840  27.659  0.00  0.00     0.349 A 
HETATM    6  O   UNL     1      -0.016   7.889  28.284  0.00  0.00    -0.245 OA
HETATM    7  N   UNL     1      -0.280   9.193  26.333  0.00  0.00    -0.241 N 
ENDROOT
BRANCH   1   8
HETATM    8  C   UNL     1      -0.932  11.216  24.929  0.00  0.00     0.045 A 
HETATM    9  C   UNL     1       0.230  11.802  24.390  0.00  0.00     0.082 A 
HETATM   10  C   UNL     1       0.201  12.464  23.157  0.00  0.00     0.074 A 
HETATM   11  C   UNL     1      -0.997  12.551  22.461  0.00  0.00     0.068 A 
HETATM   12  C   UNL     1      -2.172  12.063  23.013  0.00  0.00     0.037 A 
HETATM   13  C   UNL     1      -2.146  11.426  24.258  0.00  0.00     0.021 A 
BRANCH   9  14
HETATM   14  O   UNL     1       1.433  11.722  25.037  0.00  0.00    -0.360 OA
HETATM   15  H   UNL     1       2.003  12.457  24.757  0.00  0.00     0.217 HD
ENDBRANCH   9  14
BRANCH  11  16
HETATM   16  O   UNL     1      -1.059  13.111  21.221  0.00  0.00    -0.361 OA
HETATM   17  H   UNL     1      -0.155  13.256  20.895  0.00  0.00     0.217 HD
ENDBRANCH  11  16
ENDBRANCH   1   8
BRANCH   7  18
HETATM   18  C   UNL     1       0.581   8.448  25.503  0.00  0.00     0.084 A 
HETATM   19  C   UNL     1       1.969   8.447  25.658  0.00  0.00     0.143 A 
HETATM   20  F   UNL     1       2.547   9.163  26.635  0.00  0.00    -0.204 F 
HETATM   21  C   UNL     1       2.780   7.652  24.848  0.00  0.00     0.044 A 
HETATM   22  C   UNL     1       2.208   6.848  23.861  0.00  0.00     0.003 A 
HETATM   23  C   UNL     1       0.826   6.839  23.689  0.00  0.00     0.002 A 
HETATM   24  C   UNL     1       0.017   7.626  24.510  0.00  0.00     0.033 A 
ENDBRANCH   7  18
TORSDOF 4
ENDMDL
MODEL 5
REMARK minimizedAffinity -7.21041346
REMARK minimizedRMSD -1
REMARK  4 active torsions:
REMARK  status: ('A' for Active; 'I' for Inactive)
REMARK    1  A    between atoms: O_1  and  C_2 
REMARK    2  A    between atoms: C_4  and  O_5 
REMARK    3  A    between atoms: C_6  and  C_9 
REMARK    4  A    between atoms: N_15  and  C_16 
ROOT
HETATM    1  C   UNL     1      -1.425  10.707  24.449  0.00  0.00     0.172 A 
HETATM    2  N   UNL     1      -2.689  10.655  24.110  0.00  0.00    -0.151 NA
HETATM    3  N   UNL     1      -2.878  11.712  23.273  0.00  0.00    -0.226 N 
HETATM    4  H   UNL     1      -3.723  11.834  22.733  0.00  0.00     0.194 HD
HETATM    5  C   UNL     1      -1.696  12.406  23.083  0.00  0.00     0.349 A 
HETATM    6  O   UNL     1      -1.547  13.328  22.291  0.00  0.00    -0.245 OA
HETATM    7  N   UNL     1      -0.762  11.776  23.889  0.00  0.00    -0.241 N 
ENDROOT
BRANCH   1   8
HETATM    8  C   UNL     1      -0.824   9.730  25.404  0.00  0.00     0.045 A 
HETATM    9  C   UNL     1      -0.801   9.993  26.787  0.00  0.00     0.082 A 
HETATM   10  C   UNL     1      -0.323   9.044  27.698  0.00  0.00     0.074 A 
HETATM   11  C   UNL     1       0.146   7.827  27.225  0.00  0.00     0.068 A 
HETATM   12  C   UNL     1       0.220   7.578  25.862  0.00  0.00     0.037 A 
HETATM   13  C   UNL     1      -0.233   8.539  24.953  0.00  0.00     0.021 A 
BRANCH   9  14
HETATM   14  O   UNL     1      -1.270  11.175  27.293  0.00  0.00    -0.360 OA
HETATM   15  H   UNL     1      -0.852  11.351  28.152  0.00  0.00     0.217 HD
ENDBRANCH   9  14
BRANCH  11  16
HETATM   16  O   UNL     1       0.543   6.839  28.075  0.00  0.00    -0.361 OA
HETATM   17  H   UNL     1       0.287   7.082  28.981  0.00  0.00     0.217 HD
ENDBRANCH  11  16
ENDBRANCH   1   8
BRANCH   7  18
HETATM   18  C   UNL     1       0.600  12.133  23.830  0.00  0.00     0.084 A 
HETATM   19  C   UNL     1       1.054  13.431  24.068  0.00  0.00     0.143 A 
HETATM   20  F   UNL     1       0.190  14.410  24.383  0.00  0.00    -0.204 F 
HETATM   21  C   UNL     1       2.417  13.728  24.052  0.00  0.00     0.044 A 
HETATM   22  C   UNL     1       3.348  12.722  23.789  0.00  0.00     0.003 A 
HETATM   23  C   UNL     1       2.913  11.422  23.544  0.00  0.00     0.002 A 
HETATM   24  C   UNL     1       1.549  11.126  23.574  0.00  0.00     0.033 A 
ENDBRANCH   7  18
TORSDOF 4
ENDMDL
MODEL 6
REMARK minimizedAffinity -7.12934017
REMARK minimizedRMSD -1
REMARK  4 active torsions:
REMARK  status: ('A' for Active; 'I' for Inactive)
REMARK    1  A    between atoms: O_1  and  C_2 
REMARK    2  A    between atoms: C_4  and  O_5 
REMARK    3  A    between atoms: C_6  and  C_9 
REMARK    4  A    between atoms: N_15  and  C_16 
ROOT
HETATM    1  C   UNL     1      -0.811  10.537  25.997  0.00  0.00     0.172 A 
HETATM    2  N   UNL     1      -1.322  10.938  27.134  0.00  0.00    -0.151 NA
HETATM    3  N   UNL     1      -0.986   9.974  28.035  0.00  0.00    -0.226 N 
HETATM    4  H   UNL     1      -1.116  10.090  29.030  0.00  0.00     0.194 HD
HETATM    5  C   UNL     1      -0.235   8.979  27.434  0.00  0.00     0.349 A 
HETATM    6  O   UNL     1       0.298   8.051  28.029  0.00  0.00    -0.245 OA
HETATM    7  N   UNL     1      -0.163   9.326  26.095  0.00  0.00    -0.241 N 
ENDROOT
BRANCH   1   8
HETATM    8  C   UNL     1      -0.996  11.310  24.733  0.00  0.00     0.045 A 
HETATM    9  C   UNL     1       0.060  12.065  24.187  0.00  0.00     0.082 A 
HETATM   10  C   UNL     1      -0.076  12.718  22.957  0.00  0.00     0.074 A 
HETATM   11  C   UNL     1      -1.278  12.627  22.270  0.00  0.00     0.068 A 
HETATM   12  C   UNL     1      -2.364  11.967  22.828  0.00  0.00     0.037 A 
HETATM   13  C   UNL     1      -2.233  11.339  24.071  0.00  0.00     0.021 A 
BRANCH   9  14
HETATM   14  O   UNL     1       1.267  12.164  24.826  0.00  0.00    -0.360 OA
HETATM   15  H   UNL     1       1.718  12.977  24.545  0.00  0.00     0.217 HD
ENDBRANCH   9  14
BRANCH  11  16
HETATM   16  O   UNL     1      -1.433  13.174  21.032  0.00  0.00    -0.361 OA
HETATM   17  H   UNL     1      -0.563  13.454  20.700  0.00  0.00     0.217 HD
ENDBRANCH  11  16
ENDBRANCH   1   8
BRANCH   7  18
HETATM   18  C   UNL     1       0.659   8.606  25.206  0.00  0.00     0.084 A 
HETATM   19  C   UNL     1       0.260   7.410  24.605  0.00  0.00     0.143 A 
HETATM   20  F   UNL     1      -0.955   6.895  24.849  0.00  0.00    -0.204 F 
HETATM   21  C   UNL     1       1.086   6.758  23.689  0.00  0.00     0.044 A 
HETATM   22  C   UNL     1       2.332   7.296  23.366  0.00  0.00     0.003 A 
HETATM   23  C   UNL     1       2.749   8.486  23.958  0.00  0.00     0.002 A 
HETATM   24  C   UNL     1       1.914   9.142  24.865  0.00  0.00     0.033 A 
ENDBRANCH   7  18
TORSDOF 4
ENDMDL
MODEL 7
REMARK minimizedAffinity -7.00116014
REMARK minimizedRMSD -1
REMARK  4 active torsions:
REMARK  status: ('A' for Active; 'I' for Inactive)
REMARK    1  A    between atoms: O_1  and  C_2 
REMARK    2  A    between atoms: C_4  and  O_5 
REMARK    3  A    between atoms: C_6  and  C_9 
REMARK    4  A    between atoms: N_15  and  C_16 
ROOT
HETATM    1  C   UNL     1      -1.599  11.041  24.359  0.00  0.00     0.172 A 
HETATM    2  N   UNL     1      -2.823  10.953  23.901  0.00  0.00    -0.151 NA
HETATM    3  N   UNL     1      -2.889  11.854  22.884  0.00  0.00    -0.226 N 
HETATM    4  H   UNL     1      -3.670  11.897  22.244  0.00  0.00     0.194 HD
HETATM    5  C   UNL     1      -1.671  12.486  22.706  0.00  0.00     0.349 A 
HETATM    6  O   UNL     1      -1.410  13.256  21.791  0.00  0.00    -0.245 OA
HETATM    7  N   UNL     1      -0.846  11.987  23.701  0.00  0.00    -0.241 N 
ENDROOT
BRANCH   1   8
HETATM    8  C   UNL     1      -1.132  10.231  25.523  0.00  0.00     0.045 A 
HETATM    9  C   UNL     1      -0.476   9.001  25.329  0.00  0.00     0.082 A 
HETATM   10  C   UNL     1       0.047   8.280  26.409  0.00  0.00     0.074 A 
HETATM   11  C   UNL     1      -0.097   8.784  27.694  0.00  0.00     0.068 A 
HETATM   12  C   UNL     1      -0.820   9.946  27.921  0.00  0.00     0.037 A 
HETATM   13  C   UNL     1      -1.364  10.650  26.842  0.00  0.00     0.021 A 
BRANCH   9  14
HETATM   14  O   UNL     1      -0.299   8.480  24.076  0.00  0.00    -0.360 OA
HETATM   15  H   UNL     1      -0.192   7.516  24.136  0.00  0.00     0.217 HD
ENDBRANCH   9  14
BRANCH  11  16
HETATM   16  O   UNL     1       0.464   8.162  28.768  0.00  0.00    -0.361 OA
HETATM   17  H   UNL     1       1.067   7.469  28.451  0.00  0.00     0.217 HD
ENDBRANCH  11  16
ENDBRANCH   1   8
BRANCH   7  18
HETATM   18  C   UNL     1       0.527  12.305  23.727  0.00  0.00     0.084 A 
HETATM   19  C   UNL     1       1.001  13.591  23.992  0.00  0.00     0.143 A 
HETATM   20  F   UNL     1       0.148  14.594  24.250  0.00  0.00    -0.204 F 
HETATM   21  C   UNL     1       2.370  13.850  24.062  0.00  0.00     0.044 A 
HETATM   22  C   UNL     1       3.287  12.817  23.859  0.00  0.00     0.003 A 
HETATM   23  C   UNL     1       2.832  11.529  23.589  0.00  0.00     0.002 A 
HETATM   24  C   UNL     1       1.461  11.271  23.533  0.00  0.00     0.033 A 
ENDBRANCH   7  18
TORSDOF 4
ENDMDL
MODEL 8
REMARK minimizedAffinity -6.84869289
REMARK minimizedRMSD -1
REMARK  4 active torsions:
REMARK  status: ('A' for Active; 'I' for Inactive)
REMARK    1  A    between atoms: O_1  and  C_2 
REMARK    2  A    between atoms: C_4  and  O_5 
REMARK    3  A    between atoms: C_6  and  C_9 
REMARK    4  A    between atoms: N_15  and  C_16 
ROOT
HETATM    1  C   UNL     1      -1.626  10.899  24.506  0.00  0.00     0.172 A 
HETATM    2  N   UNL     1      -2.835  10.719  24.034  0.00  0.00    -0.151 NA
HETATM    3  N   UNL     1      -2.974  11.645  23.047  0.00  0.00    -0.226 N 
HETATM    4  H   UNL     1      -3.752  11.640  22.402  0.00  0.00     0.194 HD
HETATM    5  C   UNL     1      -1.816  12.388  22.901  0.00  0.00     0.349 A 
HETATM    6  O   UNL     1      -1.619  13.209  22.015  0.00  0.00    -0.245 OA
HETATM    7  N   UNL     1      -0.956  11.930  23.886  0.00  0.00    -0.241 N 
ENDROOT
BRANCH   1   8
HETATM    8  C   UNL     1      -1.096  10.094  25.646  0.00  0.00     0.045 A 
HETATM    9  C   UNL     1      -0.546   8.815  25.432  0.00  0.00     0.082 A 
HETATM   10  C   UNL     1       0.036   8.093  26.480  0.00  0.00     0.074 A 
HETATM   11  C   UNL     1       0.059   8.644  27.753  0.00  0.00     0.068 A 
HETATM   12  C   UNL     1      -0.557   9.860  28.009  0.00  0.00     0.037 A 
HETATM   13  C   UNL     1      -1.162  10.568  26.965  0.00  0.00     0.021 A 
BRANCH   9  14
HETATM   14  O   UNL     1      -0.535   8.245  24.188  0.00  0.00    -0.360 OA
HETATM   15  H   UNL     1      -0.487   7.279  24.272  0.00  0.00     0.217 HD
ENDBRANCH   9  14
BRANCH  11  16
HETATM   16  O   UNL     1       0.686   8.017  28.788  0.00  0.00    -0.361 OA
HETATM   17  H   UNL     1       1.206   7.274  28.437  0.00  0.00     0.217 HD
ENDBRANCH  11  16
ENDBRANCH   1   8
BRANCH   7  18
HETATM   18  C   UNL     1       0.383  12.367  23.936  0.00  0.00     0.084 A 
HETATM   19  C   UNL     1       1.468  11.505  23.762  0.00  0.00     0.143 A 
HETATM   20  F   UNL     1       1.271  10.199  23.522  0.00  0.00    -0.204 F 
HETATM   21  C   UNL     1       2.775  11.990  23.765  0.00  0.00     0.044 A 
HETATM   22  C   UNL     1       3.015  13.353  23.950  0.00  0.00     0.003 A 
HETATM   23  C   UNL     1       1.946  14.226  24.129  0.00  0.00     0.002 A 
HETATM   24  C   UNL     1       0.638  13.739  24.113  0.00  0.00     0.033 A 
ENDBRANCH   7  18
TORSDOF 4
ENDMDL
MODEL 9
REMARK minimizedAffinity -6.66210175
REMARK minimizedRMSD -1
REMARK  4 active torsions:
REMARK  status: ('A' for Active; 'I' for Inactive)
REMARK    1  A    between atoms: O_1  and  C_2 
REMARK    2  A    between atoms: C_4  and  O_5 
REMARK    3  A    between atoms: C_6  and  C_9 
REMARK    4  A    between atoms: N_15  and  C_16 
ROOT
HETATM    1  C   UNL     1       2.375   8.727  24.041  0.00  0.00     0.172 A 
HETATM    2  N   UNL     1       2.972   8.233  22.985  0.00  0.00    -0.151 NA
HETATM    3  N   UNL     1       3.241   6.937  23.301  0.00  0.00    -0.226 N 
HETATM    4  H   UNL     1       3.562   6.266  22.618  0.00  0.00     0.194 HD
HETATM    5  C   UNL     1       2.776   6.633  24.568  0.00  0.00     0.349 A 
HETATM    6  O   UNL     1       2.778   5.513  25.063  0.00  0.00    -0.245 OA
HETATM    7  N   UNL     1       2.254   7.816  25.065  0.00  0.00    -0.241 N 
ENDROOT
BRANCH   1   8
HETATM    8  C   UNL     1       1.949  10.157  24.109  0.00  0.00     0.045 A 
HETATM    9  C   UNL     1       2.823  11.189  23.719  0.00  0.00     0.082 A 
HETATM   10  C   UNL     1       2.403  12.524  23.692  0.00  0.00     0.074 A 
HETATM   11  C   UNL     1       1.103  12.833  24.070  0.00  0.00     0.068 A 
HETATM   12  C   UNL     1       0.252  11.847  24.547  0.00  0.00     0.037 A 
HETATM   13  C   UNL     1       0.684  10.518  24.597  0.00  0.00     0.021 A 
BRANCH   9  14
HETATM   14  O   UNL     1       4.106  10.923  23.323  0.00  0.00    -0.360 OA
HETATM   15  H   UNL     1       4.659  11.710  23.457  0.00  0.00     0.217 HD
ENDBRANCH   9  14
BRANCH  11  16
HETATM   16  O   UNL     1       0.621  14.104  23.983  0.00  0.00    -0.361 OA
HETATM   17  H   UNL     1       1.256  14.649  23.488  0.00  0.00     0.217 HD
ENDBRANCH  11  16
ENDBRANCH   1   8
BRANCH   7  18
HETATM   18  C   UNL     1       1.554   7.838  26.288  0.00  0.00     0.084 A 
HETATM   19  C   UNL     1       0.193   7.540  26.387  0.00  0.00     0.143 A 
HETATM   20  F   UNL     1      -0.513   7.201  25.297  0.00  0.00    -0.204 F 
HETATM   21  C   UNL     1      -0.448   7.521  27.625  0.00  0.00     0.044 A 
HETATM   22  C   UNL     1       0.269   7.809  28.788  0.00  0.00     0.003 A 
HETATM   23  C   UNL     1       1.625   8.113  28.708  0.00  0.00     0.002 A 
HETATM   24  C   UNL     1       2.267   8.118  27.468  0.00  0.00     0.033 A 
ENDBRANCH   7  18
TORSDOF 4
ENDMDL
