REMARK  4 active torsions:
REMARK  status: ('A' for Active; 'I' for Inactive)
REMARK    1  A    between atoms: O_1  and  C_2 
REMARK    2  A    between atoms: C_4  and  O_5 
REMARK    3  A    between atoms: C_6  and  C_9 
REMARK    4  A    between atoms: N_15  and  C_16 
ROOT
HETATM    1  C   UNL     1       6.589   0.008  -0.507  0.00  0.00     0.172 A 
HETATM    2  N   UNL     1       7.334   1.085  -0.493  0.00  0.00    -0.151 NA
HETATM    3  N   UNL     1       8.589   0.654  -0.796  0.00  0.00    -0.226 N 
HETATM    4  H   UNL     1       9.346   1.289  -1.007  0.00  0.00     0.194 HD
HETATM    5  C   UNL     1       8.600  -0.711  -1.021  0.00  0.00     0.349 A 
HETATM    6  O   UNL     1       9.567  -1.345  -1.423  0.00  0.00    -0.245 OA
HETATM    7  N   UNL     1       7.303  -1.136  -0.785  0.00  0.00    -0.241 N 
ENDROOT
BRANCH   1   8
HETATM    8  C   UNL     1       5.133   0.052  -0.179  0.00  0.00     0.045 A 
HETATM    9  C   UNL     1       4.373   1.212  -0.424  0.00  0.00     0.082 A 
HETATM   10  C   UNL     1       2.991   1.232  -0.206  0.00  0.00     0.074 A 
HETATM   11  C   UNL     1       2.363   0.090   0.271  0.00  0.00     0.068 A 
HETATM   12  C   UNL     1       3.101  -1.035   0.608  0.00  0.00     0.037 A 
HETATM   13  C   UNL     1       4.486  -1.043   0.414  0.00  0.00     0.021 A 
BRANCH   9  14
HETATM   14  O   UNL     1       4.953   2.352  -0.911  0.00  0.00    -0.360 OA
HETATM   15  H   UNL     1       4.413   3.122  -0.668  0.00  0.00     0.217 HD
ENDBRANCH   9  14
BRANCH  11  16
HETATM   16  O   UNL     1       1.010   0.033   0.421  0.00  0.00    -0.361 OA
HETATM   17  H   UNL     1       0.613   0.814  -0.000  0.00  0.00     0.217 HD
ENDBRANCH  11  16
ENDBRANCH   1   8
BRANCH   7  18
HETATM   18  C   UNL     1       6.915  -2.461  -1.067  0.00  0.00     0.084 A 
HETATM   19  C   UNL     1       5.839  -2.774  -1.900  0.00  0.00     0.143 A 
HETATM   20  F   UNL     1       5.124  -1.801  -2.487  0.00  0.00    -0.204 F 
HETATM   21  C   UNL     1       5.523  -4.100  -2.195  0.00  0.00     0.044 A 
HETATM   22  C   UNL     1       6.283  -5.137  -1.651  0.00  0.00     0.003 A 
HETATM   23  C   UNL     1       7.357  -4.844  -0.815  0.00  0.00     0.002 A 
HETATM   24  C   UNL     1       7.678  -3.515  -0.532  0.00  0.00     0.033 A 
ENDBRANCH   7  18
TORSDOF 4
