MODEL 1
REMARK VINA RESULT:    -7.941      0.000      0.000
REMARK INTER + INTRA:         -10.304
REMARK INTER:                  -9.251
REMARK INTRA:                  -1.053
REMARK UNBOUND:                -0.970
REMARK  4 active torsions:
REMARK  status: ('A' for Active; 'I' for Inactive)
REMARK    1  A    between atoms: O_1  and  C_2 
REMARK    2  A    between atoms: C_4  and  O_5 
REMARK    3  A    between atoms: C_6  and  C_9 
REMARK    4  A    between atoms: N_15  and  C_16 
ROOT
HETATM    1  C   UNL     1       5.466   7.751  19.152  0.00  0.00     0.172 A 
HETATM    2  N   UNL     1       6.412   8.559  18.748  0.00  0.00    -0.151 NA
HETATM    3  N   UNL     1       7.448   8.356  19.608  0.00  0.00    -0.226 N 
HETATM    4  H   UNL     1       8.372   8.734  19.443  0.00  0.00     0.194 HD
HETATM    5  C   UNL     1       7.147   7.350  20.516  0.00  0.00     0.349 A 
HETATM    6  O   UNL     1       7.948   6.829  21.273  0.00  0.00    -0.245 OA
HETATM    7  N   UNL     1       5.819   7.029  20.275  0.00  0.00    -0.243 N 
ENDROOT
BRANCH   1   8
HETATM    8  C   UNL     1       4.149   7.659  18.448  0.00  0.00     0.045 C 
HETATM    9  C   UNL     1       3.905   6.629  17.519  0.00  0.00     0.082 C 
HETATM   10  C   UNL     1       2.638   6.444  16.954  0.00  0.00     0.074 C 
HETATM   11  C   UNL     1       1.601   7.287  17.323  0.00  0.00     0.068 C 
HETATM   12  C   UNL     1       1.833   8.362  18.169  0.00  0.00     0.037 C 
HETATM   13  C   UNL     1       3.113   8.573  18.691  0.00  0.00     0.021 C 
BRANCH   9  14
HETATM   14  O   UNL     1       4.886   5.744  17.166  0.00  0.00    -0.360 OA
HETATM   15  H   UNL     1       5.080   5.834  16.219  0.00  0.00     0.217 HD
ENDBRANCH   9  14
BRANCH  11  16
HETATM   16  O   UNL     1       0.328   7.091  16.877  0.00  0.00    -0.361 OA
HETATM   17  H   UNL     1       0.301   7.239  15.918  0.00  0.00     0.217 HD
ENDBRANCH  11  16
ENDBRANCH   1   8
BRANCH   7  18
HETATM   18  C   UNL     1       5.135   6.034  21.006  0.00  0.00     0.067 A 
HETATM   19  C   UNL     1       4.251   6.372  22.054  0.00  0.00     0.061 A 
HETATM   20 CL   UNL     1       3.914   8.007  22.517  0.00  0.00    -0.082 Cl
HETATM   21  C   UNL     1       3.480   5.383  22.677  0.00  0.00     0.026 A 
HETATM   22  C   UNL     1       3.576   4.055  22.270  0.00  0.00     0.002 A 
HETATM   23  C   UNL     1       4.473   3.702  21.266  0.00  0.00     0.002 A 
HETATM   24  C   UNL     1       5.262   4.681  20.652  0.00  0.00     0.032 A 
ENDBRANCH   7  18
TORSDOF 4
ENDMDL
MODEL 2
REMARK VINA RESULT:    -7.459      1.183      1.598
REMARK INTER + INTRA:          -9.737
REMARK INTER:                  -8.650
REMARK INTRA:                  -1.087
REMARK UNBOUND:                -0.970
REMARK  4 active torsions:
REMARK  status: ('A' for Active; 'I' for Inactive)
REMARK    1  A    between atoms: O_1  and  C_2 
REMARK    2  A    between atoms: C_4  and  O_5 
REMARK    3  A    between atoms: C_6  and  C_9 
REMARK    4  A    between atoms: N_15  and  C_16 
ROOT
HETATM    1  C   UNL     1       5.257   7.645  19.182  0.00  0.00     0.172 A 
HETATM    2  N   UNL     1       6.289   8.260  18.666  0.00  0.00    -0.151 NA
HETATM    3  N   UNL     1       7.291   8.104  19.575  0.00  0.00    -0.226 N 
HETATM    4  H   UNL     1       8.252   8.344  19.369  0.00  0.00     0.194 HD
HETATM    5  C   UNL     1       6.874   7.316  20.638  0.00  0.00     0.349 A 
HETATM    6  O   UNL     1       7.607   6.856  21.496  0.00  0.00    -0.245 OA
HETATM    7  N   UNL     1       5.520   7.103  20.424  0.00  0.00    -0.243 N 
ENDROOT
BRANCH   1   8
HETATM    8  C   UNL     1       3.942   7.572  18.471  0.00  0.00     0.045 C 
HETATM    9  C   UNL     1       3.703   6.570  17.510  0.00  0.00     0.082 C 
HETATM   10  C   UNL     1       2.439   6.399  16.936  0.00  0.00     0.074 C 
HETATM   11  C   UNL     1       1.398   7.229  17.327  0.00  0.00     0.068 C 
HETATM   12  C   UNL     1       1.625   8.278  18.205  0.00  0.00     0.037 C 
HETATM   13  C   UNL     1       2.903   8.476  18.738  0.00  0.00     0.021 C 
BRANCH   9  14
HETATM   14  O   UNL     1       4.688   5.698  17.134  0.00  0.00    -0.360 OA
HETATM   15  H   UNL     1       5.208   6.087  16.412  0.00  0.00     0.217 HD
ENDBRANCH   9  14
BRANCH  11  16
HETATM   16  O   UNL     1       0.128   7.043  16.872  0.00  0.00    -0.361 OA
HETATM   17  H   UNL     1      -0.461   7.687  17.298  0.00  0.00     0.217 HD
ENDBRANCH  11  16
ENDBRANCH   1   8
BRANCH   7  18
HETATM   18  C   UNL     1       4.725   6.335  21.302  0.00  0.00     0.067 A 
HETATM   19  C   UNL     1       4.594   4.939  21.140  0.00  0.00     0.061 A 
HETATM   20 CL   UNL     1       5.398   4.051  19.888  0.00  0.00    -0.082 Cl
HETATM   21  C   UNL     1       3.913   4.176  22.097  0.00  0.00     0.026 A 
HETATM   22  C   UNL     1       3.358   4.785  23.219  0.00  0.00     0.002 A 
HETATM   23  C   UNL     1       3.444   6.166  23.369  0.00  0.00     0.002 A 
HETATM   24  C   UNL     1       4.104   6.939  22.408  0.00  0.00     0.032 A 
ENDBRANCH   7  18
TORSDOF 4
ENDMDL
MODEL 3
REMARK VINA RESULT:    -6.898      7.380      8.581
REMARK INTER + INTRA:          -9.078
REMARK INTER:                  -8.132
REMARK INTRA:                  -0.946
REMARK UNBOUND:                -0.970
REMARK  4 active torsions:
REMARK  status: ('A' for Active; 'I' for Inactive)
REMARK    1  A    between atoms: O_1  and  C_2 
REMARK    2  A    between atoms: C_4  and  O_5 
REMARK    3  A    between atoms: C_6  and  C_9 
REMARK    4  A    between atoms: N_15  and  C_16 
ROOT
HETATM    1  C   UNL     1      -0.684  10.856  26.204  0.00  0.00     0.172 A 
HETATM    2  N   UNL     1      -1.407  11.290  27.205  0.00  0.00    -0.151 NA
HETATM    3  N   UNL     1      -1.044  10.521  28.269  0.00  0.00    -0.226 N 
HETATM    4  H   UNL     1      -1.329  10.737  29.215  0.00  0.00     0.194 HD
HETATM    5  C   UNL     1      -0.027   9.644  27.920  0.00  0.00     0.349 A 
HETATM    6  O   UNL     1       0.620   8.976  28.708  0.00  0.00    -0.245 OA
HETATM    7  N   UNL     1       0.135   9.800  26.551  0.00  0.00    -0.243 N 
ENDROOT
BRANCH   1   8
HETATM    8  C   UNL     1      -0.776  11.463  24.839  0.00  0.00     0.045 C 
HETATM    9  C   UNL     1      -1.860  11.160  23.993  0.00  0.00     0.082 C 
HETATM   10  C   UNL     1      -2.037  11.820  22.772  0.00  0.00     0.074 C 
HETATM   11  C   UNL     1      -1.129  12.798  22.392  0.00  0.00     0.068 C 
HETATM   12  C   UNL     1      -0.006  13.055  23.163  0.00  0.00     0.037 C 
HETATM   13  C   UNL     1       0.193  12.356  24.358  0.00  0.00     0.021 C 
BRANCH   9  14
HETATM   14  O   UNL     1      -2.806  10.240  24.353  0.00  0.00    -0.360 OA
HETATM   15  H   UNL     1      -2.959   9.625  23.617  0.00  0.00     0.217 HD
ENDBRANCH   9  14
BRANCH  11  16
HETATM   16  O   UNL     1      -1.308  13.536  21.261  0.00  0.00    -0.361 OA
HETATM   17  H   UNL     1      -1.381  12.938  20.498  0.00  0.00     0.217 HD
ENDBRANCH  11  16
ENDBRANCH   1   8
BRANCH   7  18
HETATM   18  C   UNL     1       1.090   9.069  25.812  0.00  0.00     0.067 A 
HETATM   19  C   UNL     1       0.833   7.748  25.387  0.00  0.00     0.061 A 
HETATM   20 CL   UNL     1      -0.657   6.924  25.706  0.00  0.00    -0.082 Cl
HETATM   21  C   UNL     1       1.734   7.088  24.542  0.00  0.00     0.026 A 
HETATM   22  C   UNL     1       2.893   7.728  24.111  0.00  0.00     0.002 A 
HETATM   23  C   UNL     1       3.178   9.016  24.556  0.00  0.00     0.002 A 
HETATM   24  C   UNL     1       2.294   9.675  25.417  0.00  0.00     0.032 A 
ENDBRANCH   7  18
TORSDOF 4
ENDMDL
MODEL 4
REMARK VINA RESULT:    -6.698      2.165      2.976
REMARK INTER + INTRA:          -8.842
REMARK INTER:                  -7.723
REMARK INTRA:                  -1.119
REMARK UNBOUND:                -0.970
REMARK  4 active torsions:
REMARK  status: ('A' for Active; 'I' for Inactive)
REMARK    1  A    between atoms: O_1  and  C_2 
REMARK    2  A    between atoms: C_4  and  O_5 
REMARK    3  A    between atoms: C_6  and  C_9 
REMARK    4  A    between atoms: N_15  and  C_16 
ROOT
HETATM    1  C   UNL     1       4.373   6.431  20.213  0.00  0.00     0.172 A 
HETATM    2  N   UNL     1       5.448   6.049  19.572  0.00  0.00    -0.151 NA
HETATM    3  N   UNL     1       6.432   6.016  20.512  0.00  0.00    -0.226 N 
HETATM    4  H   UNL     1       7.339   5.604  20.334  0.00  0.00     0.194 HD
HETATM    5  C   UNL     1       5.927   6.321  21.768  0.00  0.00     0.349 A 
HETATM    6  O   UNL     1       6.532   6.184  22.818  0.00  0.00    -0.245 OA
HETATM    7  N   UNL     1       4.605   6.686  21.550  0.00  0.00    -0.243 N 
ENDROOT
BRANCH   1   8
HETATM    8  C   UNL     1       3.051   6.576  19.526  0.00  0.00     0.045 C 
HETATM    9  C   UNL     1       2.793   7.687  18.699  0.00  0.00     0.082 C 
HETATM   10  C   UNL     1       1.620   7.772  17.941  0.00  0.00     0.074 C 
HETATM   11  C   UNL     1       0.697   6.738  18.000  0.00  0.00     0.068 C 
HETATM   12  C   UNL     1       0.884   5.675  18.871  0.00  0.00     0.037 C 
HETATM   13  C   UNL     1       2.035   5.620  19.664  0.00  0.00     0.021 C 
BRANCH   9  14
HETATM   14  O   UNL     1       3.699   8.703  18.572  0.00  0.00    -0.360 OA
HETATM   15  H   UNL     1       4.131   8.647  17.704  0.00  0.00     0.217 HD
ENDBRANCH   9  14
BRANCH  11  16
HETATM   16  O   UNL     1      -0.413   6.727  17.210  0.00  0.00    -0.361 OA
HETATM   17  H   UNL     1      -0.598   7.631  16.908  0.00  0.00     0.217 HD
ENDBRANCH  11  16
ENDBRANCH   1   8
BRANCH   7  18
HETATM   18  C   UNL     1       3.742   7.071  22.598  0.00  0.00     0.067 A 
HETATM   19  C   UNL     1       2.975   6.117  23.302  0.00  0.00     0.061 A 
HETATM   20 CL   UNL     1       3.037   4.419  22.969  0.00  0.00    -0.082 Cl
HETATM   21  C   UNL     1       2.229   6.499  24.424  0.00  0.00     0.026 A 
HETATM   22  C   UNL     1       2.234   7.822  24.858  0.00  0.00     0.002 A 
HETATM   23  C   UNL     1       2.953   8.779  24.148  0.00  0.00     0.002 A 
HETATM   24  C   UNL     1       3.685   8.411  23.014  0.00  0.00     0.032 A 
ENDBRANCH   7  18
TORSDOF 4
ENDMDL
MODEL 5
REMARK VINA RESULT:    -6.690      2.446      4.776
REMARK INTER + INTRA:          -8.834
REMARK INTER:                  -8.074
REMARK INTRA:                  -0.760
REMARK UNBOUND:                -0.970
REMARK  4 active torsions:
REMARK  status: ('A' for Active; 'I' for Inactive)
REMARK    1  A    between atoms: O_1  and  C_2 
REMARK    2  A    between atoms: C_4  and  O_5 
REMARK    3  A    between atoms: C_6  and  C_9 
REMARK    4  A    between atoms: N_15  and  C_16 
ROOT
HETATM    1  C   UNL     1       5.732   6.582  20.659  0.00  0.00     0.172 A 
HETATM    2  N   UNL     1       6.937   6.808  21.117  0.00  0.00    -0.151 NA
HETATM    3  N   UNL     1       7.466   7.746  20.284  0.00  0.00    -0.226 N 
HETATM    4  H   UNL     1       8.333   8.227  20.490  0.00  0.00     0.194 HD
HETATM    5  C   UNL     1       6.535   8.149  19.338  0.00  0.00     0.349 A 
HETATM    6  O   UNL     1       6.665   9.104  18.591  0.00  0.00    -0.245 OA
HETATM    7  N   UNL     1       5.441   7.316  19.526  0.00  0.00    -0.243 N 
ENDROOT
BRANCH   1   8
HETATM    8  C   UNL     1       4.804   5.611  21.318  0.00  0.00     0.045 C 
HETATM    9  C   UNL     1       3.655   6.066  21.994  0.00  0.00     0.082 C 
HETATM   10  C   UNL     1       2.704   5.171  22.497  0.00  0.00     0.074 C 
HETATM   11  C   UNL     1       2.894   3.809  22.319  0.00  0.00     0.068 C 
HETATM   12  C   UNL     1       4.056   3.329  21.734  0.00  0.00     0.037 C 
HETATM   13  C   UNL     1       5.028   4.227  21.278  0.00  0.00     0.021 C 
BRANCH   9  14
HETATM   14  O   UNL     1       3.404   7.402  22.148  0.00  0.00    -0.360 OA
HETATM   15  H   UNL     1       4.093   7.801  22.704  0.00  0.00     0.217 HD
ENDBRANCH   9  14
BRANCH  11  16
HETATM   16  O   UNL     1       1.953   2.901  22.703  0.00  0.00    -0.361 OA
HETATM   17  H   UNL     1       2.375   2.034  22.818  0.00  0.00     0.217 HD
ENDBRANCH  11  16
ENDBRANCH   1   8
BRANCH   7  18
HETATM   18  C   UNL     1       4.270   7.413  18.744  0.00  0.00     0.067 A 
HETATM   19  C   UNL     1       3.846   6.345  17.925  0.00  0.00     0.061 A 
HETATM   20 CL   UNL     1       4.692   4.837  17.821  0.00  0.00    -0.082 Cl
HETATM   21  C   UNL     1       2.613   6.407  17.263  0.00  0.00     0.026 A 
HETATM   22  C   UNL     1       1.792   7.523  17.405  0.00  0.00     0.002 A 
HETATM   23  C   UNL     1       2.218   8.600  18.177  0.00  0.00     0.002 A 
HETATM   24  C   UNL     1       3.456   8.555  18.825  0.00  0.00     0.032 A 
ENDBRANCH   7  18
TORSDOF 4
ENDMDL
MODEL 6
REMARK VINA RESULT:    -6.633      7.505      8.705
REMARK INTER + INTRA:          -8.766
REMARK INTER:                  -7.772
REMARK INTRA:                  -0.994
REMARK UNBOUND:                -0.970
REMARK  4 active torsions:
REMARK  status: ('A' for Active; 'I' for Inactive)
REMARK    1  A    between atoms: O_1  and  C_2 
REMARK    2  A    between atoms: C_4  and  O_5 
REMARK    3  A    between atoms: C_6  and  C_9 
REMARK    4  A    between atoms: N_15  and  C_16 
ROOT
HETATM    1  C   UNL     1      -0.914  11.054  26.144  0.00  0.00     0.172 A 
HETATM    2  N   UNL     1      -1.344  11.723  27.183  0.00  0.00    -0.151 NA
HETATM    3  N   UNL     1      -0.958  10.991  28.265  0.00  0.00    -0.226 N 
HETATM    4  H   UNL     1      -1.019  11.346  29.210  0.00  0.00     0.194 HD
HETATM    5  C   UNL     1      -0.216   9.885  27.873  0.00  0.00     0.349 A 
HETATM    6  O   UNL     1       0.414   9.164  28.627  0.00  0.00    -0.245 OA
HETATM    7  N   UNL     1      -0.275   9.879  26.487  0.00  0.00    -0.243 N 
ENDROOT
BRANCH   1   8
HETATM    8  C   UNL     1      -1.126  11.543  24.745  0.00  0.00     0.045 C 
HETATM    9  C   UNL     1      -2.405  11.499  24.158  0.00  0.00     0.082 C 
HETATM   10  C   UNL     1      -2.652  12.075  22.907  0.00  0.00     0.074 C 
HETATM   11  C   UNL     1      -1.616  12.709  22.236  0.00  0.00     0.068 C 
HETATM   12  C   UNL     1      -0.328  12.692  22.750  0.00  0.00     0.037 C 
HETATM   13  C   UNL     1      -0.077  12.070  23.978  0.00  0.00     0.021 C 
BRANCH   9  14
HETATM   14  O   UNL     1      -3.465  10.928  24.808  0.00  0.00    -0.360 OA
HETATM   15  H   UNL     1      -3.420   9.963  24.718  0.00  0.00     0.217 HD
ENDBRANCH   9  14
BRANCH  11  16
HETATM   16  O   UNL     1      -1.825  13.369  21.062  0.00  0.00    -0.361 OA
HETATM   17  H   UNL     1      -2.444  14.102  21.215  0.00  0.00     0.217 HD
ENDBRANCH  11  16
ENDBRANCH   1   8
BRANCH   7  18
HETATM   18  C   UNL     1       0.366   8.895  25.704  0.00  0.00     0.067 A 
HETATM   19  C   UNL     1       1.658   9.106  25.176  0.00  0.00     0.061 A 
HETATM   20 CL   UNL     1       2.568  10.554  25.451  0.00  0.00    -0.082 Cl
HETATM   21  C   UNL     1       2.332   8.070  24.518  0.00  0.00     0.026 A 
HETATM   22  C   UNL     1       1.736   6.819  24.378  0.00  0.00     0.002 A 
HETATM   23  C   UNL     1       0.446   6.610  24.858  0.00  0.00     0.002 A 
HETATM   24  C   UNL     1      -0.243   7.646  25.498  0.00  0.00     0.032 A 
ENDBRANCH   7  18
TORSDOF 4
ENDMDL
MODEL 7
REMARK VINA RESULT:    -6.372      2.924      4.882
REMARK INTER + INTRA:          -8.460
REMARK INTER:                  -7.531
REMARK INTRA:                  -0.929
REMARK UNBOUND:                -0.970
REMARK  4 active torsions:
REMARK  status: ('A' for Active; 'I' for Inactive)
REMARK    1  A    between atoms: O_1  and  C_2 
REMARK    2  A    between atoms: C_4  and  O_5 
REMARK    3  A    between atoms: C_6  and  C_9 
REMARK    4  A    between atoms: N_15  and  C_16 
ROOT
HETATM    1  C   UNL     1       4.701   6.998  20.947  0.00  0.00     0.172 A 
HETATM    2  N   UNL     1       5.974   7.277  20.827  0.00  0.00    -0.151 NA
HETATM    3  N   UNL     1       6.283   6.989  19.533  0.00  0.00    -0.226 N 
HETATM    4  H   UNL     1       7.165   7.255  19.114  0.00  0.00     0.194 HD
HETATM    5  C   UNL     1       5.154   6.591  18.831  0.00  0.00     0.349 A 
HETATM    6  O   UNL     1       5.094   6.456  17.621  0.00  0.00    -0.245 OA
HETATM    7  N   UNL     1       4.146   6.505  19.782  0.00  0.00    -0.243 N 
ENDROOT
BRANCH   1   8
HETATM    8  C   UNL     1       3.964   7.198  22.234  0.00  0.00     0.045 C 
HETATM    9  C   UNL     1       3.716   8.496  22.722  0.00  0.00     0.082 C 
HETATM   10  C   UNL     1       2.912   8.708  23.847  0.00  0.00     0.074 C 
HETATM   11  C   UNL     1       2.343   7.619  24.490  0.00  0.00     0.068 C 
HETATM   12  C   UNL     1       2.640   6.326  24.084  0.00  0.00     0.037 C 
HETATM   13  C   UNL     1       3.485   6.118  22.989  0.00  0.00     0.021 C 
BRANCH   9  14
HETATM   14  O   UNL     1       4.216   9.600  22.088  0.00  0.00    -0.360 OA
HETATM   15  H   UNL     1       3.738  10.391  22.388  0.00  0.00     0.217 HD
ENDBRANCH   9  14
BRANCH  11  16
HETATM   16  O   UNL     1       1.476   7.777  25.529  0.00  0.00    -0.361 OA
HETATM   17  H   UNL     1       1.931   8.232  26.257  0.00  0.00     0.217 HD
ENDBRANCH  11  16
ENDBRANCH   1   8
BRANCH   7  18
HETATM   18  C   UNL     1       2.827   6.125  19.456  0.00  0.00     0.067 A 
HETATM   19  C   UNL     1       1.967   6.995  18.753  0.00  0.00     0.061 A 
HETATM   20 CL   UNL     1       2.446   8.571  18.215  0.00  0.00    -0.082 Cl
HETATM   21  C   UNL     1       0.710   6.552  18.321  0.00  0.00     0.026 A 
HETATM   22  C   UNL     1       0.295   5.248  18.580  0.00  0.00     0.002 A 
HETATM   23  C   UNL     1       1.118   4.393  19.308  0.00  0.00     0.002 A 
HETATM   24  C   UNL     1       2.366   4.834  19.761  0.00  0.00     0.032 A 
ENDBRANCH   7  18
TORSDOF 4
ENDMDL
MODEL 8
REMARK VINA RESULT:    -6.241      8.131      9.425
REMARK INTER + INTRA:          -8.306
REMARK INTER:                  -7.336
REMARK INTRA:                  -0.970
REMARK UNBOUND:                -0.970
REMARK  4 active torsions:
REMARK  status: ('A' for Active; 'I' for Inactive)
REMARK    1  A    between atoms: O_1  and  C_2 
REMARK    2  A    between atoms: C_4  and  O_5 
REMARK    3  A    between atoms: C_6  and  C_9 
REMARK    4  A    between atoms: N_15  and  C_16 
ROOT
HETATM    1  C   UNL     1      -0.044   6.647  27.118  0.00  0.00     0.172 A 
HETATM    2  N   UNL     1      -0.650   5.596  26.629  0.00  0.00    -0.151 NA
HETATM    3  N   UNL     1      -0.106   4.532  27.283  0.00  0.00    -0.226 N 
HETATM    4  H   UNL     1      -0.495   3.600  27.220  0.00  0.00     0.194 HD
HETATM    5  C   UNL     1       0.804   4.955  28.242  0.00  0.00     0.349 A 
HETATM    6  O   UNL     1       1.297   4.243  29.100  0.00  0.00    -0.245 OA
HETATM    7  N   UNL     1       0.912   6.327  28.061  0.00  0.00    -0.243 N 
ENDROOT
BRANCH   1   8
HETATM    8  C   UNL     1      -0.375   8.034  26.664  0.00  0.00     0.045 C 
HETATM    9  C   UNL     1      -0.262   8.389  25.306  0.00  0.00     0.082 C 
HETATM   10  C   UNL     1      -0.696   9.635  24.840  0.00  0.00     0.074 C 
HETATM   11  C   UNL     1      -1.257  10.535  25.735  0.00  0.00     0.068 C 
HETATM   12  C   UNL     1      -1.301  10.248  27.091  0.00  0.00     0.037 C 
HETATM   13  C   UNL     1      -0.818   9.020  27.558  0.00  0.00     0.021 C 
BRANCH   9  14
HETATM   14  O   UNL     1       0.237   7.512  24.382  0.00  0.00    -0.360 OA
HETATM   15  H   UNL     1       1.038   7.091  24.733  0.00  0.00     0.217 HD
ENDBRANCH   9  14
BRANCH  11  16
HETATM   16  O   UNL     1      -1.783  11.721  25.318  0.00  0.00    -0.361 OA
HETATM   17  H   UNL     1      -2.382  11.559  24.571  0.00  0.00     0.217 HD
ENDBRANCH  11  16
ENDBRANCH   1   8
BRANCH   7  18
HETATM   18  C   UNL     1       1.754   7.132  28.857  0.00  0.00     0.067 A 
HETATM   19  C   UNL     1       3.077   7.426  28.459  0.00  0.00     0.061 A 
HETATM   20 CL   UNL     1       3.768   6.855  26.977  0.00  0.00    -0.082 Cl
HETATM   21  C   UNL     1       3.851   8.335  29.191  0.00  0.00     0.026 A 
HETATM   22  C   UNL     1       3.326   8.959  30.320  0.00  0.00     0.002 A 
HETATM   23  C   UNL     1       2.038   8.647  30.746  0.00  0.00     0.002 A 
HETATM   24  C   UNL     1       1.265   7.725  30.032  0.00  0.00     0.032 A 
ENDBRANCH   7  18
TORSDOF 4
ENDMDL
