REMARK  7 active torsions:
REMARK  status: ('A' for Active; 'I' for Inactive)
REMARK    1  A    between atoms: O_2  and  C_3 
REMARK    2  A    between atoms: C_6  and  C_7 
REMARK    3  A    between atoms: C_9  and  N_10 
REMARK    4  A    between atoms: C_11  and  C_12 
REMARK       I    between atoms: C_12  and  N_14 
REMARK    5  A    between atoms: N_14  and  C_15 
REMARK    6  A    between atoms: C_25  and  N_26 
REMARK    7  A    between atoms: C_31  and  O_32 
ROOT
HETATM    1  C   UNL     1       5.245  -4.768   0.724  0.00  0.00     0.013 C 
HETATM    2  C   UNL     1       6.669  -4.612   0.553  0.00  0.00     0.035 C 
HETATM    3  C   UNL     1       7.574  -3.500   0.292  0.00  0.00     0.043 C 
HETATM    4  C   UNL     1       8.903  -3.806   0.543  0.00  0.00     0.097 C 
HETATM    5  S   UNL     1       9.095  -5.490   0.788  0.00  0.00    -0.062 SA
HETATM    6  C   UNL     1       7.427  -5.773   0.684  0.00  0.00     0.113 C 
HETATM    7  N   UNL     1       6.980  -7.036   0.790  0.00  0.00    -0.227 NA
HETATM    8  C   UNL     1       5.657  -7.179   0.861  0.00  0.00     0.123 C 
HETATM    9  C   UNL     1       4.771  -6.104   0.905  0.00  0.00     0.096 C 
HETATM   10  C   UNL     1       3.395  -6.403   1.187  0.00  0.00     0.103 C 
HETATM   11  N   UNL     1       2.270  -6.654   1.370  0.00  0.00    -0.191 NA
ENDROOT
BRANCH   1  12
HETATM   12  C   UNL     1       4.357  -3.585   0.898  0.00  0.00    -0.021 C 
HETATM   13  C   UNL     1       3.044  -3.550   0.415  0.00  0.00     0.015 C 
HETATM   14  C   UNL     1       2.145  -2.570   0.846  0.00  0.00     0.040 C 
HETATM   15  C   UNL     1       2.555  -1.540   1.703  0.00  0.00     0.101 C 
HETATM   16  C   UNL     1       3.909  -1.416   2.001  0.00  0.00     0.102 C 
HETATM   17  C   UNL     1       4.758  -2.483   1.674  0.00  0.00     0.052 C 
BRANCH  15  18
HETATM   18  O   UNL     1       1.637  -0.711   2.291  0.00  0.00    -0.353 OA
HETATM   19  C   UNL     1       0.481  -1.414   2.773  0.00  0.00     0.210 C 
ENDBRANCH  15  18
BRANCH  16  20
HETATM   20  O   UNL     1       4.573  -0.421   2.659  0.00  0.00    -0.353 OA
HETATM   21  C   UNL     1       3.954   0.850   2.796  0.00  0.00     0.210 C 
ENDBRANCH  16  20
ENDBRANCH   1  12
BRANCH   8  22
HETATM   22  N   UNL     1       5.230  -8.504   0.992  0.00  0.00    -0.286 NA
HETATM   23  H   UNL     1       6.037  -9.114   0.878  0.00  0.00     0.125 HD
HETATM   24  H   UNL     1       4.469  -8.759   0.373  0.00  0.00     0.125 HD
ENDBRANCH   8  22
BRANCH   3  25
HETATM   25  N   UNL     1       7.176  -2.254  -0.103  0.00  0.00    -0.301 NA
HETATM   26  H   UNL     1       6.213  -2.162  -0.439  0.00  0.00     0.124 HD
HETATM   27  H   UNL     1       7.315  -1.501   0.578  0.00  0.00     0.124 HD
ENDBRANCH   3  25
BRANCH   4  28
HETATM   28  C   UNL     1      10.104  -2.970   0.602  0.00  0.00     0.265 C 
HETATM   29  O   UNL     1      11.106  -3.316   1.224  0.00  0.00    -0.267 OA
HETATM   30  N   UNL     1       9.997  -1.767  -0.080  0.00  0.00    -0.322 N 
HETATM   31  H   UNL     1       9.130  -1.642  -0.595  0.00  0.00     0.169 HD
BRANCH  30  32
HETATM   32  C   UNL     1      10.934  -0.712  -0.130  0.00  0.00     0.035 A 
HETATM   33  C   UNL     1      12.161  -0.719   0.545  0.00  0.00     0.031 A 
HETATM   34  C   UNL     1      13.022   0.384   0.482  0.00  0.00     0.021 A 
HETATM   35  C   UNL     1      12.668   1.504  -0.259  0.00  0.00     0.011 A 
HETATM   36 BR   UNL     1      13.818   3.001  -0.313  0.00  0.00    -0.051 Br
HETATM   37  C   UNL     1      11.458   1.525  -0.953  0.00  0.00     0.021 A 
HETATM   38  C   UNL     1      10.599   0.420  -0.885  0.00  0.00     0.031 A 
ENDBRANCH  30  32
ENDBRANCH   4  28
TORSDOF 7
