MODEL 1
REMARK VINA RESULT:    -8.156      0.000      0.000
REMARK INTER + INTRA:         -12.999
REMARK INTER:                 -11.466
REMARK INTRA:                  -1.533
REMARK UNBOUND:                -1.982
REMARK  7 active torsions:
REMARK  status: ('A' for Active; 'I' for Inactive)
REMARK    1  A    between atoms: C_7  and  N_8 
REMARK    2  A    between atoms: C_14  and  C_15 
REMARK    3  A    between atoms: C_16  and  O_17 
REMARK    4  A    between atoms: C_19  and  O_20 
REMARK    5  A    between atoms: C_22  and  C_23 
REMARK       I    between atoms: C_23  and  N_25 
REMARK    6  A    between atoms: N_25  and  C_27 
REMARK    7  A    between atoms: C_27  and  C_28 
ROOT
HETATM    1  C   UNL     1       9.364  11.585  24.618  0.00  0.00     0.046 C 
HETATM    2  C   UNL     1      10.454  10.857  24.083  0.00  0.00     0.082 C 
HETATM    3  C   UNL     1      10.270   9.740  23.275  0.00  0.00     0.075 C 
HETATM    4  C   UNL     1       8.988   9.343  22.921  0.00  0.00     0.084 C 
HETATM    5  C   UNL     1       8.061  11.154  24.257  0.00  0.00     0.038 C 
HETATM    6  C   UNL     1       7.870  10.096  23.312  0.00  0.00     0.066 C 
ENDROOT
BRANCH   1   7
HETATM    7  C   UNL     1       9.724  12.787  25.460  0.00  0.00     0.172 A 
HETATM    8  N   UNL     1       9.108  14.012  25.539  0.00  0.00    -0.244 N 
HETATM    9  C   UNL     1       9.873  14.758  26.433  0.00  0.00     0.349 A 
HETATM   10  O   UNL     1       9.800  15.942  26.741  0.00  0.00    -0.245 OA
HETATM   11  N   UNL     1      10.872  13.908  26.866  0.00  0.00    -0.226 N 
HETATM   12  H   UNL     1      11.672  14.195  27.412  0.00  0.00     0.194 HD
HETATM   13  N   UNL     1      10.780  12.709  26.246  0.00  0.00    -0.151 NA
BRANCH   8  14
HETATM   14  C   UNL     1       8.110  14.649  24.777  0.00  0.00     0.051 A 
HETATM   15  C   UNL     1       8.317  15.144  23.477  0.00  0.00    -0.035 A 
HETATM   16  C   UNL     1       9.675  15.216  22.835  0.00  0.00     0.050 C 
HETATM   17  C   UNL     1       7.252  15.794  22.829  0.00  0.00     0.009 A 
HETATM   18  C   UNL     1       6.036  16.033  23.474  0.00  0.00     0.001 A 
HETATM   19  C   UNL     1       5.869  15.620  24.790  0.00  0.00     0.002 A 
HETATM   20  C   UNL     1       6.892  14.943  25.432  0.00  0.00     0.031 A 
ENDBRANCH   8  14
ENDBRANCH   1   7
BRANCH   2  21
HETATM   21  O   UNL     1      11.775  11.179  24.274  0.00  0.00    -0.360 OA
HETATM   22  H   UNL     1      12.231  10.400  24.662  0.00  0.00     0.217 HD
ENDBRANCH   2  21
BRANCH   6  23
HETATM   23  C   UNL     1       6.504   9.845  22.695  0.00  0.00     0.256 C 
HETATM   24  O   UNL     1       5.930   8.795  23.006  0.00  0.00    -0.267 OA
HETATM   25  N   UNL     1       5.890  10.817  21.847  0.00  0.00    -0.350 N 
HETATM   26  C   UNL     1       6.538  12.069  21.482  0.00  0.00     0.153 C 
BRANCH  25  27
HETATM   27  C   UNL     1       4.693  10.452  21.019  0.00  0.00     0.157 C 
BRANCH  27  28
HETATM   28  C   UNL     1       4.961  10.223  19.493  0.00  0.00     0.139 C 
HETATM   29  O   UNL     1       4.271   9.052  18.994  0.00  0.00    -0.384 OA
HETATM   30  C   UNL     1       4.312   9.113  17.567  0.00  0.00     0.168 C 
HETATM   31  C   UNL     1       4.274  10.583  17.213  0.00  0.00     0.029 C 
HETATM   32  C   UNL     1       4.464  11.307  18.542  0.00  0.00     0.035 C 
ENDBRANCH  27  28
ENDBRANCH  25  27
ENDBRANCH   6  23
BRANCH   4  33
HETATM   33  O   UNL     1       8.854   8.220  22.153  0.00  0.00    -0.360 OA
HETATM   34  H   UNL     1       8.574   7.477  22.716  0.00  0.00     0.217 HD
ENDBRANCH   4  33
TORSDOF 7
ENDMDL
MODEL 2
REMARK VINA RESULT:    -8.082      2.518      4.564
REMARK INTER + INTRA:         -12.899
REMARK INTER:                 -11.518
REMARK INTRA:                  -1.381
REMARK UNBOUND:                -1.982
REMARK  7 active torsions:
REMARK  status: ('A' for Active; 'I' for Inactive)
REMARK    1  A    between atoms: C_7  and  N_8 
REMARK    2  A    between atoms: C_14  and  C_15 
REMARK    3  A    between atoms: C_16  and  O_17 
REMARK    4  A    between atoms: C_19  and  O_20 
REMARK    5  A    between atoms: C_22  and  C_23 
REMARK       I    between atoms: C_23  and  N_25 
REMARK    6  A    between atoms: N_25  and  C_27 
REMARK    7  A    between atoms: C_27  and  C_28 
ROOT
HETATM    1  C   UNL     1       6.903  14.104  22.147  0.00  0.00     0.046 C 
HETATM    2  C   UNL     1       5.845  14.765  22.816  0.00  0.00     0.082 C 
HETATM    3  C   UNL     1       4.548  14.264  22.823  0.00  0.00     0.075 C 
HETATM    4  C   UNL     1       4.270  13.049  22.210  0.00  0.00     0.084 C 
HETATM    5  C   UNL     1       6.595  12.871  21.514  0.00  0.00     0.038 C 
HETATM    6  C   UNL     1       5.298  12.281  21.642  0.00  0.00     0.066 C 
ENDROOT
BRANCH   1   7
HETATM    7  C   UNL     1       8.260  14.761  22.248  0.00  0.00     0.172 A 
HETATM    8  N   UNL     1       9.491  14.190  22.459  0.00  0.00    -0.244 N 
HETATM    9  C   UNL     1      10.392  15.251  22.505  0.00  0.00     0.349 A 
HETATM   10  O   UNL     1      11.585  15.266  22.787  0.00  0.00    -0.245 OA
HETATM   11  N   UNL     1       9.641  16.386  22.271  0.00  0.00    -0.226 N 
HETATM   12  H   UNL     1       9.981  17.332  22.382  0.00  0.00     0.194 HD
HETATM   13  N   UNL     1       8.331  16.072  22.135  0.00  0.00    -0.151 NA
BRANCH   8  14
HETATM   14  C   UNL     1       9.913  12.902  22.840  0.00  0.00     0.051 A 
HETATM   15  C   UNL     1      10.424  11.950  21.940  0.00  0.00    -0.035 A 
HETATM   16  C   UNL     1      10.396  12.136  20.448  0.00  0.00     0.050 C 
HETATM   17  C   UNL     1      10.781  10.682  22.433  0.00  0.00     0.009 A 
HETATM   18  C   UNL     1      10.561  10.325  23.766  0.00  0.00     0.001 A 
HETATM   19  C   UNL     1       9.973  11.241  24.630  0.00  0.00     0.002 A 
HETATM   20  C   UNL     1       9.651  12.508  24.172  0.00  0.00     0.031 A 
ENDBRANCH   8  14
ENDBRANCH   1   7
BRANCH   2  21
HETATM   21  O   UNL     1       5.983  15.927  23.534  0.00  0.00    -0.360 OA
HETATM   22  H   UNL     1       6.159  15.693  24.473  0.00  0.00     0.217 HD
ENDBRANCH   2  21
BRANCH   6  23
HETATM   23  C   UNL     1       5.059  10.835  21.236  0.00  0.00     0.256 C 
HETATM   24  O   UNL     1       4.272  10.178  21.928  0.00  0.00    -0.267 OA
HETATM   25  N   UNL     1       5.671  10.290  20.066  0.00  0.00    -0.350 N 
HETATM   26  C   UNL     1       6.586  11.049  19.226  0.00  0.00     0.153 C 
BRANCH  25  27
HETATM   27  C   UNL     1       5.668   8.808  19.831  0.00  0.00     0.157 C 
BRANCH  27  28
HETATM   28  C   UNL     1       4.790   8.307  18.634  0.00  0.00     0.139 C 
HETATM   29  O   UNL     1       3.771   9.271  18.273  0.00  0.00    -0.384 OA
HETATM   30  C   UNL     1       3.251   8.880  17.001  0.00  0.00     0.168 C 
HETATM   31  C   UNL     1       4.406   8.246  16.257  0.00  0.00     0.029 C 
HETATM   32  C   UNL     1       5.506   8.097  17.303  0.00  0.00     0.035 C 
ENDBRANCH  27  28
ENDBRANCH  25  27
ENDBRANCH   6  23
BRANCH   4  33
HETATM   33  O   UNL     1       2.974  12.612  22.213  0.00  0.00    -0.360 OA
HETATM   34  H   UNL     1       2.952  11.674  21.953  0.00  0.00     0.217 HD
ENDBRANCH   4  33
TORSDOF 7
ENDMDL
MODEL 3
REMARK VINA RESULT:    -7.950      2.551      5.947
REMARK INTER + INTRA:         -12.721
REMARK INTER:                 -10.927
REMARK INTRA:                  -1.794
REMARK UNBOUND:                -1.982
REMARK  7 active torsions:
REMARK  status: ('A' for Active; 'I' for Inactive)
REMARK    1  A    between atoms: C_7  and  N_8 
REMARK    2  A    between atoms: C_14  and  C_15 
REMARK    3  A    between atoms: C_16  and  O_17 
REMARK    4  A    between atoms: C_19  and  O_20 
REMARK    5  A    between atoms: C_22  and  C_23 
REMARK       I    between atoms: C_23  and  N_25 
REMARK    6  A    between atoms: N_25  and  C_27 
REMARK    7  A    between atoms: C_27  and  C_28 
ROOT
HETATM    1  C   UNL     1       7.262   9.829  23.688  0.00  0.00     0.046 C 
HETATM    2  C   UNL     1       7.884   8.563  23.804  0.00  0.00     0.082 C 
HETATM    3  C   UNL     1       9.267   8.423  23.860  0.00  0.00     0.075 C 
HETATM    4  C   UNL     1      10.079   9.549  23.863  0.00  0.00     0.084 C 
HETATM    5  C   UNL     1       8.110  10.967  23.679  0.00  0.00     0.038 C 
HETATM    6  C   UNL     1       9.520  10.836  23.882  0.00  0.00     0.066 C 
ENDROOT
BRANCH   1   7
HETATM    7  C   UNL     1       5.750   9.820  23.661  0.00  0.00     0.172 A 
HETATM    8  N   UNL     1       4.876  10.866  23.493  0.00  0.00    -0.244 N 
HETATM    9  C   UNL     1       3.603  10.308  23.592  0.00  0.00     0.349 A 
HETATM   10  O   UNL     1       2.503  10.845  23.629  0.00  0.00    -0.245 OA
HETATM   11  N   UNL     1       3.805   8.952  23.766  0.00  0.00    -0.226 N 
HETATM   12  H   UNL     1       3.081   8.292  24.012  0.00  0.00     0.194 HD
HETATM   13  N   UNL     1       5.127   8.671  23.826  0.00  0.00    -0.151 NA
BRANCH   8  14
HETATM   14  C   UNL     1       5.022  12.266  23.492  0.00  0.00     0.051 A 
HETATM   15  C   UNL     1       5.338  13.016  22.345  0.00  0.00    -0.035 A 
HETATM   16  C   UNL     1       5.740  12.386  21.040  0.00  0.00     0.050 C 
HETATM   17  C   UNL     1       5.494  14.408  22.474  0.00  0.00     0.009 A 
HETATM   18  C   UNL     1       5.428  15.041  23.718  0.00  0.00     0.001 A 
HETATM   19  C   UNL     1       5.204  14.281  24.860  0.00  0.00     0.002 A 
HETATM   20  C   UNL     1       5.009  12.915  24.748  0.00  0.00     0.031 A 
ENDBRANCH   8  14
ENDBRANCH   1   7
BRANCH   2  21
HETATM   21  O   UNL     1       7.212   7.370  23.897  0.00  0.00    -0.360 OA
HETATM   22  H   UNL     1       7.412   6.838  23.095  0.00  0.00     0.217 HD
ENDBRANCH   2  21
BRANCH   6  23
HETATM   23  C   UNL     1      10.378  12.056  24.181  0.00  0.00     0.256 C 
HETATM   24  O   UNL     1      10.493  12.386  25.367  0.00  0.00    -0.267 OA
HETATM   25  N   UNL     1      11.070  12.741  23.136  0.00  0.00    -0.350 N 
HETATM   26  C   UNL     1      10.965  12.359  21.735  0.00  0.00     0.153 C 
BRANCH  25  27
HETATM   27  C   UNL     1      11.671  14.093  23.386  0.00  0.00     0.157 C 
BRANCH  27  28
HETATM   28  C   UNL     1      10.739  15.319  23.096  0.00  0.00     0.139 C 
HETATM   29  O   UNL     1      11.020  15.916  21.806  0.00  0.00    -0.384 OA
HETATM   30  C   UNL     1       9.933  16.792  21.501  0.00  0.00     0.168 C 
HETATM   31  C   UNL     1       8.705  16.164  22.122  0.00  0.00     0.029 C 
HETATM   32  C   UNL     1       9.245  15.030  22.988  0.00  0.00     0.035 C 
ENDBRANCH  27  28
ENDBRANCH  25  27
ENDBRANCH   6  23
BRANCH   4  33
HETATM   33  O   UNL     1      11.434   9.362  23.886  0.00  0.00    -0.360 OA
HETATM   34  H   UNL     1      11.878  10.226  23.815  0.00  0.00     0.217 HD
ENDBRANCH   4  33
TORSDOF 7
ENDMDL
MODEL 4
REMARK VINA RESULT:    -7.915      2.366      4.059
REMARK INTER + INTRA:         -12.673
REMARK INTER:                 -11.441
REMARK INTRA:                  -1.232
REMARK UNBOUND:                -1.982
REMARK  7 active torsions:
REMARK  status: ('A' for Active; 'I' for Inactive)
REMARK    1  A    between atoms: C_7  and  N_8 
REMARK    2  A    between atoms: C_14  and  C_15 
REMARK    3  A    between atoms: C_16  and  O_17 
REMARK    4  A    between atoms: C_19  and  O_20 
REMARK    5  A    between atoms: C_22  and  C_23 
REMARK       I    between atoms: C_23  and  N_25 
REMARK    6  A    between atoms: N_25  and  C_27 
REMARK    7  A    between atoms: C_27  and  C_28 
ROOT
HETATM    1  C   UNL     1       7.507  11.542  21.198  0.00  0.00     0.046 C 
HETATM    2  C   UNL     1       7.341  10.439  22.068  0.00  0.00     0.082 C 
HETATM    3  C   UNL     1       6.269   9.561  21.951  0.00  0.00     0.075 C 
HETATM    4  C   UNL     1       5.353   9.717  20.919  0.00  0.00     0.084 C 
HETATM    5  C   UNL     1       6.552  11.693  20.158  0.00  0.00     0.038 C 
HETATM    6  C   UNL     1       5.533  10.712  19.946  0.00  0.00     0.066 C 
ENDROOT
BRANCH   1   7
HETATM    7  C   UNL     1       8.733  12.393  21.438  0.00  0.00     0.172 A 
HETATM    8  N   UNL     1       8.923  13.414  22.336  0.00  0.00    -0.244 N 
HETATM    9  C   UNL     1      10.217  13.877  22.108  0.00  0.00     0.349 A 
HETATM   10  O   UNL     1      10.804  14.847  22.571  0.00  0.00    -0.245 OA
HETATM   11  N   UNL     1      10.731  13.066  21.114  0.00  0.00    -0.226 N 
HETATM   12  H   UNL     1      11.600  13.237  20.627  0.00  0.00     0.194 HD
HETATM   13  N   UNL     1       9.803  12.173  20.699  0.00  0.00    -0.151 NA
BRANCH   8  14
HETATM   14  C   UNL     1       8.060  14.147  23.171  0.00  0.00     0.051 A 
HETATM   15  C   UNL     1       7.959  13.948  24.560  0.00  0.00    -0.035 A 
HETATM   16  C   UNL     1       8.622  12.801  25.271  0.00  0.00     0.050 C 
HETATM   17  C   UNL     1       7.034  14.718  25.285  0.00  0.00     0.009 A 
HETATM   18  C   UNL     1       6.161  15.607  24.650  0.00  0.00     0.001 A 
HETATM   19  C   UNL     1       6.205  15.734  23.267  0.00  0.00     0.002 A 
HETATM   20  C   UNL     1       7.137  15.013  22.540  0.00  0.00     0.031 A 
ENDBRANCH   8  14
ENDBRANCH   1   7
BRANCH   2  21
HETATM   21  O   UNL     1       8.208  10.106  23.080  0.00  0.00    -0.360 OA
HETATM   22  H   UNL     1       8.609  10.933  23.429  0.00  0.00     0.217 HD
ENDBRANCH   2  21
BRANCH   6  23
HETATM   23  C   UNL     1       4.715  10.708  18.664  0.00  0.00     0.256 C 
HETATM   24  O   UNL     1       3.857  11.590  18.540  0.00  0.00    -0.267 OA
HETATM   25  N   UNL     1       4.981   9.763  17.626  0.00  0.00    -0.350 N 
HETATM   26  C   UNL     1       5.997   8.728  17.741  0.00  0.00     0.153 C 
BRANCH  25  27
HETATM   27  C   UNL     1       4.001   9.575  16.505  0.00  0.00     0.157 C 
BRANCH  27  28
HETATM   28  C   UNL     1       3.226   8.214  16.496  0.00  0.00     0.139 C 
HETATM   29  O   UNL     1       3.985   7.165  15.847  0.00  0.00    -0.384 OA
HETATM   30  C   UNL     1       3.355   5.925  16.170  0.00  0.00     0.168 C 
HETATM   31  C   UNL     1       2.783   6.099  17.561  0.00  0.00     0.029 C 
HETATM   32  C   UNL     1       2.930   7.588  17.856  0.00  0.00     0.035 C 
ENDBRANCH  27  28
ENDBRANCH  25  27
ENDBRANCH   6  23
BRANCH   4  33
HETATM   33  O   UNL     1       4.297   8.851  20.863  0.00  0.00    -0.360 OA
HETATM   34  H   UNL     1       4.535   8.024  21.320  0.00  0.00     0.217 HD
ENDBRANCH   4  33
TORSDOF 7
ENDMDL
MODEL 5
REMARK VINA RESULT:    -7.878      2.494      4.506
REMARK INTER + INTRA:         -12.623
REMARK INTER:                 -10.464
REMARK INTRA:                  -2.159
REMARK UNBOUND:                -1.982
REMARK  7 active torsions:
REMARK  status: ('A' for Active; 'I' for Inactive)
REMARK    1  A    between atoms: C_7  and  N_8 
REMARK    2  A    between atoms: C_14  and  C_15 
REMARK    3  A    between atoms: C_16  and  O_17 
REMARK    4  A    between atoms: C_19  and  O_20 
REMARK    5  A    between atoms: C_22  and  C_23 
REMARK       I    between atoms: C_23  and  N_25 
REMARK    6  A    between atoms: N_25  and  C_27 
REMARK    7  A    between atoms: C_27  and  C_28 
ROOT
HETATM    1  C   UNL     1       7.674  10.276  22.927  0.00  0.00     0.046 C 
HETATM    2  C   UNL     1       7.721   9.037  22.245  0.00  0.00     0.082 C 
HETATM    3  C   UNL     1       6.599   8.487  21.634  0.00  0.00     0.075 C 
HETATM    4  C   UNL     1       5.399   9.185  21.631  0.00  0.00     0.084 C 
HETATM    5  C   UNL     1       6.434  10.967  22.925  0.00  0.00     0.038 C 
HETATM    6  C   UNL     1       5.318  10.476  22.177  0.00  0.00     0.066 C 
ENDROOT
BRANCH   1   7
HETATM    7  C   UNL     1       8.980  10.752  23.520  0.00  0.00     0.172 A 
HETATM    8  N   UNL     1       9.435  12.033  23.712  0.00  0.00    -0.244 N 
HETATM    9  C   UNL     1      10.711  11.900  24.253  0.00  0.00     0.349 A 
HETATM   10  O   UNL     1      11.565  12.747  24.487  0.00  0.00    -0.245 OA
HETATM   11  N   UNL     1      10.915  10.541  24.393  0.00  0.00    -0.226 N 
HETATM   12  H   UNL     1      11.802  10.115  24.626  0.00  0.00     0.194 HD
HETATM   13  N   UNL     1       9.853   9.848  23.920  0.00  0.00    -0.151 NA
BRANCH   8  14
HETATM   14  C   UNL     1       8.993  13.297  23.278  0.00  0.00     0.051 A 
HETATM   15  C   UNL     1       8.165  14.139  24.041  0.00  0.00    -0.035 A 
HETATM   16  C   UNL     1       7.508  13.700  25.320  0.00  0.00     0.050 C 
HETATM   17  C   UNL     1       7.758  15.365  23.485  0.00  0.00     0.009 A 
HETATM   18  C   UNL     1       8.085  15.721  22.174  0.00  0.00     0.001 A 
HETATM   19  C   UNL     1       8.829  14.844  21.394  0.00  0.00     0.002 A 
HETATM   20  C   UNL     1       9.272  13.650  21.937  0.00  0.00     0.031 A 
ENDBRANCH   8  14
ENDBRANCH   1   7
BRANCH   2  21
HETATM   21  O   UNL     1       8.852   8.274  22.091  0.00  0.00    -0.360 OA
HETATM   22  H   UNL     1       8.637   7.513  21.508  0.00  0.00     0.217 HD
ENDBRANCH   2  21
BRANCH   6  23
HETATM   23  C   UNL     1       4.107  11.358  21.921  0.00  0.00     0.256 C 
HETATM   24  O   UNL     1       3.987  11.836  20.787  0.00  0.00    -0.267 OA
HETATM   25  N   UNL     1       3.119  11.562  22.934  0.00  0.00    -0.350 N 
HETATM   26  C   UNL     1       3.228  10.994  24.269  0.00  0.00     0.153 C 
BRANCH  25  27
HETATM   27  C   UNL     1       2.093  12.646  22.782  0.00  0.00     0.157 C 
BRANCH  27  28
HETATM   28  C   UNL     1       2.487  14.047  23.363  0.00  0.00     0.139 C 
HETATM   29  O   UNL     1       2.376  14.083  24.806  0.00  0.00    -0.384 OA
HETATM   30  C   UNL     1       3.050  15.261  25.253  0.00  0.00     0.168 C 
HETATM   31  C   UNL     1       4.191  15.480  24.283  0.00  0.00     0.029 C 
HETATM   32  C   UNL     1       3.931  14.492  23.150  0.00  0.00     0.035 C 
ENDBRANCH  27  28
ENDBRANCH  25  27
ENDBRANCH   6  23
BRANCH   4  33
HETATM   33  O   UNL     1       4.313   8.591  21.048  0.00  0.00    -0.360 OA
HETATM   34  H   UNL     1       3.696   8.299  21.742  0.00  0.00     0.217 HD
ENDBRANCH   4  33
TORSDOF 7
ENDMDL
MODEL 6
REMARK VINA RESULT:    -7.860      1.840      2.273
REMARK INTER + INTRA:         -12.599
REMARK INTER:                 -11.020
REMARK INTRA:                  -1.579
REMARK UNBOUND:                -1.982
REMARK  7 active torsions:
REMARK  status: ('A' for Active; 'I' for Inactive)
REMARK    1  A    between atoms: C_7  and  N_8 
REMARK    2  A    between atoms: C_14  and  C_15 
REMARK    3  A    between atoms: C_16  and  O_17 
REMARK    4  A    between atoms: C_19  and  O_20 
REMARK    5  A    between atoms: C_22  and  C_23 
REMARK       I    between atoms: C_23  and  N_25 
REMARK    6  A    between atoms: N_25  and  C_27 
REMARK    7  A    between atoms: C_27  and  C_28 
ROOT
HETATM    1  C   UNL     1       9.312  11.584  23.069  0.00  0.00     0.046 C 
HETATM    2  C   UNL     1      10.038  10.808  24.004  0.00  0.00     0.082 C 
HETATM    3  C   UNL     1       9.657   9.514  24.343  0.00  0.00     0.075 C 
HETATM    4  C   UNL     1       8.569   8.924  23.714  0.00  0.00     0.084 C 
HETATM    5  C   UNL     1       8.195  10.968  22.448  0.00  0.00     0.038 C 
HETATM    6  C   UNL     1       7.887   9.591  22.685  0.00  0.00     0.066 C 
ENDROOT
BRANCH   1   7
HETATM    7  C   UNL     1       9.863  12.964  22.789  0.00  0.00     0.172 A 
HETATM    8  N   UNL     1       9.289  14.192  23.006  0.00  0.00    -0.244 N 
HETATM    9  C   UNL     1      10.208  15.124  22.531  0.00  0.00     0.349 A 
HETATM   10  O   UNL     1      10.108  16.338  22.395  0.00  0.00    -0.245 OA
HETATM   11  N   UNL     1      11.295  14.388  22.102  0.00  0.00    -0.226 N 
HETATM   12  H   UNL     1      12.070  14.763  21.573  0.00  0.00     0.194 HD
HETATM   13  N   UNL     1      11.061  13.062  22.248  0.00  0.00    -0.151 NA
BRANCH   8  14
HETATM   14  C   UNL     1       7.990  14.611  23.351  0.00  0.00     0.051 A 
HETATM   15  C   UNL     1       7.629  15.058  24.635  0.00  0.00    -0.035 A 
HETATM   16  C   UNL     1       8.544  14.956  25.824  0.00  0.00     0.050 C 
HETATM   17  C   UNL     1       6.290  15.417  24.870  0.00  0.00     0.009 A 
HETATM   18  C   UNL     1       5.305  15.259  23.891  0.00  0.00     0.001 A 
HETATM   19  C   UNL     1       5.652  14.733  22.652  0.00  0.00     0.002 A 
HETATM   20  C   UNL     1       6.973  14.410  22.390  0.00  0.00     0.031 A 
ENDBRANCH   8  14
ENDBRANCH   1   7
BRANCH   2  21
HETATM   21  O   UNL     1      11.180  11.224  24.642  0.00  0.00    -0.360 OA
HETATM   22  H   UNL     1      11.065  12.164  24.904  0.00  0.00     0.217 HD
ENDBRANCH   2  21
BRANCH   6  23
HETATM   23  C   UNL     1       6.896   8.853  21.798  0.00  0.00     0.256 C 
HETATM   24  O   UNL     1       7.301   7.832  21.230  0.00  0.00    -0.267 OA
HETATM   25  N   UNL     1       5.541   9.291  21.688  0.00  0.00    -0.350 N 
HETATM   26  C   UNL     1       5.037  10.478  22.363  0.00  0.00     0.153 C 
BRANCH  25  27
HETATM   27  C   UNL     1       4.655   8.746  20.607  0.00  0.00     0.157 C 
BRANCH  27  28
HETATM   28  C   UNL     1       4.823   9.398  19.192  0.00  0.00     0.139 C 
HETATM   29  O   UNL     1       3.747   9.027  18.297  0.00  0.00    -0.384 OA
HETATM   30  C   UNL     1       3.812   9.905  17.172  0.00  0.00     0.168 C 
HETATM   31  C   UNL     1       4.325  11.225  17.704  0.00  0.00     0.029 C 
HETATM   32  C   UNL     1       4.767  10.921  19.132  0.00  0.00     0.035 C 
ENDBRANCH  27  28
ENDBRANCH  25  27
ENDBRANCH   6  23
BRANCH   4  33
HETATM   33  O   UNL     1       8.211   7.663  24.103  0.00  0.00    -0.360 OA
HETATM   34  H   UNL     1       8.984   7.074  24.034  0.00  0.00     0.217 HD
ENDBRANCH   4  33
TORSDOF 7
ENDMDL
MODEL 7
REMARK VINA RESULT:    -7.702      2.160      3.387
REMARK INTER + INTRA:         -12.386
REMARK INTER:                 -10.120
REMARK INTRA:                  -2.266
REMARK UNBOUND:                -1.982
REMARK  7 active torsions:
REMARK  status: ('A' for Active; 'I' for Inactive)
REMARK    1  A    between atoms: C_7  and  N_8 
REMARK    2  A    between atoms: C_14  and  C_15 
REMARK    3  A    between atoms: C_16  and  O_17 
REMARK    4  A    between atoms: C_19  and  O_20 
REMARK    5  A    between atoms: C_22  and  C_23 
REMARK       I    between atoms: C_23  and  N_25 
REMARK    6  A    between atoms: N_25  and  C_27 
REMARK    7  A    between atoms: C_27  and  C_28 
ROOT
HETATM    1  C   UNL     1       9.071  11.323  24.354  0.00  0.00     0.046 C 
HETATM    2  C   UNL     1       9.763  10.162  23.932  0.00  0.00     0.082 C 
HETATM    3  C   UNL     1       9.114   9.105  23.304  0.00  0.00     0.075 C 
HETATM    4  C   UNL     1       7.758   9.192  23.019  0.00  0.00     0.084 C 
HETATM    5  C   UNL     1       7.682  11.387  24.067  0.00  0.00     0.038 C 
HETATM    6  C   UNL     1       7.042  10.367  23.294  0.00  0.00     0.066 C 
ENDROOT
BRANCH   1   7
HETATM    7  C   UNL     1       9.916  12.395  25.002  0.00  0.00     0.172 A 
HETATM    8  N   UNL     1       9.923  13.751  24.784  0.00  0.00    -0.244 N 
HETATM    9  C   UNL     1      10.920  14.258  25.614  0.00  0.00     0.349 A 
HETATM   10  O   UNL     1      11.385  15.389  25.693  0.00  0.00    -0.245 OA
HETATM   11  N   UNL     1      11.411  13.172  26.311  0.00  0.00    -0.226 N 
HETATM   12  H   UNL     1      12.240  13.188  26.889  0.00  0.00     0.194 HD
HETATM   13  N   UNL     1      10.800  12.032  25.911  0.00  0.00    -0.151 NA
BRANCH   8  14
HETATM   14  C   UNL     1       9.344  14.581  23.805  0.00  0.00     0.051 A 
HETATM   15  C   UNL     1       8.094  15.206  23.952  0.00  0.00    -0.035 A 
HETATM   16  C   UNL     1       7.156  14.903  25.088  0.00  0.00     0.050 C 
HETATM   17  C   UNL     1       7.602  15.985  22.890  0.00  0.00     0.009 A 
HETATM   18  C   UNL     1       8.282  16.078  21.673  0.00  0.00     0.001 A 
HETATM   19  C   UNL     1       9.474  15.385  21.502  0.00  0.00     0.002 A 
HETATM   20  C   UNL     1       9.994  14.646  22.551  0.00  0.00     0.031 A 
ENDBRANCH   8  14
ENDBRANCH   1   7
BRANCH   2  21
HETATM   21  O   UNL     1      11.115   9.968  24.067  0.00  0.00    -0.360 OA
HETATM   22  H   UNL     1      11.301   9.007  23.985  0.00  0.00     0.217 HD
ENDBRANCH   2  21
BRANCH   6  23
HETATM   23  C   UNL     1       5.648  10.583  22.727  0.00  0.00     0.256 C 
HETATM   24  O   UNL     1       5.523  10.517  21.499  0.00  0.00    -0.267 OA
HETATM   25  N   UNL     1       4.527  10.785  23.589  0.00  0.00    -0.350 N 
HETATM   26  C   UNL     1       4.646  10.847  25.039  0.00  0.00     0.153 C 
BRANCH  25  27
HETATM   27  C   UNL     1       3.224  11.279  23.034  0.00  0.00     0.157 C 
BRANCH  27  28
HETATM   28  C   UNL     1       3.027  12.833  23.034  0.00  0.00     0.139 C 
HETATM   29  O   UNL     1       2.558  13.317  24.316  0.00  0.00    -0.384 OA
HETATM   30  C   UNL     1       2.719  14.737  24.316  0.00  0.00     0.168 C 
HETATM   31  C   UNL     1       3.944  15.017  23.473  0.00  0.00     0.029 C 
HETATM   32  C   UNL     1       4.278  13.680  22.819  0.00  0.00     0.035 C 
ENDBRANCH  27  28
ENDBRANCH  25  27
ENDBRANCH   6  23
BRANCH   4  33
HETATM   33  O   UNL     1       7.156   8.114  22.430  0.00  0.00    -0.360 OA
HETATM   34  H   UNL     1       7.824   7.602  21.941  0.00  0.00     0.217 HD
ENDBRANCH   4  33
TORSDOF 7
ENDMDL
MODEL 8
REMARK VINA RESULT:    -7.667      3.372      5.007
REMARK INTER + INTRA:         -12.338
REMARK INTER:                 -10.587
REMARK INTRA:                  -1.751
REMARK UNBOUND:                -1.982
REMARK  7 active torsions:
REMARK  status: ('A' for Active; 'I' for Inactive)
REMARK    1  A    between atoms: C_7  and  N_8 
REMARK    2  A    between atoms: C_14  and  C_15 
REMARK    3  A    between atoms: C_16  and  O_17 
REMARK    4  A    between atoms: C_19  and  O_20 
REMARK    5  A    between atoms: C_22  and  C_23 
REMARK       I    between atoms: C_23  and  N_25 
REMARK    6  A    between atoms: N_25  and  C_27 
REMARK    7  A    between atoms: C_27  and  C_28 
ROOT
HETATM    1  C   UNL     1       7.426  11.554  21.463  0.00  0.00     0.046 C 
HETATM    2  C   UNL     1       7.068  11.162  20.151  0.00  0.00     0.082 C 
HETATM    3  C   UNL     1       6.000  10.306  19.902  0.00  0.00     0.075 C 
HETATM    4  C   UNL     1       5.211   9.857  20.952  0.00  0.00     0.084 C 
HETATM    5  C   UNL     1       6.615  11.073  22.524  0.00  0.00     0.038 C 
HETATM    6  C   UNL     1       5.433  10.312  22.261  0.00  0.00     0.066 C 
ENDROOT
BRANCH   1   7
HETATM    7  C   UNL     1       8.595  12.506  21.570  0.00  0.00     0.172 A 
HETATM    8  N   UNL     1       8.766  13.587  22.399  0.00  0.00    -0.244 N 
HETATM    9  C   UNL     1      10.001  14.131  22.054  0.00  0.00     0.349 A 
HETATM   10  O   UNL     1      10.542  15.167  22.423  0.00  0.00    -0.245 OA
HETATM   11  N   UNL     1      10.508  13.306  21.069  0.00  0.00    -0.226 N 
HETATM   12  H   UNL     1      11.326  13.513  20.512  0.00  0.00     0.194 HD
HETATM   13  N   UNL     1       9.626  12.324  20.768  0.00  0.00    -0.151 NA
BRANCH   8  14
HETATM   14  C   UNL     1       7.907  14.301  23.255  0.00  0.00     0.051 A 
HETATM   15  C   UNL     1       7.913  14.168  24.655  0.00  0.00    -0.035 A 
HETATM   16  C   UNL     1       8.705  13.111  25.374  0.00  0.00     0.050 C 
HETATM   17  C   UNL     1       6.982  14.909  25.405  0.00  0.00     0.009 A 
HETATM   18  C   UNL     1       6.006  15.698  24.790  0.00  0.00     0.001 A 
HETATM   19  C   UNL     1       5.949  15.755  23.402  0.00  0.00     0.002 A 
HETATM   20  C   UNL     1       6.883  15.064  22.649  0.00  0.00     0.031 A 
ENDBRANCH   8  14
ENDBRANCH   1   7
BRANCH   2  21
HETATM   21  O   UNL     1       7.699  11.590  19.009  0.00  0.00    -0.360 OA
HETATM   22  H   UNL     1       7.430  11.004  18.267  0.00  0.00     0.217 HD
ENDBRANCH   2  21
BRANCH   6  23
HETATM   23  C   UNL     1       4.409  10.065  23.358  0.00  0.00     0.256 C 
HETATM   24  O   UNL     1       3.411  10.795  23.372  0.00  0.00    -0.267 OA
HETATM   25  N   UNL     1       4.570   8.989  24.285  0.00  0.00    -0.350 N 
HETATM   26  C   UNL     1       5.726   8.105  24.276  0.00  0.00     0.153 C 
BRANCH  25  27
HETATM   27  C   UNL     1       3.726   8.925  25.524  0.00  0.00     0.157 C 
BRANCH  27  28
HETATM   28  C   UNL     1       2.432   8.048  25.425  0.00  0.00     0.139 C 
HETATM   29  O   UNL     1       2.035   7.525  26.716  0.00  0.00    -0.384 OA
HETATM   30  C   UNL     1       0.704   7.025  26.578  0.00  0.00     0.168 C 
HETATM   31  C   UNL     1       0.031   7.912  25.553  0.00  0.00     0.029 C 
HETATM   32  C   UNL     1       1.160   8.756  24.970  0.00  0.00     0.035 C 
ENDBRANCH  27  28
ENDBRANCH  25  27
ENDBRANCH   6  23
BRANCH   4  33
HETATM   33  O   UNL     1       4.193   8.990  20.664  0.00  0.00    -0.360 OA
HETATM   34  H   UNL     1       4.180   8.278  21.328  0.00  0.00     0.217 HD
ENDBRANCH   4  33
TORSDOF 7
ENDMDL
MODEL 9
REMARK VINA RESULT:    -7.576      2.318      3.062
REMARK INTER + INTRA:         -12.215
REMARK INTER:                 -10.233
REMARK INTRA:                  -1.982
REMARK UNBOUND:                -1.982
REMARK  7 active torsions:
REMARK  status: ('A' for Active; 'I' for Inactive)
REMARK    1  A    between atoms: C_7  and  N_8 
REMARK    2  A    between atoms: C_14  and  C_15 
REMARK    3  A    between atoms: C_16  and  O_17 
REMARK    4  A    between atoms: C_19  and  O_20 
REMARK    5  A    between atoms: C_22  and  C_23 
REMARK       I    between atoms: C_23  and  N_25 
REMARK    6  A    between atoms: N_25  and  C_27 
REMARK    7  A    between atoms: C_27  and  C_28 
ROOT
HETATM    1  C   UNL     1       8.304  13.024  22.715  0.00  0.00     0.046 C 
HETATM    2  C   UNL     1       9.143  13.534  21.696  0.00  0.00     0.082 C 
HETATM    3  C   UNL     1       9.093  13.058  20.390  0.00  0.00     0.075 C 
HETATM    4  C   UNL     1       8.158  12.094  20.039  0.00  0.00     0.084 C 
HETATM    5  C   UNL     1       7.365  12.028  22.339  0.00  0.00     0.038 C 
HETATM    6  C   UNL     1       7.211  11.640  20.970  0.00  0.00     0.066 C 
ENDROOT
BRANCH   1   7
HETATM    7  C   UNL     1       8.461  13.657  24.078  0.00  0.00     0.172 A 
HETATM    8  N   UNL     1       7.509  14.218  24.894  0.00  0.00    -0.244 N 
HETATM    9  C   UNL     1       8.201  14.686  26.009  0.00  0.00     0.349 A 
HETATM   10  O   UNL     1       7.815  15.362  26.955  0.00  0.00    -0.245 OA
HETATM   11  N   UNL     1       9.520  14.329  25.804  0.00  0.00    -0.226 N 
HETATM   12  H   UNL     1      10.295  14.651  26.366  0.00  0.00     0.194 HD
HETATM   13  N   UNL     1       9.668  13.717  24.606  0.00  0.00    -0.151 NA
BRANCH   8  14
HETATM   14  C   UNL     1       6.162  14.581  24.709  0.00  0.00     0.051 A 
HETATM   15  C   UNL     1       5.078  13.736  25.006  0.00  0.00    -0.035 A 
HETATM   16  C   UNL     1       5.246  12.287  25.373  0.00  0.00     0.050 C 
HETATM   17  C   UNL     1       3.775  14.197  24.746  0.00  0.00     0.009 A 
HETATM   18  C   UNL     1       3.543  15.427  24.125  0.00  0.00     0.001 A 
HETATM   19  C   UNL     1       4.622  16.218  23.752  0.00  0.00     0.002 A 
HETATM   20  C   UNL     1       5.911  15.799  24.037  0.00  0.00     0.031 A 
ENDBRANCH   8  14
ENDBRANCH   1   7
BRANCH   2  21
HETATM   21  O   UNL     1      10.056  14.545  21.872  0.00  0.00    -0.360 OA
HETATM   22  H   UNL     1       9.756  15.327  21.358  0.00  0.00     0.217 HD
ENDBRANCH   2  21
BRANCH   6  23
HETATM   23  C   UNL     1       6.012  10.817  20.527  0.00  0.00     0.256 C 
HETATM   24  O   UNL     1       5.119  11.409  19.909  0.00  0.00    -0.267 OA
HETATM   25  N   UNL     1       5.962   9.408  20.759  0.00  0.00    -0.350 N 
HETATM   26  C   UNL     1       7.009   8.686  21.466  0.00  0.00     0.153 C 
BRANCH  25  27
HETATM   27  C   UNL     1       4.674   8.658  20.585  0.00  0.00     0.157 C 
BRANCH  27  28
HETATM   28  C   UNL     1       4.385   8.121  19.142  0.00  0.00     0.139 C 
HETATM   29  O   UNL     1       3.502   9.002  18.407  0.00  0.00    -0.384 OA
HETATM   30  C   UNL     1       3.559   8.609  17.034  0.00  0.00     0.168 C 
HETATM   31  C   UNL     1       4.968   8.105  16.805  0.00  0.00     0.029 C 
HETATM   32  C   UNL     1       5.580   8.020  18.199  0.00  0.00     0.035 C 
ENDBRANCH  27  28
ENDBRANCH  25  27
ENDBRANCH   6  23
BRANCH   4  33
HETATM   33  O   UNL     1       8.167  11.632  18.752  0.00  0.00    -0.360 OA
HETATM   34  H   UNL     1       7.305  11.815  18.339  0.00  0.00     0.217 HD
ENDBRANCH   4  33
TORSDOF 7
ENDMDL
