REMARK  5 active torsions:
REMARK  status: ('A' for Active; 'I' for Inactive)
REMARK    1  A    between atoms: C_2  and  C_4 
REMARK    2  A    between atoms: C_6  and  C_12 
REMARK    3  A    between atoms: C_7  and  O_8 
REMARK    4  A    between atoms: C_10  and  O_11 
REMARK    5  A    between atoms: N_17  and  C_18 
ROOT
HETATM    1  C   UNL     1       2.704   4.497   2.171  0.00  0.00     0.171 A 
HETATM    2  N   UNL     1       1.497   4.936   1.905  0.00  0.00    -0.151 NA
HETATM    3  N   UNL     1       1.661   6.281   1.730  0.00  0.00    -0.226 N 
HETATM    4  C   UNL     1       2.987   6.653   1.941  0.00  0.00     0.349 A 
HETATM    5  O   UNL     1       3.402   7.801   1.941  0.00  0.00    -0.245 OA
HETATM    6  N   UNL     1       3.664   5.476   2.169  0.00  0.00    -0.244 N 
HETATM    7  H   UNL     1       0.899   6.919   1.549  0.00  0.00     0.194 HD
ENDROOT
BRANCH   1   8
HETATM    8  C   UNL     1       2.965   3.066   2.431  0.00  0.00     0.046 A 
HETATM    9  C   UNL     1       4.204   2.499   2.127  0.00  0.00     0.028 A 
HETATM   10  C   UNL     1       4.520   1.173   2.470  0.00  0.00    -0.021 A 
HETATM   11  C   UNL     1       3.531   0.412   3.106  0.00  0.00     0.075 A 
HETATM   12  C   UNL     1       2.252   0.922   3.318  0.00  0.00     0.074 A 
HETATM   13  C   UNL     1       1.967   2.241   2.964  0.00  0.00     0.082 A 
BRANCH  10  14
HETATM   14  C   UNL     1       5.900   0.628   2.153  0.00  0.00     0.013 C 
HETATM   15  C   UNL     1       6.167   0.651   0.641  0.00  0.00     0.015 C 
HETATM   16  C   UNL     1       6.987   1.413   2.899  0.00  0.00     0.015 C 
ENDBRANCH  10  14
BRANCH  11  17
HETATM   17  O   UNL     1       3.834  -0.855   3.519  0.00  0.00    -0.360 OA
HETATM   18  H   UNL     1       3.133  -1.159   4.119  0.00  0.00     0.217 HD
ENDBRANCH  11  17
BRANCH  13  19
HETATM   19  O   UNL     1       0.676   2.656   3.165  0.00  0.00    -0.360 OA
HETATM   20  H   UNL     1       0.560   3.517   2.707  0.00  0.00     0.217 HD
ENDBRANCH  13  19
ENDBRANCH   1   8
BRANCH   6  21
HETATM   21  C   UNL     1       4.990   5.466   2.631  0.00  0.00     0.046 A 
HETATM   22  C   UNL     1       5.279   5.596   3.996  0.00  0.00     0.044 A 
HETATM   23  C   UNL     1       6.622   5.778   4.398  0.00  0.00    -0.006 A 
HETATM   24  C   UNL     1       7.247   6.062   5.645  0.00  0.00     0.031 A 
HETATM   25  C   UNL     1       7.636   5.736   3.435  0.00  0.00     0.044 A 
HETATM   26  C   UNL     1       8.600   6.188   5.422  0.00  0.00     0.091 A 
HETATM   27  N   UNL     1       8.832   5.922   4.099  0.00  0.00    -0.360 N 
HETATM   28  C   UNL     1      10.144   5.880   3.488  0.00  0.00     0.155 C 
HETATM   29  C   UNL     1       7.362   5.545   2.074  0.00  0.00     0.033 A 
HETATM   30  C   UNL     1       6.022   5.458   1.687  0.00  0.00     0.032 A 
ENDBRANCH   6  21
TORSDOF 5
