MODEL 1
REMARK VINA RESULT:    -8.024      0.000      0.000
REMARK INTER + INTRA:         -12.490
REMARK INTER:                 -11.127
REMARK INTRA:                  -1.363
REMARK UNBOUND:                -1.652
REMARK  7 active torsions:
REMARK  status: ('A' for Active; 'I' for Inactive)
REMARK    1  A    between atoms: C_7  and  N_8 
REMARK    2  A    between atoms: C_12  and  C_13 
REMARK    3  A    between atoms: C_14  and  O_15 
REMARK    4  A    between atoms: C_17  and  O_18 
REMARK    5  A    between atoms: C_20  and  C_21 
REMARK       I    between atoms: C_21  and  N_23 
REMARK    6  A    between atoms: N_23  and  C_25 
REMARK    7  A    between atoms: C_25  and  C_26 
ROOT
HETATM    1  C   UNL     1       4.790   7.578  22.274  0.00  0.00     0.027 A 
HETATM    2  C   UNL     1       5.490   6.642  23.068  0.00  0.00     0.081 A 
HETATM    3  C   UNL     1       5.161   6.405  24.402  0.00  0.00     0.075 A 
HETATM    4  C   UNL     1       4.058   7.032  24.968  0.00  0.00     0.084 A 
HETATM    5  C   UNL     1       3.742   8.280  22.921  0.00  0.00     0.036 A 
HETATM    6  C   UNL     1       3.307   7.971  24.233  0.00  0.00     0.066 A 
ENDROOT
BRANCH   1   7
HETATM    7  C   UNL     1       5.142   7.797  20.838  0.00  0.00     0.073 A 
HETATM    8  N   UNL     1       4.408   7.521  19.650  0.00  0.00    -0.233 N 
HETATM    9  N   UNL     1       5.151   7.825  18.548  0.00  0.00    -0.179 NA
HETATM   10  C   UNL     1       6.297   8.304  18.988  0.00  0.00     0.141 A 
HETATM   11  C   UNL     1       6.324   8.378  20.372  0.00  0.00     0.053 A 
BRANCH   8  12
HETATM   12  C   UNL     1       3.139   6.890  19.391  0.00  0.00     0.065 A 
HETATM   13  C   UNL     1       2.149   7.531  18.587  0.00  0.00    -0.033 A 
HETATM   14  C   UNL     1       2.248   8.945  18.064  0.00  0.00     0.050 C 
HETATM   15  C   UNL     1       0.986   6.821  18.231  0.00  0.00     0.009 A 
HETATM   16  C   UNL     1       0.767   5.525  18.686  0.00  0.00     0.001 A 
HETATM   17  C   UNL     1       1.712   4.915  19.499  0.00  0.00     0.002 A 
HETATM   18  C   UNL     1       2.898   5.580  19.830  0.00  0.00     0.032 A 
ENDBRANCH   8  12
ENDBRANCH   1   7
BRANCH   2  19
HETATM   19  O   UNL     1       6.519   5.857  22.610  0.00  0.00    -0.360 OA
HETATM   20  H   UNL     1       7.332   6.123  23.072  0.00  0.00     0.217 HD
ENDBRANCH   2  19
BRANCH   6  21
HETATM   21  C   UNL     1       1.924   8.340  24.720  0.00  0.00     0.256 C 
HETATM   22  O   UNL     1       1.115   7.414  24.832  0.00  0.00    -0.267 OA
HETATM   23  N   UNL     1       1.503   9.661  24.915  0.00  0.00    -0.346 N 
HETATM   24  C   UNL     1       2.333  10.852  24.860  0.00  0.00     0.153 C 
BRANCH  23  25
HETATM   25  C   UNL     1       0.059   9.895  25.045  0.00  0.00     0.190 C 
BRANCH  25  26
HETATM   26  C   UNL     1      -0.375  10.045  26.464  0.00  0.00     0.070 A 
HETATM   27  O   UNL     1      -0.959  11.237  26.799  0.00  0.00    -0.325 OA
HETATM   28  C   UNL     1      -1.374  11.132  28.088  0.00  0.00     0.142 A 
HETATM   29  C   UNL     1      -1.061   9.892  28.597  0.00  0.00     0.027 A 
HETATM   30  C   UNL     1      -0.416   9.190  27.547  0.00  0.00     0.036 A 
ENDBRANCH  25  26
ENDBRANCH  23  25
ENDBRANCH   6  21
BRANCH   4  31
HETATM   31  O   UNL     1       3.741   6.709  26.260  0.00  0.00    -0.360 OA
HETATM   32  H   UNL     1       4.127   5.847  26.491  0.00  0.00     0.217 HD
ENDBRANCH   4  31
TORSDOF 7
ENDMDL
MODEL 2
REMARK VINA RESULT:    -7.884      1.406      1.906
REMARK INTER + INTRA:         -12.301
REMARK INTER:                 -11.159
REMARK INTRA:                  -1.142
REMARK UNBOUND:                -1.652
REMARK  7 active torsions:
REMARK  status: ('A' for Active; 'I' for Inactive)
REMARK    1  A    between atoms: C_7  and  N_8 
REMARK    2  A    between atoms: C_12  and  C_13 
REMARK    3  A    between atoms: C_14  and  O_15 
REMARK    4  A    between atoms: C_17  and  O_18 
REMARK    5  A    between atoms: C_20  and  C_21 
REMARK       I    between atoms: C_21  and  N_23 
REMARK    6  A    between atoms: N_23  and  C_25 
REMARK    7  A    between atoms: C_25  and  C_26 
ROOT
HETATM    1  C   UNL     1       4.721   7.748  22.223  0.00  0.00     0.027 A 
HETATM    2  C   UNL     1       5.084   6.670  23.062  0.00  0.00     0.081 A 
HETATM    3  C   UNL     1       4.773   6.647  24.420  0.00  0.00     0.075 A 
HETATM    4  C   UNL     1       4.005   7.664  24.974  0.00  0.00     0.084 A 
HETATM    5  C   UNL     1       4.036   8.818  22.851  0.00  0.00     0.036 A 
HETATM    6  C   UNL     1       3.598   8.766  24.197  0.00  0.00     0.066 A 
ENDROOT
BRANCH   1   7
HETATM    7  C   UNL     1       5.041   7.739  20.763  0.00  0.00     0.073 A 
HETATM    8  N   UNL     1       4.274   7.301  19.647  0.00  0.00    -0.233 N 
HETATM    9  N   UNL     1       4.995   7.419  18.496  0.00  0.00    -0.179 NA
HETATM   10  C   UNL     1       6.160   7.936  18.833  0.00  0.00     0.141 A 
HETATM   11  C   UNL     1       6.221   8.218  20.189  0.00  0.00     0.053 A 
BRANCH   8  12
HETATM   12  C   UNL     1       2.989   6.664  19.515  0.00  0.00     0.065 A 
HETATM   13  C   UNL     1       1.995   7.188  18.634  0.00  0.00    -0.033 A 
HETATM   14  C   UNL     1       2.110   8.497  17.887  0.00  0.00     0.050 C 
HETATM   15  C   UNL     1       0.812   6.455  18.416  0.00  0.00     0.009 A 
HETATM   16  C   UNL     1       0.579   5.254  19.079  0.00  0.00     0.001 A 
HETATM   17  C   UNL     1       1.528   4.763  19.964  0.00  0.00     0.002 A 
HETATM   18  C   UNL     1       2.732   5.448  20.164  0.00  0.00     0.032 A 
ENDBRANCH   8  12
ENDBRANCH   1   7
BRANCH   2  19
HETATM   19  O   UNL     1       5.734   5.540  22.630  0.00  0.00    -0.360 OA
HETATM   20  H   UNL     1       5.204   4.768  22.889  0.00  0.00     0.217 HD
ENDBRANCH   2  19
BRANCH   6  21
HETATM   21  C   UNL     1       2.472   9.640  24.701  0.00  0.00     0.256 C 
HETATM   22  O   UNL     1       2.763  10.809  24.971  0.00  0.00    -0.267 OA
HETATM   23  N   UNL     1       1.190   9.156  24.987  0.00  0.00    -0.346 N 
HETATM   24  C   UNL     1       0.681   7.826  24.698  0.00  0.00     0.153 C 
BRANCH  23  25
HETATM   25  C   UNL     1       0.310  10.016  25.789  0.00  0.00     0.190 C 
BRANCH  25  26
HETATM   26  C   UNL     1      -0.743  10.684  24.971  0.00  0.00     0.070 A 
HETATM   27  O   UNL     1      -0.312  11.358  23.860  0.00  0.00    -0.325 OA
HETATM   28  C   UNL     1      -1.418  11.796  23.203  0.00  0.00     0.142 A 
HETATM   29  C   UNL     1      -2.559  11.423  23.876  0.00  0.00     0.027 A 
HETATM   30  C   UNL     1      -2.122  10.704  25.019  0.00  0.00     0.036 A 
ENDBRANCH  25  26
ENDBRANCH  23  25
ENDBRANCH   6  21
BRANCH   4  31
HETATM   31  O   UNL     1       3.671   7.554  26.298  0.00  0.00    -0.360 OA
HETATM   32  H   UNL     1       3.707   8.428  26.723  0.00  0.00     0.217 HD
ENDBRANCH   4  31
TORSDOF 7
ENDMDL
MODEL 3
REMARK VINA RESULT:    -7.556      2.168      7.610
REMARK INTER + INTRA:         -11.857
REMARK INTER:                 -10.189
REMARK INTRA:                  -1.668
REMARK UNBOUND:                -1.652
REMARK  7 active torsions:
REMARK  status: ('A' for Active; 'I' for Inactive)
REMARK    1  A    between atoms: C_7  and  N_8 
REMARK    2  A    between atoms: C_12  and  C_13 
REMARK    3  A    between atoms: C_14  and  O_15 
REMARK    4  A    between atoms: C_17  and  O_18 
REMARK    5  A    between atoms: C_20  and  C_21 
REMARK       I    between atoms: C_21  and  N_23 
REMARK    6  A    between atoms: N_23  and  C_25 
REMARK    7  A    between atoms: C_25  and  C_26 
ROOT
HETATM    1  C   UNL     1       3.086   7.904  24.616  0.00  0.00     0.027 A 
HETATM    2  C   UNL     1       3.996   7.337  25.537  0.00  0.00     0.081 A 
HETATM    3  C   UNL     1       5.042   6.508  25.135  0.00  0.00     0.075 A 
HETATM    4  C   UNL     1       5.272   6.287  23.783  0.00  0.00     0.084 A 
HETATM    5  C   UNL     1       3.288   7.564  23.256  0.00  0.00     0.036 A 
HETATM    6  C   UNL     1       4.413   6.828  22.807  0.00  0.00     0.066 A 
ENDROOT
BRANCH   1   7
HETATM    7  C   UNL     1       1.988   8.813  25.067  0.00  0.00     0.073 A 
HETATM    8  N   UNL     1       0.910   8.589  25.969  0.00  0.00    -0.233 N 
HETATM    9  N   UNL     1       0.103   9.687  26.032  0.00  0.00    -0.179 NA
HETATM   10  C   UNL     1       0.640  10.593  25.239  0.00  0.00     0.141 A 
HETATM   11  C   UNL     1       1.826  10.145  24.679  0.00  0.00     0.053 A 
BRANCH   8  12
HETATM   12  C   UNL     1       0.449   7.435  26.699  0.00  0.00     0.065 A 
HETATM   13  C   UNL     1       0.611   7.347  28.114  0.00  0.00    -0.033 A 
HETATM   14  C   UNL     1       1.385   8.336  28.956  0.00  0.00     0.050 C 
HETATM   15  C   UNL     1       0.014   6.278  28.811  0.00  0.00     0.009 A 
HETATM   16  C   UNL     1      -0.691   5.287  28.137  0.00  0.00     0.001 A 
HETATM   17  C   UNL     1      -0.817   5.352  26.756  0.00  0.00     0.002 A 
HETATM   18  C   UNL     1      -0.274   6.427  26.045  0.00  0.00     0.032 A 
ENDBRANCH   8  12
ENDBRANCH   1   7
BRANCH   2  19
HETATM   19  O   UNL     1       3.969   7.567  26.891  0.00  0.00    -0.360 OA
HETATM   20  H   UNL     1       4.814   7.974  27.145  0.00  0.00     0.217 HD
ENDBRANCH   2  19
BRANCH   6  21
HETATM   21  C   UNL     1       4.888   6.898  21.373  0.00  0.00     0.256 C 
HETATM   22  O   UNL     1       5.759   7.736  21.123  0.00  0.00    -0.267 OA
HETATM   23  N   UNL     1       4.305   6.166  20.331  0.00  0.00    -0.346 N 
HETATM   24  C   UNL     1       3.302   5.123  20.461  0.00  0.00     0.153 C 
BRANCH  23  25
HETATM   25  C   UNL     1       4.619   6.583  18.959  0.00  0.00     0.190 C 
BRANCH  25  26
HETATM   26  C   UNL     1       3.560   7.447  18.363  0.00  0.00     0.070 A 
HETATM   27  O   UNL     1       2.911   6.946  17.267  0.00  0.00    -0.325 OA
HETATM   28  C   UNL     1       1.924   7.824  16.948  0.00  0.00     0.142 A 
HETATM   29  C   UNL     1       1.929   8.891  17.816  0.00  0.00     0.027 A 
HETATM   30  C   UNL     1       2.985   8.648  18.731  0.00  0.00     0.036 A 
ENDBRANCH  25  26
ENDBRANCH  23  25
ENDBRANCH   6  21
BRANCH   4  31
HETATM   31  O   UNL     1       6.356   5.521  23.443  0.00  0.00    -0.360 OA
HETATM   32  H   UNL     1       6.741   5.119  24.241  0.00  0.00     0.217 HD
ENDBRANCH   4  31
TORSDOF 7
ENDMDL
MODEL 4
REMARK VINA RESULT:    -7.548      2.099      3.728
REMARK INTER + INTRA:         -11.847
REMARK INTER:                 -10.179
REMARK INTRA:                  -1.669
REMARK UNBOUND:                -1.652
REMARK  7 active torsions:
REMARK  status: ('A' for Active; 'I' for Inactive)
REMARK    1  A    between atoms: C_7  and  N_8 
REMARK    2  A    between atoms: C_12  and  C_13 
REMARK    3  A    between atoms: C_14  and  O_15 
REMARK    4  A    between atoms: C_17  and  O_18 
REMARK    5  A    between atoms: C_20  and  C_21 
REMARK       I    between atoms: C_21  and  N_23 
REMARK    6  A    between atoms: N_23  and  C_25 
REMARK    7  A    between atoms: C_25  and  C_26 
ROOT
HETATM    1  C   UNL     1       3.291   6.282  23.255  0.00  0.00     0.027 A 
HETATM    2  C   UNL     1       3.681   5.631  24.447  0.00  0.00     0.081 A 
HETATM    3  C   UNL     1       3.679   6.276  25.682  0.00  0.00     0.075 A 
HETATM    4  C   UNL     1       3.199   7.576  25.786  0.00  0.00     0.084 A 
HETATM    5  C   UNL     1       2.915   7.642  23.386  0.00  0.00     0.036 A 
HETATM    6  C   UNL     1       2.784   8.285  24.641  0.00  0.00     0.066 A 
ENDROOT
BRANCH   1   7
HETATM    7  C   UNL     1       3.275   5.562  21.945  0.00  0.00     0.073 A 
HETATM    8  N   UNL     1       4.109   5.700  20.800  0.00  0.00    -0.233 N 
HETATM    9  N   UNL     1       3.685   4.877  19.798  0.00  0.00    -0.179 NA
HETATM   10  C   UNL     1       2.649   4.213  20.271  0.00  0.00     0.141 A 
HETATM   11  C   UNL     1       2.395   4.535  21.595  0.00  0.00     0.053 A 
BRANCH   8  12
HETATM   12  C   UNL     1       5.188   6.592  20.459  0.00  0.00     0.065 A 
HETATM   13  C   UNL     1       4.938   7.824  19.784  0.00  0.00    -0.033 A 
HETATM   14  C   UNL     1       3.595   8.249  19.235  0.00  0.00     0.050 C 
HETATM   15  C   UNL     1       5.995   8.737  19.603  0.00  0.00     0.009 A 
HETATM   16  C   UNL     1       7.284   8.439  20.032  0.00  0.00     0.001 A 
HETATM   17  C   UNL     1       7.535   7.224  20.656  0.00  0.00     0.002 A 
HETATM   18  C   UNL     1       6.494   6.319  20.889  0.00  0.00     0.032 A 
ENDBRANCH   8  12
ENDBRANCH   1   7
BRANCH   2  19
HETATM   19  O   UNL     1       4.058   4.312  24.519  0.00  0.00    -0.360 OA
HETATM   20  H   UNL     1       5.028   4.272  24.490  0.00  0.00     0.217 HD
ENDBRANCH   2  19
BRANCH   6  21
HETATM   21  C   UNL     1       1.928   9.519  24.817  0.00  0.00     0.256 C 
HETATM   22  O   UNL     1       2.526  10.598  24.882  0.00  0.00    -0.267 OA
HETATM   23  N   UNL     1       0.546   9.474  25.032  0.00  0.00    -0.346 N 
HETATM   24  C   UNL     1      -0.306   8.300  24.952  0.00  0.00     0.153 C 
BRANCH  23  25
HETATM   25  C   UNL     1      -0.098  10.697  25.531  0.00  0.00     0.190 C 
BRANCH  25  26
HETATM   26  C   UNL     1      -0.926  11.375  24.492  0.00  0.00     0.070 A 
HETATM   27  O   UNL     1      -0.243  12.041  23.510  0.00  0.00    -0.325 OA
HETATM   28  C   UNL     1      -1.164  12.490  22.616  0.00  0.00     0.142 A 
HETATM   29  C   UNL     1      -2.433  12.132  23.009  0.00  0.00     0.027 A 
HETATM   30  C   UNL     1      -2.279  11.411  24.221  0.00  0.00     0.036 A 
ENDBRANCH  25  26
ENDBRANCH  23  25
ENDBRANCH   6  21
BRANCH   4  31
HETATM   31  O   UNL     1       3.155   8.137  27.035  0.00  0.00    -0.360 OA
HETATM   32  H   UNL     1       3.911   7.827  27.564  0.00  0.00     0.217 HD
ENDBRANCH   4  31
TORSDOF 7
ENDMDL
MODEL 5
REMARK VINA RESULT:    -7.486      4.335      7.606
REMARK INTER + INTRA:         -11.764
REMARK INTER:                  -9.957
REMARK INTRA:                  -1.807
REMARK UNBOUND:                -1.652
REMARK  7 active torsions:
REMARK  status: ('A' for Active; 'I' for Inactive)
REMARK    1  A    between atoms: C_7  and  N_8 
REMARK    2  A    between atoms: C_12  and  C_13 
REMARK    3  A    between atoms: C_14  and  O_15 
REMARK    4  A    between atoms: C_17  and  O_18 
REMARK    5  A    between atoms: C_20  and  C_21 
REMARK       I    between atoms: C_21  and  N_23 
REMARK    6  A    between atoms: N_23  and  C_25 
REMARK    7  A    between atoms: C_25  and  C_26 
ROOT
HETATM    1  C   UNL     1       3.742   7.174  18.497  0.00  0.00     0.027 A 
HETATM    2  C   UNL     1       2.822   8.238  18.364  0.00  0.00     0.081 A 
HETATM    3  C   UNL     1       1.652   8.121  17.616  0.00  0.00     0.075 A 
HETATM    4  C   UNL     1       1.313   6.901  17.043  0.00  0.00     0.084 A 
HETATM    5  C   UNL     1       3.414   5.982  17.806  0.00  0.00     0.036 A 
HETATM    6  C   UNL     1       2.177   5.793  17.143  0.00  0.00     0.066 A 
ENDROOT
BRANCH   1   7
HETATM    7  C   UNL     1       4.977   7.313  19.328  0.00  0.00     0.073 A 
HETATM    8  N   UNL     1       5.385   6.627  20.507  0.00  0.00    -0.233 N 
HETATM    9  N   UNL     1       6.566   7.129  20.967  0.00  0.00    -0.179 NA
HETATM   10  C   UNL     1       6.930   8.070  20.120  0.00  0.00     0.141 A 
HETATM   11  C   UNL     1       6.039   8.180  19.063  0.00  0.00     0.053 A 
BRANCH   8  12
HETATM   12  C   UNL     1       4.759   5.637  21.347  0.00  0.00     0.065 A 
HETATM   13  C   UNL     1       3.843   6.017  22.373  0.00  0.00    -0.033 A 
HETATM   14  C   UNL     1       3.551   7.443  22.783  0.00  0.00     0.050 C 
HETATM   15  C   UNL     1       3.137   5.018  23.070  0.00  0.00     0.009 A 
HETATM   16  C   UNL     1       3.351   3.670  22.806  0.00  0.00     0.001 A 
HETATM   17  C   UNL     1       4.270   3.299  21.834  0.00  0.00     0.002 A 
HETATM   18  C   UNL     1       4.950   4.272  21.094  0.00  0.00     0.032 A 
ENDBRANCH   8  12
ENDBRANCH   1   7
BRANCH   2  19
HETATM   19  O   UNL     1       2.960   9.460  18.976  0.00  0.00    -0.360 OA
HETATM   20  H   UNL     1       2.600   9.391  19.876  0.00  0.00     0.217 HD
ENDBRANCH   2  19
BRANCH   6  21
HETATM   21  C   UNL     1       1.630   4.413  16.857  0.00  0.00     0.256 C 
HETATM   22  O   UNL     1       1.397   4.148  15.673  0.00  0.00    -0.267 OA
HETATM   23  N   UNL     1       1.268   3.505  17.859  0.00  0.00    -0.346 N 
HETATM   24  C   UNL     1       1.506   3.647  19.285  0.00  0.00     0.153 C 
BRANCH  23  25
HETATM   25  C   UNL     1       0.436   2.361  17.461  0.00  0.00     0.190 C 
BRANCH  25  26
HETATM   26  C   UNL     1      -0.769   2.199  18.325  0.00  0.00     0.070 A 
HETATM   27  O   UNL     1      -1.774   3.111  18.145  0.00  0.00    -0.325 OA
HETATM   28  C   UNL     1      -2.809   2.728  18.938  0.00  0.00     0.142 A 
HETATM   29  C   UNL     1      -2.487   1.586  19.635  0.00  0.00     0.027 A 
HETATM   30  C   UNL     1      -1.169   1.244  19.239  0.00  0.00     0.036 A 
ENDBRANCH  25  26
ENDBRANCH  23  25
ENDBRANCH   6  21
BRANCH   4  31
HETATM   31  O   UNL     1       0.118   6.826  16.378  0.00  0.00    -0.360 OA
HETATM   32  H   UNL     1      -0.438   6.133  16.773  0.00  0.00     0.217 HD
ENDBRANCH   4  31
TORSDOF 7
ENDMDL
MODEL 6
REMARK VINA RESULT:    -7.482      2.612      4.558
REMARK INTER + INTRA:         -11.758
REMARK INTER:                  -9.910
REMARK INTRA:                  -1.849
REMARK UNBOUND:                -1.652
REMARK  7 active torsions:
REMARK  status: ('A' for Active; 'I' for Inactive)
REMARK    1  A    between atoms: C_7  and  N_8 
REMARK    2  A    between atoms: C_12  and  C_13 
REMARK    3  A    between atoms: C_14  and  O_15 
REMARK    4  A    between atoms: C_17  and  O_18 
REMARK    5  A    between atoms: C_20  and  C_21 
REMARK       I    between atoms: C_21  and  N_23 
REMARK    6  A    between atoms: N_23  and  C_25 
REMARK    7  A    between atoms: C_25  and  C_26 
ROOT
HETATM    1  C   UNL     1       3.341   7.040  18.352  0.00  0.00     0.027 A 
HETATM    2  C   UNL     1       4.660   6.592  18.119  0.00  0.00     0.081 A 
HETATM    3  C   UNL     1       5.730   6.976  18.925  0.00  0.00     0.075 A 
HETATM    4  C   UNL     1       5.505   7.755  20.053  0.00  0.00     0.084 A 
HETATM    5  C   UNL     1       3.171   7.924  19.447  0.00  0.00     0.036 A 
HETATM    6  C   UNL     1       4.214   8.231  20.355  0.00  0.00     0.066 A 
ENDROOT
BRANCH   1   7
HETATM    7  C   UNL     1       2.203   6.594  17.491  0.00  0.00     0.073 A 
HETATM    8  N   UNL     1       1.546   5.335  17.401  0.00  0.00    -0.233 N 
HETATM    9  N   UNL     1       0.597   5.360  16.422  0.00  0.00    -0.179 NA
HETATM   10  C   UNL     1       0.608   6.578  15.919  0.00  0.00     0.141 A 
HETATM   11  C   UNL     1       1.515   7.395  16.576  0.00  0.00     0.053 A 
BRANCH   8  12
HETATM   12  C   UNL     1       1.764   4.054  18.024  0.00  0.00     0.065 A 
HETATM   13  C   UNL     1       1.397   3.825  19.384  0.00  0.00    -0.033 A 
HETATM   14  C   UNL     1       0.901   4.892  20.333  0.00  0.00     0.050 C 
HETATM   15  C   UNL     1       1.484   2.522  19.911  0.00  0.00     0.009 A 
HETATM   16  C   UNL     1       1.963   1.467  19.143  0.00  0.00     0.001 A 
HETATM   17  C   UNL     1       2.355   1.696  17.831  0.00  0.00     0.002 A 
HETATM   18  C   UNL     1       2.236   2.971  17.268  0.00  0.00     0.032 A 
ENDBRANCH   8  12
ENDBRANCH   1   7
BRANCH   2  19
HETATM   19  O   UNL     1       5.014   5.719  17.119  0.00  0.00    -0.360 OA
HETATM   20  H   UNL     1       5.983   5.698  17.063  0.00  0.00     0.217 HD
ENDBRANCH   2  19
BRANCH   6  21
HETATM   21  C   UNL     1       3.929   8.735  21.752  0.00  0.00     0.256 C 
HETATM   22  O   UNL     1       4.120   9.939  21.951  0.00  0.00    -0.267 OA
HETATM   23  N   UNL     1       3.596   7.896  22.821  0.00  0.00    -0.346 N 
HETATM   24  C   UNL     1       3.304   6.475  22.749  0.00  0.00     0.153 C 
BRANCH  23  25
HETATM   25  C   UNL     1       3.691   8.460  24.174  0.00  0.00     0.190 C 
BRANCH  25  26
HETATM   26  C   UNL     1       2.357   8.650  24.813  0.00  0.00     0.070 A 
HETATM   27  O   UNL     1       1.602   9.692  24.345  0.00  0.00    -0.325 OA
HETATM   28  C   UNL     1       0.397   9.627  24.970  0.00  0.00     0.142 A 
HETATM   29  C   UNL     1       0.364   8.563  25.843  0.00  0.00     0.027 A 
HETATM   30  C   UNL     1       1.630   7.932  25.741  0.00  0.00     0.036 A 
ENDBRANCH  25  26
ENDBRANCH  23  25
ENDBRANCH   6  21
BRANCH   4  31
HETATM   31  O   UNL     1       6.583   8.044  20.847  0.00  0.00    -0.360 OA
HETATM   32  H   UNL     1       6.301   8.114  21.776  0.00  0.00     0.217 HD
ENDBRANCH   4  31
TORSDOF 7
ENDMDL
MODEL 7
REMARK VINA RESULT:    -7.458      4.067      6.595
REMARK INTER + INTRA:         -11.726
REMARK INTER:                 -10.007
REMARK INTRA:                  -1.719
REMARK UNBOUND:                -1.652
REMARK  7 active torsions:
REMARK  status: ('A' for Active; 'I' for Inactive)
REMARK    1  A    between atoms: C_7  and  N_8 
REMARK    2  A    between atoms: C_12  and  C_13 
REMARK    3  A    between atoms: C_14  and  O_15 
REMARK    4  A    between atoms: C_17  and  O_18 
REMARK    5  A    between atoms: C_20  and  C_21 
REMARK       I    between atoms: C_21  and  N_23 
REMARK    6  A    between atoms: N_23  and  C_25 
REMARK    7  A    between atoms: C_25  and  C_26 
ROOT
HETATM    1  C   UNL     1       3.480   7.027  26.364  0.00  0.00     0.027 A 
HETATM    2  C   UNL     1       4.422   6.764  25.344  0.00  0.00     0.081 A 
HETATM    3  C   UNL     1       4.384   7.410  24.110  0.00  0.00     0.075 A 
HETATM    4  C   UNL     1       3.451   8.414  23.882  0.00  0.00     0.084 A 
HETATM    5  C   UNL     1       2.477   7.977  26.050  0.00  0.00     0.036 A 
HETATM    6  C   UNL     1       2.487   8.738  24.856  0.00  0.00     0.066 A 
ENDROOT
BRANCH   1   7
HETATM    7  C   UNL     1       3.557   6.341  27.690  0.00  0.00     0.073 A 
HETATM    8  N   UNL     1       2.670   5.417  28.309  0.00  0.00    -0.233 N 
HETATM    9  N   UNL     1       3.108   5.100  29.562  0.00  0.00    -0.179 NA
HETATM   10  C   UNL     1       4.238   5.755  29.741  0.00  0.00     0.141 A 
HETATM   11  C   UNL     1       4.599   6.471  28.611  0.00  0.00     0.053 A 
BRANCH   8  12
HETATM   12  C   UNL     1       1.387   4.874  27.943  0.00  0.00     0.065 A 
HETATM   13  C   UNL     1       0.201   5.663  28.030  0.00  0.00    -0.033 A 
HETATM   14  C   UNL     1       0.131   7.047  28.634  0.00  0.00     0.050 C 
HETATM   15  C   UNL     1      -1.007   5.150  27.521  0.00  0.00     0.009 A 
HETATM   16  C   UNL     1      -1.072   3.872  26.975  0.00  0.00     0.001 A 
HETATM   17  C   UNL     1       0.073   3.089  26.924  0.00  0.00     0.002 A 
HETATM   18  C   UNL     1       1.296   3.592  27.381  0.00  0.00     0.032 A 
ENDBRANCH   8  12
ENDBRANCH   1   7
BRANCH   2  19
HETATM   19  O   UNL     1       5.475   5.890  25.472  0.00  0.00    -0.360 OA
HETATM   20  H   UNL     1       6.260   6.302  25.074  0.00  0.00     0.217 HD
ENDBRANCH   2  19
BRANCH   6  21
HETATM   21  C   UNL     1       1.752  10.055  24.746  0.00  0.00     0.256 C 
HETATM   22  O   UNL     1       2.451  11.068  24.647  0.00  0.00    -0.267 OA
HETATM   23  N   UNL     1       0.363  10.176  24.879  0.00  0.00    -0.346 N 
HETATM   24  C   UNL     1      -0.597   9.090  24.966  0.00  0.00     0.153 C 
BRANCH  23  25
HETATM   25  C   UNL     1      -0.176  11.524  25.102  0.00  0.00     0.190 C 
BRANCH  25  26
HETATM   26  C   UNL     1      -1.010  12.006  23.963  0.00  0.00     0.070 A 
HETATM   27  O   UNL     1      -0.333  12.464  22.865  0.00  0.00    -0.325 OA
HETATM   28  C   UNL     1      -1.259  12.749  21.912  0.00  0.00     0.142 A 
HETATM   29  C   UNL     1      -2.527  12.489  22.380  0.00  0.00     0.027 A 
HETATM   30  C   UNL     1      -2.366  12.008  23.704  0.00  0.00     0.036 A 
ENDBRANCH  25  26
ENDBRANCH  23  25
ENDBRANCH   6  21
BRANCH   4  31
HETATM   31  O   UNL     1       3.504   9.064  22.676  0.00  0.00    -0.360 OA
HETATM   32  H   UNL     1       2.724   9.637  22.574  0.00  0.00     0.217 HD
ENDBRANCH   4  31
TORSDOF 7
ENDMDL
MODEL 8
REMARK VINA RESULT:    -7.268      2.277      7.430
REMARK INTER + INTRA:         -11.468
REMARK INTER:                 -10.671
REMARK INTRA:                  -0.797
REMARK UNBOUND:                -1.652
REMARK  7 active torsions:
REMARK  status: ('A' for Active; 'I' for Inactive)
REMARK    1  A    between atoms: C_7  and  N_8 
REMARK    2  A    between atoms: C_12  and  C_13 
REMARK    3  A    between atoms: C_14  and  O_15 
REMARK    4  A    between atoms: C_17  and  O_18 
REMARK    5  A    between atoms: C_20  and  C_21 
REMARK       I    between atoms: C_21  and  N_23 
REMARK    6  A    between atoms: N_23  and  C_25 
REMARK    7  A    between atoms: C_25  and  C_26 
ROOT
HETATM    1  C   UNL     1       3.272   7.136  24.433  0.00  0.00     0.027 A 
HETATM    2  C   UNL     1       4.583   6.745  24.789  0.00  0.00     0.081 A 
HETATM    3  C   UNL     1       5.583   6.543  23.839  0.00  0.00     0.075 A 
HETATM    4  C   UNL     1       5.332   6.814  22.500  0.00  0.00     0.084 A 
HETATM    5  C   UNL     1       3.027   7.293  23.047  0.00  0.00     0.036 A 
HETATM    6  C   UNL     1       4.052   7.217  22.072  0.00  0.00     0.066 A 
ENDROOT
BRANCH   1   7
HETATM    7  C   UNL     1       2.222   7.373  25.471  0.00  0.00     0.073 A 
HETATM    8  N   UNL     1       1.384   8.500  25.702  0.00  0.00    -0.233 N 
HETATM    9  N   UNL     1       0.615   8.304  26.812  0.00  0.00    -0.179 NA
HETATM   10  C   UNL     1       0.910   7.101  27.265  0.00  0.00     0.141 A 
HETATM   11  C   UNL     1       1.829   6.459  26.451  0.00  0.00     0.053 A 
BRANCH   8  12
HETATM   12  C   UNL     1       1.284   9.804  25.098  0.00  0.00     0.065 A 
HETATM   13  C   UNL     1       0.014  10.407  24.856  0.00  0.00    -0.033 A 
HETATM   14  C   UNL     1      -1.318   9.720  25.054  0.00  0.00     0.050 C 
HETATM   15  C   UNL     1      -0.041  11.741  24.407  0.00  0.00     0.009 A 
HETATM   16  C   UNL     1       1.120  12.462  24.154  0.00  0.00     0.001 A 
HETATM   17  C   UNL     1       2.357  11.864  24.353  0.00  0.00     0.002 A 
HETATM   18  C   UNL     1       2.440  10.556  24.843  0.00  0.00     0.032 A 
ENDBRANCH   8  12
ENDBRANCH   1   7
BRANCH   2  19
HETATM   19  O   UNL     1       5.011   6.563  26.081  0.00  0.00    -0.360 OA
HETATM   20  H   UNL     1       5.818   6.024  26.060  0.00  0.00     0.217 HD
ENDBRANCH   2  19
BRANCH   6  21
HETATM   21  C   UNL     1       3.906   7.862  20.712  0.00  0.00     0.256 C 
HETATM   22  O   UNL     1       3.887   9.096  20.688  0.00  0.00    -0.267 OA
HETATM   23  N   UNL     1       3.668   7.138  19.538  0.00  0.00    -0.346 N 
HETATM   24  C   UNL     1       3.693   5.693  19.390  0.00  0.00     0.153 C 
BRANCH  23  25
HETATM   25  C   UNL     1       3.201   7.891  18.366  0.00  0.00     0.190 C 
BRANCH  25  26
HETATM   26  C   UNL     1       2.121   7.183  17.620  0.00  0.00     0.070 A 
HETATM   27  O   UNL     1       0.970   6.925  18.315  0.00  0.00    -0.325 OA
HETATM   28  C   UNL     1       0.085   6.381  17.438  0.00  0.00     0.142 A 
HETATM   29  C   UNL     1       0.649   6.276  16.188  0.00  0.00     0.027 A 
HETATM   30  C   UNL     1       1.964   6.794  16.305  0.00  0.00     0.036 A 
ENDBRANCH  25  26
ENDBRANCH  23  25
ENDBRANCH   6  21
BRANCH   4  31
HETATM   31  O   UNL     1       6.372   6.665  21.620  0.00  0.00    -0.360 OA
HETATM   32  H   UNL     1       6.741   5.768  21.692  0.00  0.00     0.217 HD
ENDBRANCH   4  31
TORSDOF 7
ENDMDL
MODEL 9
REMARK VINA RESULT:    -7.124      2.395      3.587
REMARK INTER + INTRA:         -11.274
REMARK INTER:                  -9.623
REMARK INTRA:                  -1.652
REMARK UNBOUND:                -1.652
REMARK  7 active torsions:
REMARK  status: ('A' for Active; 'I' for Inactive)
REMARK    1  A    between atoms: C_7  and  N_8 
REMARK    2  A    between atoms: C_12  and  C_13 
REMARK    3  A    between atoms: C_14  and  O_15 
REMARK    4  A    between atoms: C_17  and  O_18 
REMARK    5  A    between atoms: C_20  and  C_21 
REMARK       I    between atoms: C_21  and  N_23 
REMARK    6  A    between atoms: N_23  and  C_25 
REMARK    7  A    between atoms: C_25  and  C_26 
ROOT
HETATM    1  C   UNL     1       4.067   6.634  20.836  0.00  0.00     0.027 A 
HETATM    2  C   UNL     1       4.417   7.884  20.280  0.00  0.00     0.081 A 
HETATM    3  C   UNL     1       4.329   9.072  21.005  0.00  0.00     0.075 A 
HETATM    4  C   UNL     1       3.971   9.041  22.347  0.00  0.00     0.084 A 
HETATM    5  C   UNL     1       3.599   6.659  22.173  0.00  0.00     0.036 A 
HETATM    6  C   UNL     1       3.617   7.830  22.971  0.00  0.00     0.066 A 
ENDROOT
BRANCH   1   7
HETATM    7  C   UNL     1       4.195   5.369  20.049  0.00  0.00     0.073 A 
HETATM    8  N   UNL     1       3.516   4.933  18.877  0.00  0.00    -0.233 N 
HETATM    9  N   UNL     1       3.907   3.670  18.541  0.00  0.00    -0.179 NA
HETATM   10  C   UNL     1       4.816   3.310  19.425  0.00  0.00     0.141 A 
HETATM   11  C   UNL     1       5.085   4.329  20.326  0.00  0.00     0.053 A 
BRANCH   8  12
HETATM   12  C   UNL     1       2.447   5.486  18.084  0.00  0.00     0.065 A 
HETATM   13  C   UNL     1       1.097   5.457  18.547  0.00  0.00    -0.033 A 
HETATM   14  C   UNL     1       0.629   4.741  19.793  0.00  0.00     0.050 C 
HETATM   15  C   UNL     1       0.105   6.141  17.818  0.00  0.00     0.009 A 
HETATM   16  C   UNL     1       0.412   6.803  16.634  0.00  0.00     0.001 A 
HETATM   17  C   UNL     1       1.718   6.799  16.164  0.00  0.00     0.002 A 
HETATM   18  C   UNL     1       2.731   6.168  16.893  0.00  0.00     0.032 A 
ENDBRANCH   8  12
ENDBRANCH   1   7
BRANCH   2  19
HETATM   19  O   UNL     1       4.908   8.054  19.009  0.00  0.00    -0.360 OA
HETATM   20  H   UNL     1       5.860   8.234  19.072  0.00  0.00     0.217 HD
ENDBRANCH   2  19
BRANCH   6  21
HETATM   21  C   UNL     1       3.607   7.762  24.482  0.00  0.00     0.256 C 
HETATM   22  O   UNL     1       4.600   7.260  25.016  0.00  0.00    -0.267 OA
HETATM   23  N   UNL     1       2.499   8.115  25.262  0.00  0.00    -0.346 N 
HETATM   24  C   UNL     1       1.278   8.748  24.796  0.00  0.00     0.153 C 
BRANCH  23  25
HETATM   25  C   UNL     1       2.496   7.676  26.663  0.00  0.00     0.190 C 
BRANCH  25  26
HETATM   26  C   UNL     1       1.287   6.877  27.013  0.00  0.00     0.070 A 
HETATM   27  O   UNL     1       1.230   5.606  26.505  0.00  0.00    -0.325 OA
HETATM   28  C   UNL     1       0.120   5.017  27.023  0.00  0.00     0.142 A 
HETATM   29  C   UNL     1      -0.547   5.889  27.852  0.00  0.00     0.027 A 
HETATM   30  C   UNL     1       0.206   7.090  27.846  0.00  0.00     0.036 A 
ENDBRANCH  25  26
ENDBRANCH  23  25
ENDBRANCH   6  21
BRANCH   4  31
HETATM   31  O   UNL     1       3.968  10.230  23.028  0.00  0.00    -0.360 OA
HETATM   32  H   UNL     1       4.798  10.710  22.860  0.00  0.00     0.217 HD
ENDBRANCH   4  31
TORSDOF 7
ENDMDL
