REMARK  7 active torsions:
REMARK  status: ('A' for Active; 'I' for Inactive)
REMARK    1  A    between atoms: C_7  and  N_8 
REMARK    2  A    between atoms: C_12  and  C_13 
REMARK    3  A    between atoms: C_14  and  O_15 
REMARK    4  A    between atoms: C_17  and  O_18 
REMARK    5  A    between atoms: C_20  and  C_21 
REMARK       I    between atoms: C_21  and  N_23 
REMARK    6  A    between atoms: N_23  and  C_25 
REMARK    7  A    between atoms: C_25  and  C_26 
ROOT
HETATM    1  C   UNL     1       0.113  -1.276  -0.247  0.00  0.00     0.027 A 
HETATM    2  C   UNL     1      -1.112  -1.469  -0.924  0.00  0.00     0.081 A 
HETATM    3  C   UNL     1      -2.024  -0.434  -1.122  0.00  0.00     0.075 A 
HETATM    4  C   UNL     1      -1.703   0.859  -0.727  0.00  0.00     0.084 A 
HETATM    5  C   UNL     1       0.353   0.033   0.239  0.00  0.00     0.036 A 
HETATM    6  C   UNL     1      -0.495   1.129  -0.055  0.00  0.00     0.066 A 
ENDROOT
BRANCH   1   7
HETATM    7  C   UNL     1       1.089  -2.395  -0.070  0.00  0.00     0.073 A 
HETATM    8  N   UNL     1       2.508  -2.380   0.037  0.00  0.00    -0.233 N 
HETATM    9  N   UNL     1       2.994  -3.652   0.121  0.00  0.00    -0.179 NA
HETATM   10  C   UNL     1       1.949  -4.455   0.103  0.00  0.00     0.141 A 
HETATM   11  C   UNL     1       0.759  -3.746   0.059  0.00  0.00     0.053 A 
BRANCH   8  12
HETATM   12  C   UNL     1       3.500  -1.339  -0.053  0.00  0.00     0.065 A 
HETATM   13  C   UNL     1       4.788  -1.497   0.541  0.00  0.00    -0.033 A 
HETATM   14  C   UNL     1       5.193  -2.655   1.424  0.00  0.00     0.050 C 
HETATM   15  C   UNL     1       5.780  -0.526   0.303  0.00  0.00     0.009 A 
HETATM   16  C   UNL     1       5.511   0.603  -0.463  0.00  0.00     0.001 A 
HETATM   17  C   UNL     1       4.247   0.776  -1.010  0.00  0.00     0.002 A 
HETATM   18  C   UNL     1       3.257  -0.196  -0.828  0.00  0.00     0.032 A 
ENDBRANCH   8  12
ENDBRANCH   1   7
BRANCH   2  19
HETATM   19  O   UNL     1      -1.508  -2.661  -1.480  0.00  0.00    -0.360 OA
HETATM   20  H   UNL     1      -0.714  -3.137  -1.774  0.00  0.00     0.217 HD
ENDBRANCH   2  19
BRANCH   6  21
HETATM   21  C   UNL     1      -0.003   2.557   0.018  0.00  0.00     0.256 C 
HETATM   22  O   UNL     1      -0.301   3.290  -0.930  0.00  0.00    -0.267 OA
HETATM   23  N   UNL     1       0.856   3.026   1.019  0.00  0.00    -0.346 N 
HETATM   24  C   UNL     1       1.270   2.308   2.212  0.00  0.00     0.153 C 
BRANCH  23  25
HETATM   25  C   UNL     1       1.528   4.310   0.781  0.00  0.00     0.190 C 
BRANCH  25  26
HETATM   26  C   UNL     1       0.909   5.433   1.543  0.00  0.00     0.070 A 
HETATM   27  O   UNL     1       1.694   6.028   2.494  0.00  0.00    -0.325 OA
HETATM   28  C   UNL     1       0.994   7.082   2.990  0.00  0.00     0.142 A 
HETATM   29  C   UNL     1      -0.236   7.174   2.380  0.00  0.00     0.027 A 
HETATM   30  C   UNL     1      -0.291   6.109   1.445  0.00  0.00     0.036 A 
ENDBRANCH  25  26
ENDBRANCH  23  25
ENDBRANCH   6  21
BRANCH   4  31
HETATM   31  O   UNL     1      -2.607   1.849  -1.009  0.00  0.00    -0.360 OA
HETATM   32  H   UNL     1      -3.194   1.566  -1.731  0.00  0.00     0.217 HD
ENDBRANCH   4  31
TORSDOF 7
