MODEL 1
REMARK VINA RESULT:    -8.823      0.000      0.000
REMARK INTER + INTRA:         -13.627
REMARK INTER:                 -11.667
REMARK INTRA:                  -1.961
REMARK UNBOUND:                -1.451
REMARK  7 active torsions:
REMARK  status: ('A' for Active; 'I' for Inactive)
REMARK    1  A    between atoms: C_8  and  C_9 
REMARK    2  A    between atoms: C_14  and  N_15 
REMARK       I    between atoms: N_15  and  C_17 
REMARK    3  A    between atoms: C_17  and  C_19 
REMARK    4  A    between atoms: C_20  and  O_22 
REMARK    5  A    between atoms: C_26  and  C_30 
REMARK    6  A    between atoms: C_30  and  C_31 
REMARK    7  A    between atoms: C_31  and  C_32 
ROOT
HETATM    1  C   UNL     1      -2.990  14.512  22.919  0.00  0.00     0.066 A 
HETATM    2  C   UNL     1      -3.510  14.491  21.616  0.00  0.00     0.083 A 
HETATM    3  C   UNL     1      -2.943  15.242  20.575  0.00  0.00     0.069 A 
HETATM    4  C   UNL     1      -1.769  15.193  23.137  0.00  0.00     0.035 A 
HETATM    5  C   UNL     1      -1.154  15.914  22.090  0.00  0.00     0.019 A 
HETATM    6  C   UNL     1      -1.779  15.954  20.851  0.00  0.00     0.065 A 
HETATM    7  C   UNL     1       0.043  16.662  21.903  0.00  0.00     0.067 A 
HETATM    8  N   UNL     1       0.113  17.188  20.674  0.00  0.00    -0.178 NA
HETATM    9  N   UNL     1      -0.992  16.747  20.067  0.00  0.00    -0.277 N 
HETATM   10  H   UNL     1      -1.141  17.022  19.104  0.00  0.00     0.189 HD
ENDROOT
BRANCH   1  11
HETATM   11  C   UNL     1      -3.551  13.789  24.115  0.00  0.00     0.260 C 
HETATM   12  N   UNL     1      -2.893  12.723  24.757  0.00  0.00    -0.318 N 
HETATM   13  C   UNL     1      -3.520  12.173  25.958  0.00  0.00     0.159 C 
HETATM   14  O   UNL     1      -4.633  14.210  24.537  0.00  0.00    -0.267 OA
BRANCH  12  15
HETATM   15  C   UNL     1      -1.730  12.061  24.298  0.00  0.00     0.037 C 
HETATM   16  C   UNL     1      -0.490  12.311  24.870  0.00  0.00     0.030 C 
HETATM   17  C   UNL     1       0.571  11.436  24.636  0.00  0.00     0.010 C 
HETATM   18  C   UNL     1       0.384  10.253  23.899  0.00  0.00    -0.054 C 
HETATM   19  C   UNL     1      -0.799  10.146  23.150  0.00  0.00     0.010 C 
HETATM   20  C   UNL     1      -1.849  11.051  23.338  0.00  0.00     0.030 C 
BRANCH  18  21
HETATM   21  C   UNL     1       1.396   9.102  23.974  0.00  0.00     0.022 C 
HETATM   22  C   UNL     1       0.762   7.696  23.859  0.00  0.00     0.037 C 
HETATM   23  C   UNL     1      -0.178   7.385  25.024  0.00  0.00     0.235 C 
HETATM   24  N   UNL     1       0.518   7.538  26.354  0.00  0.00    -0.075 N 
HETATM   25  C   UNL     1       1.295   8.822  26.496  0.00  0.00     0.235 C 
HETATM   26  C   UNL     1       1.284   6.323  26.786  0.00  0.00     0.269 C 
HETATM   27  H   UNL     1      -0.258   7.612  27.027  0.00  0.00     0.279 HD
HETATM   28  C   UNL     1       2.199   9.074  25.301  0.00  0.00     0.037 C 
ENDBRANCH  18  21
ENDBRANCH  12  15
ENDBRANCH   1  11
BRANCH   2  29
HETATM   29  O   UNL     1      -4.555  13.705  21.203  0.00  0.00    -0.360 OA
HETATM   30  H   UNL     1      -5.018  14.190  20.493  0.00  0.00     0.217 HD
ENDBRANCH   2  29
BRANCH   7  31
HETATM   31  C   UNL     1       1.152  16.918  22.872  0.00  0.00     0.063 C 
BRANCH  31  32
HETATM   32  C   UNL     1       2.481  16.292  22.429  0.00  0.00     0.014 C 
BRANCH  32  33
HETATM   33  C   UNL     1       2.742  14.853  22.951  0.00  0.00    -0.051 C 
HETATM   34  C   UNL     1       2.005  13.812  22.094  0.00  0.00     0.014 C 
HETATM   35  C   UNL     1       4.255  14.577  22.862  0.00  0.00     0.014 C 
HETATM   36  C   UNL     1       2.306  14.705  24.418  0.00  0.00     0.014 C 
ENDBRANCH  32  33
ENDBRANCH  31  32
ENDBRANCH   7  31
TORSDOF 7
ENDMDL
MODEL 2
REMARK VINA RESULT:    -8.626      0.878      1.224
REMARK INTER + INTRA:         -13.354
REMARK INTER:                 -11.521
REMARK INTRA:                  -1.834
REMARK UNBOUND:                -1.451
REMARK  7 active torsions:
REMARK  status: ('A' for Active; 'I' for Inactive)
REMARK    1  A    between atoms: C_8  and  C_9 
REMARK    2  A    between atoms: C_14  and  N_15 
REMARK       I    between atoms: N_15  and  C_17 
REMARK    3  A    between atoms: C_17  and  C_19 
REMARK    4  A    between atoms: C_20  and  O_22 
REMARK    5  A    between atoms: C_26  and  C_30 
REMARK    6  A    between atoms: C_30  and  C_31 
REMARK    7  A    between atoms: C_31  and  C_32 
ROOT
HETATM    1  C   UNL     1      -3.177  13.776  23.834  0.00  0.00     0.066 A 
HETATM    2  C   UNL     1      -3.876  13.840  22.619  0.00  0.00     0.083 A 
HETATM    3  C   UNL     1      -3.494  14.707  21.585  0.00  0.00     0.069 A 
HETATM    4  C   UNL     1      -1.964  14.497  23.943  0.00  0.00     0.035 A 
HETATM    5  C   UNL     1      -1.534  15.336  22.892  0.00  0.00     0.019 A 
HETATM    6  C   UNL     1      -2.331  15.451  21.762  0.00  0.00     0.065 A 
HETATM    7  C   UNL     1      -0.406  16.159  22.612  0.00  0.00     0.067 A 
HETATM    8  N   UNL     1      -0.533  16.793  21.439  0.00  0.00    -0.178 NA
HETATM    9  N   UNL     1      -1.695  16.349  20.953  0.00  0.00    -0.277 N 
HETATM   10  H   UNL     1      -1.991  16.698  20.050  0.00  0.00     0.189 HD
ENDROOT
BRANCH   1  11
HETATM   11  C   UNL     1      -3.532  12.924  25.025  0.00  0.00     0.260 C 
HETATM   12  N   UNL     1      -2.710  11.891  25.514  0.00  0.00    -0.318 N 
HETATM   13  C   UNL     1      -3.148  11.204  26.729  0.00  0.00     0.159 C 
HETATM   14  O   UNL     1      -4.596  13.205  25.585  0.00  0.00    -0.267 OA
BRANCH  12  15
HETATM   15  C   UNL     1      -1.548  11.382  24.889  0.00  0.00     0.037 C 
HETATM   16  C   UNL     1      -0.283  11.684  25.374  0.00  0.00     0.030 C 
HETATM   17  C   UNL     1       0.818  10.933  24.960  0.00  0.00     0.010 C 
HETATM   18  C   UNL     1       0.655   9.814  24.122  0.00  0.00    -0.054 C 
HETATM   19  C   UNL     1      -0.582   9.676  23.472  0.00  0.00     0.010 C 
HETATM   20  C   UNL     1      -1.677  10.463  23.843  0.00  0.00     0.030 C 
BRANCH  18  21
HETATM   21  C   UNL     1       1.758   8.755  23.989  0.00  0.00     0.022 C 
HETATM   22  C   UNL     1       1.229   7.316  23.789  0.00  0.00     0.037 C 
HETATM   23  C   UNL     1       0.435   6.815  24.996  0.00  0.00     0.235 C 
HETATM   24  N   UNL     1       1.243   6.903  26.267  0.00  0.00    -0.075 N 
HETATM   25  C   UNL     1       1.926   8.232  26.469  0.00  0.00     0.235 C 
HETATM   26  C   UNL     1       2.141   5.726  26.503  0.00  0.00     0.269 C 
HETATM   27  H   UNL     1       0.533   6.846  27.010  0.00  0.00     0.279 HD
HETATM   28  C   UNL     1       2.686   8.674  25.229  0.00  0.00     0.037 C 
ENDBRANCH  18  21
ENDBRANCH  12  15
ENDBRANCH   1  11
BRANCH   2  29
HETATM   29  O   UNL     1      -4.939  13.040  22.285  0.00  0.00    -0.360 OA
HETATM   30  H   UNL     1      -4.592  12.321  21.722  0.00  0.00     0.217 HD
ENDBRANCH   2  29
BRANCH   7  31
HETATM   31  C   UNL     1       0.819  16.387  23.437  0.00  0.00     0.063 C 
BRANCH  31  32
HETATM   32  C   UNL     1       2.109  16.008  22.698  0.00  0.00     0.014 C 
BRANCH  32  33
HETATM   33  C   UNL     1       2.668  14.596  23.022  0.00  0.00    -0.051 C 
HETATM   34  C   UNL     1       2.529  14.277  24.518  0.00  0.00     0.014 C 
HETATM   35  C   UNL     1       1.854  13.562  22.222  0.00  0.00     0.014 C 
HETATM   36  C   UNL     1       4.145  14.475  22.612  0.00  0.00     0.014 C 
ENDBRANCH  32  33
ENDBRANCH  31  32
ENDBRANCH   7  31
TORSDOF 7
ENDMDL
MODEL 3
REMARK VINA RESULT:    -8.599      1.764      3.838
REMARK INTER + INTRA:         -13.318
REMARK INTER:                 -11.742
REMARK INTRA:                  -1.576
REMARK UNBOUND:                -1.451
REMARK  7 active torsions:
REMARK  status: ('A' for Active; 'I' for Inactive)
REMARK    1  A    between atoms: C_8  and  C_9 
REMARK    2  A    between atoms: C_14  and  N_15 
REMARK       I    between atoms: N_15  and  C_17 
REMARK    3  A    between atoms: C_17  and  C_19 
REMARK    4  A    between atoms: C_20  and  O_22 
REMARK    5  A    between atoms: C_26  and  C_30 
REMARK    6  A    between atoms: C_30  and  C_31 
REMARK    7  A    between atoms: C_31  and  C_32 
ROOT
HETATM    1  C   UNL     1      -0.853  15.272  24.064  0.00  0.00     0.066 A 
HETATM    2  C   UNL     1       0.511  15.576  23.931  0.00  0.00     0.083 A 
HETATM    3  C   UNL     1       1.049  16.081  22.738  0.00  0.00     0.069 A 
HETATM    4  C   UNL     1      -1.722  15.638  23.009  0.00  0.00     0.035 A 
HETATM    5  C   UNL     1      -1.206  16.196  21.818  0.00  0.00     0.019 A 
HETATM    6  C   UNL     1       0.167  16.362  21.699  0.00  0.00     0.065 A 
HETATM    7  C   UNL     1      -1.729  16.710  20.597  0.00  0.00     0.067 A 
HETATM    8  N   UNL     1      -0.755  17.089  19.761  0.00  0.00    -0.178 NA
HETATM    9  N   UNL     1       0.369  16.869  20.448  0.00  0.00    -0.277 N 
HETATM   10  H   UNL     1       1.247  17.099  19.999  0.00  0.00     0.189 HD
ENDROOT
BRANCH   1  11
HETATM   11  C   UNL     1      -1.521  14.678  25.276  0.00  0.00     0.260 C 
HETATM   12  N   UNL     1      -1.439  13.315  25.618  0.00  0.00    -0.318 N 
HETATM   13  C   UNL     1      -2.071  12.898  26.869  0.00  0.00     0.159 C 
HETATM   14  O   UNL     1      -2.136  15.474  25.992  0.00  0.00    -0.267 OA
BRANCH  12  15
HETATM   15  C   UNL     1      -0.890  12.284  24.819  0.00  0.00     0.037 C 
HETATM   16  C   UNL     1       0.483  12.117  24.710  0.00  0.00     0.030 C 
HETATM   17  C   UNL     1       0.998  10.927  24.195  0.00  0.00     0.010 C 
HETATM   18  C   UNL     1       0.150   9.855  23.862  0.00  0.00    -0.054 C 
HETATM   19  C   UNL     1      -1.223  10.134  23.763  0.00  0.00     0.010 C 
HETATM   20  C   UNL     1      -1.743  11.346  24.228  0.00  0.00     0.030 C 
BRANCH  18  21
HETATM   21  C   UNL     1       0.698   8.432  23.690  0.00  0.00     0.022 C 
HETATM   22  C   UNL     1      -0.103   7.352  24.454  0.00  0.00     0.037 C 
HETATM   23  C   UNL     1      -0.044   7.548  25.969  0.00  0.00     0.235 C 
HETATM   24  N   UNL     1       1.379   7.594  26.467  0.00  0.00    -0.075 N 
HETATM   25  C   UNL     1       2.277   8.512  25.678  0.00  0.00     0.235 C 
HETATM   26  C   UNL     1       1.982   6.244  26.725  0.00  0.00     0.269 C 
HETATM   27  H   UNL     1       1.297   8.026  27.398  0.00  0.00     0.279 HD
HETATM   28  C   UNL     1       2.160   8.272  24.182  0.00  0.00     0.037 C 
ENDBRANCH  18  21
ENDBRANCH  12  15
ENDBRANCH   1  11
BRANCH   2  29
HETATM   29  O   UNL     1       1.435  15.483  24.941  0.00  0.00    -0.360 OA
HETATM   30  H   UNL     1       0.948  15.256  25.757  0.00  0.00     0.217 HD
ENDBRANCH   2  29
BRANCH   7  31
HETATM   31  C   UNL     1      -3.155  16.852  20.171  0.00  0.00     0.063 C 
BRANCH  31  32
HETATM   32  C   UNL     1      -3.633  15.677  19.307  0.00  0.00     0.014 C 
BRANCH  32  33
HETATM   33  C   UNL     1      -4.252  14.487  20.089  0.00  0.00    -0.051 C 
HETATM   34  C   UNL     1      -4.919  14.967  21.388  0.00  0.00     0.014 C 
HETATM   35  C   UNL     1      -5.326  13.834  19.199  0.00  0.00     0.014 C 
HETATM   36  C   UNL     1      -3.189  13.428  20.425  0.00  0.00     0.014 C 
ENDBRANCH  32  33
ENDBRANCH  31  32
ENDBRANCH   7  31
TORSDOF 7
ENDMDL
MODEL 4
REMARK VINA RESULT:    -8.429      2.101      3.855
REMARK INTER + INTRA:         -13.083
REMARK INTER:                 -11.103
REMARK INTRA:                  -1.979
REMARK UNBOUND:                -1.451
REMARK  7 active torsions:
REMARK  status: ('A' for Active; 'I' for Inactive)
REMARK    1  A    between atoms: C_8  and  C_9 
REMARK    2  A    between atoms: C_14  and  N_15 
REMARK       I    between atoms: N_15  and  C_17 
REMARK    3  A    between atoms: C_17  and  C_19 
REMARK    4  A    between atoms: C_20  and  O_22 
REMARK    5  A    between atoms: C_26  and  C_30 
REMARK    6  A    between atoms: C_30  and  C_31 
REMARK    7  A    between atoms: C_31  and  C_32 
ROOT
HETATM    1  C   UNL     1      -2.589  13.671  25.290  0.00  0.00     0.066 A 
HETATM    2  C   UNL     1      -1.874  14.183  26.383  0.00  0.00     0.083 A 
HETATM    3  C   UNL     1      -0.702  14.937  26.220  0.00  0.00     0.069 A 
HETATM    4  C   UNL     1      -2.191  14.066  23.990  0.00  0.00     0.035 A 
HETATM    5  C   UNL     1      -1.042  14.867  23.807  0.00  0.00     0.019 A 
HETATM    6  C   UNL     1      -0.307  15.245  24.922  0.00  0.00     0.065 A 
HETATM    7  C   UNL     1      -0.365  15.482  22.716  0.00  0.00     0.067 A 
HETATM    8  N   UNL     1       0.743  16.120  23.114  0.00  0.00    -0.178 NA
HETATM    9  N   UNL     1       0.751  15.960  24.441  0.00  0.00    -0.277 N 
HETATM   10  H   UNL     1       1.513  16.380  24.959  0.00  0.00     0.189 HD
ENDROOT
BRANCH   1  11
HETATM   11  C   UNL     1      -3.822  12.809  25.354  0.00  0.00     0.260 C 
HETATM   12  N   UNL     1      -3.785  11.414  25.543  0.00  0.00    -0.318 N 
HETATM   13  C   UNL     1      -5.067  10.720  25.668  0.00  0.00     0.159 C 
HETATM   14  O   UNL     1      -4.899  13.406  25.262  0.00  0.00    -0.267 OA
BRANCH  12  15
HETATM   15  C   UNL     1      -2.630  10.598  25.524  0.00  0.00     0.037 C 
HETATM   16  C   UNL     1      -2.079  10.164  24.326  0.00  0.00     0.030 C 
HETATM   17  C   UNL     1      -0.784   9.643  24.307  0.00  0.00     0.010 C 
HETATM   18  C   UNL     1       0.007   9.629  25.470  0.00  0.00    -0.054 C 
HETATM   19  C   UNL     1      -0.647   9.853  26.692  0.00  0.00     0.010 C 
HETATM   20  C   UNL     1      -1.963  10.323  26.723  0.00  0.00     0.030 C 
BRANCH  18  21
HETATM   21  C   UNL     1       1.530   9.452  25.391  0.00  0.00     0.022 C 
HETATM   22  C   UNL     1       1.997   8.510  24.257  0.00  0.00     0.037 C 
HETATM   23  C   UNL     1       1.507   7.075  24.456  0.00  0.00     0.235 C 
HETATM   24  N   UNL     1       1.926   6.526  25.797  0.00  0.00    -0.075 N 
HETATM   25  C   UNL     1       1.647   7.453  26.953  0.00  0.00     0.235 C 
HETATM   26  C   UNL     1       3.308   5.945  25.816  0.00  0.00     0.269 C 
HETATM   27  H   UNL     1       1.300   5.720  25.936  0.00  0.00     0.279 HD
HETATM   28  C   UNL     1       2.149   8.862  26.686  0.00  0.00     0.037 C 
ENDBRANCH  18  21
ENDBRANCH  12  15
ENDBRANCH   1  11
BRANCH   2  29
HETATM   29  O   UNL     1      -2.263  14.070  27.694  0.00  0.00    -0.360 OA
HETATM   30  H   UNL     1      -1.861  13.251  28.044  0.00  0.00     0.217 HD
ENDBRANCH   2  29
BRANCH   7  31
HETATM   31  C   UNL     1      -0.727  15.482  21.265  0.00  0.00     0.063 C 
BRANCH  31  32
HETATM   32  C   UNL     1      -1.990  16.302  20.970  0.00  0.00     0.014 C 
BRANCH  32  33
HETATM   33  C   UNL     1      -3.224  15.477  20.515  0.00  0.00    -0.051 C 
HETATM   34  C   UNL     1      -4.391  15.639  21.502  0.00  0.00     0.014 C 
HETATM   35  C   UNL     1      -3.671  16.002  19.137  0.00  0.00     0.014 C 
HETATM   36  C   UNL     1      -2.877  13.985  20.378  0.00  0.00     0.014 C 
ENDBRANCH  32  33
ENDBRANCH  31  32
ENDBRANCH   7  31
TORSDOF 7
ENDMDL
MODEL 5
REMARK VINA RESULT:    -8.407      2.263      3.485
REMARK INTER + INTRA:         -13.053
REMARK INTER:                 -10.805
REMARK INTRA:                  -2.248
REMARK UNBOUND:                -1.451
REMARK  7 active torsions:
REMARK  status: ('A' for Active; 'I' for Inactive)
REMARK    1  A    between atoms: C_8  and  C_9 
REMARK    2  A    between atoms: C_14  and  N_15 
REMARK       I    between atoms: N_15  and  C_17 
REMARK    3  A    between atoms: C_17  and  C_19 
REMARK    4  A    between atoms: C_20  and  O_22 
REMARK    5  A    between atoms: C_26  and  C_30 
REMARK    6  A    between atoms: C_30  and  C_31 
REMARK    7  A    between atoms: C_31  and  C_32 
ROOT
HETATM    1  C   UNL     1      -2.445  13.617  25.444  0.00  0.00     0.066 A 
HETATM    2  C   UNL     1      -1.927  14.276  26.569  0.00  0.00     0.083 A 
HETATM    3  C   UNL     1      -0.713  14.978  26.529  0.00  0.00     0.069 A 
HETATM    4  C   UNL     1      -1.791  13.807  24.202  0.00  0.00     0.035 A 
HETATM    5  C   UNL     1      -0.595  14.553  24.131  0.00  0.00     0.019 A 
HETATM    6  C   UNL     1      -0.067  15.081  25.301  0.00  0.00     0.065 A 
HETATM    7  C   UNL     1       0.303  14.987  23.114  0.00  0.00     0.067 A 
HETATM    8  N   UNL     1       1.343  15.659  23.623  0.00  0.00    -0.178 NA
HETATM    9  N   UNL     1       1.094  15.700  24.935  0.00  0.00    -0.277 N 
HETATM   10  H   UNL     1       1.762  16.180  25.525  0.00  0.00     0.189 HD
ENDROOT
BRANCH   1  11
HETATM   11  C   UNL     1      -3.705  12.794  25.392  0.00  0.00     0.260 C 
HETATM   12  N   UNL     1      -3.739  11.409  25.641  0.00  0.00    -0.318 N 
HETATM   13  C   UNL     1      -5.049  10.759  25.637  0.00  0.00     0.159 C 
HETATM   14  O   UNL     1      -4.742  13.418  25.143  0.00  0.00    -0.267 OA
BRANCH  12  15
HETATM   15  C   UNL     1      -2.618  10.561  25.799  0.00  0.00     0.037 C 
HETATM   16  C   UNL     1      -1.959  10.032  24.697  0.00  0.00     0.030 C 
HETATM   17  C   UNL     1      -0.690   9.474  24.850  0.00  0.00     0.010 C 
HETATM   18  C   UNL     1      -0.026   9.514  26.090  0.00  0.00    -0.054 C 
HETATM   19  C   UNL     1      -0.798   9.838  27.218  0.00  0.00     0.010 C 
HETATM   20  C   UNL     1      -2.092  10.348  27.077  0.00  0.00     0.030 C 
BRANCH  18  21
HETATM   21  C   UNL     1       1.489   9.288  26.188  0.00  0.00     0.022 C 
HETATM   22  C   UNL     1       2.090   8.523  24.986  0.00  0.00     0.037 C 
HETATM   23  C   UNL     1       1.549   7.096  24.877  0.00  0.00     0.235 C 
HETATM   24  N   UNL     1       1.767   6.322  26.152  0.00  0.00    -0.075 N 
HETATM   25  C   UNL     1       1.349   7.060  27.398  0.00  0.00     0.235 C 
HETATM   26  C   UNL     1       3.122   5.687  26.259  0.00  0.00     0.269 C 
HETATM   27  H   UNL     1       1.112   5.531  26.071  0.00  0.00     0.279 HD
HETATM   28  C   UNL     1       1.910   8.472  27.437  0.00  0.00     0.037 C 
ENDBRANCH  18  21
ENDBRANCH  12  15
ENDBRANCH   1  11
BRANCH   2  29
HETATM   29  O   UNL     1      -2.561  14.366  27.782  0.00  0.00    -0.360 OA
HETATM   30  H   UNL     1      -3.513  14.488  27.602  0.00  0.00     0.217 HD
ENDBRANCH   2  29
BRANCH   7  31
HETATM   31  C   UNL     1       0.222  14.775  21.636  0.00  0.00     0.063 C 
BRANCH  31  32
HETATM   32  C   UNL     1       1.022  13.551  21.170  0.00  0.00     0.014 C 
BRANCH  32  33
HETATM   33  C   UNL     1       0.188  12.261  20.944  0.00  0.00    -0.051 C 
HETATM   34  C   UNL     1       0.685  11.491  19.711  0.00  0.00     0.014 C 
HETATM   35  C   UNL     1       0.352  11.360  22.183  0.00  0.00     0.014 C 
HETATM   36  C   UNL     1      -1.305  12.586  20.773  0.00  0.00     0.014 C 
ENDBRANCH  32  33
ENDBRANCH  31  32
ENDBRANCH   7  31
TORSDOF 7
ENDMDL
MODEL 6
REMARK VINA RESULT:    -8.211      2.640      7.003
REMARK INTER + INTRA:         -12.783
REMARK INTER:                 -10.573
REMARK INTRA:                  -2.209
REMARK UNBOUND:                -1.451
REMARK  7 active torsions:
REMARK  status: ('A' for Active; 'I' for Inactive)
REMARK    1  A    between atoms: C_8  and  C_9 
REMARK    2  A    between atoms: C_14  and  N_15 
REMARK       I    between atoms: N_15  and  C_17 
REMARK    3  A    between atoms: C_17  and  C_19 
REMARK    4  A    between atoms: C_20  and  O_22 
REMARK    5  A    between atoms: C_26  and  C_30 
REMARK    6  A    between atoms: C_30  and  C_31 
REMARK    7  A    between atoms: C_31  and  C_32 
ROOT
HETATM    1  C   UNL     1      -1.222   9.590  25.728  0.00  0.00     0.066 A 
HETATM    2  C   UNL     1      -1.558   9.640  27.089  0.00  0.00     0.083 A 
HETATM    3  C   UNL     1      -2.470  10.577  27.597  0.00  0.00     0.069 A 
HETATM    4  C   UNL     1      -1.950  10.409  24.832  0.00  0.00     0.035 A 
HETATM    5  C   UNL     1      -2.910  11.324  25.318  0.00  0.00     0.019 A 
HETATM    6  C   UNL     1      -3.113  11.413  26.688  0.00  0.00     0.065 A 
HETATM    7  C   UNL     1      -3.837  12.253  24.766  0.00  0.00     0.067 A 
HETATM    8  N   UNL     1      -4.501  12.918  25.719  0.00  0.00    -0.178 NA
HETATM    9  N   UNL     1      -4.047  12.393  26.860  0.00  0.00    -0.277 N 
HETATM   10  H   UNL     1      -4.429  12.751  27.726  0.00  0.00     0.189 HD
ENDROOT
BRANCH   1  11
HETATM   11  C   UNL     1      -0.220   8.664  25.089  0.00  0.00     0.260 C 
HETATM   12  N   UNL     1       0.807   9.104  24.233  0.00  0.00    -0.318 N 
HETATM   13  C   UNL     1       1.756   8.100  23.753  0.00  0.00     0.159 C 
HETATM   14  O   UNL     1      -0.328   7.471  25.387  0.00  0.00    -0.267 OA
BRANCH  12  15
HETATM   15  C   UNL     1       0.955  10.408  23.706  0.00  0.00     0.037 C 
HETATM   16  C   UNL     1       0.447  10.739  22.457  0.00  0.00     0.030 C 
HETATM   17  C   UNL     1       0.315  12.080  22.095  0.00  0.00     0.010 C 
HETATM   18  C   UNL     1       0.609  13.109  23.008  0.00  0.00    -0.054 C 
HETATM   19  C   UNL     1       1.330  12.755  24.160  0.00  0.00     0.010 C 
HETATM   20  C   UNL     1       1.514  11.412  24.504  0.00  0.00     0.030 C 
BRANCH  18  21
HETATM   21  C   UNL     1       0.095  14.538  22.787  0.00  0.00     0.022 C 
HETATM   22  C   UNL     1       0.161  15.010  21.315  0.00  0.00     0.037 C 
HETATM   23  C   UNL     1       1.596  15.090  20.794  0.00  0.00     0.235 C 
HETATM   24  N   UNL     1       2.453  15.974  21.666  0.00  0.00    -0.075 N 
HETATM   25  C   UNL     1       2.333  15.684  23.141  0.00  0.00     0.235 C 
HETATM   26  C   UNL     1       2.363  17.434  21.333  0.00  0.00     0.269 C 
HETATM   27  H   UNL     1       3.415  15.706  21.412  0.00  0.00     0.279 HD
HETATM   28  C   UNL     1       0.883  15.607  23.588  0.00  0.00     0.037 C 
ENDBRANCH  18  21
ENDBRANCH  12  15
ENDBRANCH   1  11
BRANCH   2  29
HETATM   29  O   UNL     1      -1.102   8.764  28.041  0.00  0.00    -0.360 OA
HETATM   30  H   UNL     1      -0.168   8.570  27.829  0.00  0.00     0.217 HD
ENDBRANCH   2  29
BRANCH   7  31
HETATM   31  C   UNL     1      -4.121  12.555  23.329  0.00  0.00     0.063 C 
BRANCH  31  32
HETATM   32  C   UNL     1      -3.566  13.916  22.891  0.00  0.00     0.014 C 
BRANCH  32  33
HETATM   33  C   UNL     1      -3.781  14.269  21.394  0.00  0.00    -0.051 C 
HETATM   34  C   UNL     1      -3.006  13.304  20.483  0.00  0.00     0.014 C 
HETATM   35  C   UNL     1      -5.283  14.139  21.080  0.00  0.00     0.014 C 
HETATM   36  C   UNL     1      -3.344  15.712  21.094  0.00  0.00     0.014 C 
ENDBRANCH  32  33
ENDBRANCH  31  32
ENDBRANCH   7  31
TORSDOF 7
ENDMDL
MODEL 7
REMARK VINA RESULT:    -7.996      2.030      6.972
REMARK INTER + INTRA:         -12.485
REMARK INTER:                 -11.258
REMARK INTRA:                  -1.227
REMARK UNBOUND:                -1.451
REMARK  7 active torsions:
REMARK  status: ('A' for Active; 'I' for Inactive)
REMARK    1  A    between atoms: C_8  and  C_9 
REMARK    2  A    between atoms: C_14  and  N_15 
REMARK       I    between atoms: N_15  and  C_17 
REMARK    3  A    between atoms: C_17  and  C_19 
REMARK    4  A    between atoms: C_20  and  O_22 
REMARK    5  A    between atoms: C_26  and  C_30 
REMARK    6  A    between atoms: C_30  and  C_31 
REMARK    7  A    between atoms: C_31  and  C_32 
ROOT
HETATM    1  C   UNL     1      -2.789  11.673  24.540  0.00  0.00     0.066 A 
HETATM    2  C   UNL     1      -2.700  12.198  25.838  0.00  0.00     0.083 A 
HETATM    3  C   UNL     1      -1.978  11.555  26.855  0.00  0.00     0.069 A 
HETATM    4  C   UNL     1      -1.995  10.545  24.223  0.00  0.00     0.035 A 
HETATM    5  C   UNL     1      -1.220   9.913  25.220  0.00  0.00     0.019 A 
HETATM    6  C   UNL     1      -1.266  10.409  26.516  0.00  0.00     0.065 A 
HETATM    7  C   UNL     1      -0.298   8.830  25.292  0.00  0.00     0.067 A 
HETATM    8  N   UNL     1       0.128   8.623  26.544  0.00  0.00    -0.178 NA
HETATM    9  N   UNL     1      -0.468   9.584  27.255  0.00  0.00    -0.277 N 
HETATM   10  H   UNL     1      -0.275   9.622  28.248  0.00  0.00     0.189 HD
ENDROOT
BRANCH   1  11
HETATM   11  C   UNL     1      -3.578  12.251  23.395  0.00  0.00     0.260 C 
HETATM   12  N   UNL     1      -3.019  13.090  22.413  0.00  0.00    -0.318 N 
HETATM   13  C   UNL     1      -3.889  13.508  21.313  0.00  0.00     0.159 C 
HETATM   14  O   UNL     1      -4.766  11.918  23.341  0.00  0.00    -0.267 OA
BRANCH  12  15
HETATM   15  C   UNL     1      -1.722  13.653  22.434  0.00  0.00     0.037 C 
HETATM   16  C   UNL     1      -0.667  13.049  21.762  0.00  0.00     0.030 C 
HETATM   17  C   UNL     1       0.506  13.767  21.524  0.00  0.00     0.010 C 
HETATM   18  C   UNL     1       0.607  15.124  21.878  0.00  0.00    -0.054 C 
HETATM   19  C   UNL     1      -0.369  15.633  22.751  0.00  0.00     0.010 C 
HETATM   20  C   UNL     1      -1.523  14.898  23.039  0.00  0.00     0.030 C 
BRANCH  18  21
HETATM   21  C   UNL     1       1.696  16.023  21.275  0.00  0.00     0.022 C 
HETATM   22  C   UNL     1       2.504  15.356  20.137  0.00  0.00     0.037 C 
HETATM   23  C   UNL     1       3.305  14.148  20.625  0.00  0.00     0.235 C 
HETATM   24  N   UNL     1       4.217  14.514  21.770  0.00  0.00    -0.075 N 
HETATM   25  C   UNL     1       3.544  15.307  22.862  0.00  0.00     0.235 C 
HETATM   26  C   UNL     1       5.537  15.085  21.344  0.00  0.00     0.269 C 
HETATM   27  H   UNL     1       4.449  13.606  22.196  0.00  0.00     0.279 HD
HETATM   28  C   UNL     1       2.757  16.483  22.308  0.00  0.00     0.037 C 
ENDBRANCH  18  21
ENDBRANCH  12  15
ENDBRANCH   1  11
BRANCH   2  29
HETATM   29  O   UNL     1      -3.234  13.398  26.234  0.00  0.00    -0.360 OA
HETATM   30  H   UNL     1      -2.520  13.901  26.672  0.00  0.00     0.217 HD
ENDBRANCH   2  29
BRANCH   7  31
HETATM   31  C   UNL     1       0.202   7.947  24.194  0.00  0.00     0.063 C 
BRANCH  31  32
HETATM   32  C   UNL     1       1.593   8.359  23.692  0.00  0.00     0.014 C 
BRANCH  32  33
HETATM   33  C   UNL     1       2.767   7.477  24.196  0.00  0.00    -0.051 C 
HETATM   34  C   UNL     1       3.553   8.187  25.309  0.00  0.00     0.014 C 
HETATM   35  C   UNL     1       2.179   6.173  24.766  0.00  0.00     0.014 C 
HETATM   36  C   UNL     1       3.725   7.117  23.048  0.00  0.00     0.014 C 
ENDBRANCH  32  33
ENDBRANCH  31  32
ENDBRANCH   7  31
TORSDOF 7
ENDMDL
MODEL 8
REMARK VINA RESULT:    -7.876      2.033      4.923
REMARK INTER + INTRA:         -12.319
REMARK INTER:                 -10.868
REMARK INTRA:                  -1.451
REMARK UNBOUND:                -1.451
REMARK  7 active torsions:
REMARK  status: ('A' for Active; 'I' for Inactive)
REMARK    1  A    between atoms: C_8  and  C_9 
REMARK    2  A    between atoms: C_14  and  N_15 
REMARK       I    between atoms: N_15  and  C_17 
REMARK    3  A    between atoms: C_17  and  C_19 
REMARK    4  A    between atoms: C_20  and  O_22 
REMARK    5  A    between atoms: C_26  and  C_30 
REMARK    6  A    between atoms: C_30  and  C_31 
REMARK    7  A    between atoms: C_31  and  C_32 
ROOT
HETATM    1  C   UNL     1      -1.093  15.847  21.226  0.00  0.00     0.066 A 
HETATM    2  C   UNL     1      -2.212  16.218  20.465  0.00  0.00     0.083 A 
HETATM    3  C   UNL     1      -3.506  15.775  20.778  0.00  0.00     0.069 A 
HETATM    4  C   UNL     1      -1.313  15.134  22.429  0.00  0.00     0.035 A 
HETATM    5  C   UNL     1      -2.615  14.722  22.788  0.00  0.00     0.019 A 
HETATM    6  C   UNL     1      -3.668  15.017  21.933  0.00  0.00     0.065 A 
HETATM    7  C   UNL     1      -3.231  14.053  23.884  0.00  0.00     0.067 A 
HETATM    8  N   UNL     1      -4.543  13.877  23.686  0.00  0.00    -0.178 NA
HETATM    9  N   UNL     1      -4.776  14.465  22.509  0.00  0.00    -0.277 N 
HETATM   10  H   UNL     1      -5.727  14.459  22.161  0.00  0.00     0.189 HD
ENDROOT
BRANCH   1  11
HETATM   11  C   UNL     1       0.339  16.220  20.948  0.00  0.00     0.260 C 
HETATM   12  N   UNL     1       1.425  15.355  21.178  0.00  0.00    -0.318 N 
HETATM   13  C   UNL     1       2.753  15.825  20.782  0.00  0.00     0.159 C 
HETATM   14  O   UNL     1       0.516  17.343  20.466  0.00  0.00    -0.267 OA
BRANCH  12  15
HETATM   15  C   UNL     1       1.375  14.110  21.848  0.00  0.00     0.037 C 
HETATM   16  C   UNL     1       1.805  13.986  23.162  0.00  0.00     0.030 C 
HETATM   17  C   UNL     1       1.457  12.855  23.902  0.00  0.00     0.010 C 
HETATM   18  C   UNL     1       0.603  11.874  23.366  0.00  0.00    -0.054 C 
HETATM   19  C   UNL     1       0.379  11.909  21.980  0.00  0.00     0.010 C 
HETATM   20  C   UNL     1       0.773  13.015  21.220  0.00  0.00     0.030 C 
BRANCH  18  21
HETATM   21  C   UNL     1      -0.108  10.860  24.272  0.00  0.00     0.022 C 
HETATM   22  C   UNL     1       0.590  10.633  25.633  0.00  0.00     0.037 C 
HETATM   23  C   UNL     1       1.981  10.017  25.477  0.00  0.00     0.235 C 
HETATM   24  N   UNL     1       1.932   8.730  24.693  0.00  0.00    -0.075 N 
HETATM   25  C   UNL     1       1.136   8.818  23.416  0.00  0.00     0.235 C 
HETATM   26  C   UNL     1       1.606   7.521  25.520  0.00  0.00     0.269 C 
HETATM   27  H   UNL     1       2.908   8.589  24.396  0.00  0.00     0.279 HD
HETATM   28  C   UNL     1      -0.229   9.448  23.641  0.00  0.00     0.037 C 
ENDBRANCH  18  21
ENDBRANCH  12  15
ENDBRANCH   1  11
BRANCH   2  29
HETATM   29  O   UNL     1      -2.183  17.085  19.403  0.00  0.00    -0.360 OA
HETATM   30  H   UNL     1      -2.609  17.914  19.695  0.00  0.00     0.217 HD
ENDBRANCH   2  29
BRANCH   7  31
HETATM   31  C   UNL     1      -2.608  13.546  25.145  0.00  0.00     0.063 C 
BRANCH  31  32
HETATM   32  C   UNL     1      -2.925  12.068  25.409  0.00  0.00     0.014 C 
BRANCH  32  33
HETATM   33  C   UNL     1      -3.209  11.705  26.892  0.00  0.00    -0.051 C 
HETATM   34  C   UNL     1      -2.426  10.452  27.314  0.00  0.00     0.014 C 
HETATM   35  C   UNL     1      -2.756  12.886  27.771  0.00  0.00     0.014 C 
HETATM   36  C   UNL     1      -4.710  11.470  27.129  0.00  0.00     0.014 C 
ENDBRANCH  32  33
ENDBRANCH  31  32
ENDBRANCH   7  31
TORSDOF 7
ENDMDL
MODEL 9
REMARK VINA RESULT:    -7.796      1.989      6.986
REMARK INTER + INTRA:         -12.210
REMARK INTER:                 -10.758
REMARK INTRA:                  -1.452
REMARK UNBOUND:                -1.451
REMARK  7 active torsions:
REMARK  status: ('A' for Active; 'I' for Inactive)
REMARK    1  A    between atoms: C_8  and  C_9 
REMARK    2  A    between atoms: C_14  and  N_15 
REMARK       I    between atoms: N_15  and  C_17 
REMARK    3  A    between atoms: C_17  and  C_19 
REMARK    4  A    between atoms: C_20  and  O_22 
REMARK    5  A    between atoms: C_26  and  C_30 
REMARK    6  A    between atoms: C_30  and  C_31 
REMARK    7  A    between atoms: C_31  and  C_32 
ROOT
HETATM    1  C   UNL     1      -2.233  11.763  23.268  0.00  0.00     0.066 A 
HETATM    2  C   UNL     1      -1.238  11.569  22.297  0.00  0.00     0.083 A 
HETATM    3  C   UNL     1      -0.035  10.908  22.585  0.00  0.00     0.069 A 
HETATM    4  C   UNL     1      -2.069  11.132  24.524  0.00  0.00     0.035 A 
HETATM    5  C   UNL     1      -0.887  10.417  24.816  0.00  0.00     0.019 A 
HETATM    6  C   UNL     1       0.114  10.361  23.856  0.00  0.00     0.065 A 
HETATM    7  C   UNL     1      -0.378   9.643  25.898  0.00  0.00     0.067 A 
HETATM    8  N   UNL     1       0.866   9.211  25.658  0.00  0.00    -0.178 NA
HETATM    9  N   UNL     1       1.134   9.657  24.428  0.00  0.00    -0.277 N 
HETATM   10  H   UNL     1       2.039   9.432  24.034  0.00  0.00     0.189 HD
ENDROOT
BRANCH   1  11
HETATM   11  C   UNL     1      -3.531  12.503  23.080  0.00  0.00     0.260 C 
HETATM   12  N   UNL     1      -3.611  13.894  22.881  0.00  0.00    -0.318 N 
HETATM   13  C   UNL     1      -4.936  14.461  22.630  0.00  0.00     0.159 C 
HETATM   14  O   UNL     1      -4.550  11.804  23.078  0.00  0.00    -0.267 OA
BRANCH  12  15
HETATM   15  C   UNL     1      -2.546  14.817  22.999  0.00  0.00     0.037 C 
HETATM   16  C   UNL     1      -1.908  15.025  24.214  0.00  0.00     0.030 C 
HETATM   17  C   UNL     1      -0.676  15.680  24.249  0.00  0.00     0.010 C 
HETATM   18  C   UNL     1      -0.025  16.060  23.061  0.00  0.00    -0.054 C 
HETATM   19  C   UNL     1      -0.788  16.048  21.882  0.00  0.00     0.010 C 
HETATM   20  C   UNL     1      -2.047  15.442  21.850  0.00  0.00     0.030 C 
BRANCH  18  21
HETATM   21  C   UNL     1       1.472  16.397  23.049  0.00  0.00     0.022 C 
HETATM   22  C   UNL     1       2.050  16.651  21.637  0.00  0.00     0.037 C 
HETATM   23  C   UNL     1       1.985  15.406  20.751  0.00  0.00     0.235 C 
HETATM   24  N   UNL     1       2.675  14.230  21.396  0.00  0.00    -0.075 N 
HETATM   25  C   UNL     1       2.284  14.001  22.834  0.00  0.00     0.235 C 
HETATM   26  C   UNL     1       4.157  14.188  21.165  0.00  0.00     0.269 C 
HETATM   27  H   UNL     1       2.306  13.419  20.880  0.00  0.00     0.279 HD
HETATM   28  C   UNL     1       2.360  15.278  23.653  0.00  0.00     0.037 C 
ENDBRANCH  18  21
ENDBRANCH  12  15
ENDBRANCH   1  11
BRANCH   2  29
HETATM   29  O   UNL     1      -1.351  11.931  20.979  0.00  0.00    -0.360 OA
HETATM   30  H   UNL     1      -0.785  12.716  20.846  0.00  0.00     0.217 HD
ENDBRANCH   2  29
BRANCH   7  31
HETATM   31  C   UNL     1      -1.037   9.293  27.194  0.00  0.00     0.063 C 
BRANCH  31  32
HETATM   32  C   UNL     1      -0.027   8.918  28.288  0.00  0.00     0.014 C 
BRANCH  32  33
HETATM   33  C   UNL     1      -0.029   7.423  28.707  0.00  0.00    -0.051 C 
HETATM   34  C   UNL     1      -1.048   6.620  27.884  0.00  0.00     0.014 C 
HETATM   35  C   UNL     1       1.376   6.849  28.442  0.00  0.00     0.014 C 
HETATM   36  C   UNL     1      -0.345   7.265  30.203  0.00  0.00     0.014 C 
ENDBRANCH  32  33
ENDBRANCH  31  32
ENDBRANCH   7  31
TORSDOF 7
ENDMDL
