MODEL 1
REMARK VINA RESULT:    -8.920      0.000      0.000
REMARK INTER + INTRA:         -12.847
REMARK INTER:                 -11.783
REMARK INTRA:                  -1.064
REMARK UNBOUND:                -1.320
REMARK  6 active torsions:
REMARK  status: ('A' for Active; 'I' for Inactive)
REMARK    1  A    between atoms: C_2  and  C_3 
REMARK    2  A    between atoms: C_6  and  C_7 
REMARK    3  A    between atoms: C_9  and  N_10 
REMARK    4  A    between atoms: C_11  and  C_12 
REMARK       I    between atoms: C_12  and  N_14 
REMARK    5  A    between atoms: N_14  and  C_15 
REMARK    6  A    between atoms: C_27  and  N_28 
ROOT
HETATM    1  C   UNL     1       7.721  13.925  22.752  0.00  0.00     0.013 C 
HETATM    2  C   UNL     1       7.291  12.778  21.988  0.00  0.00     0.035 C 
HETATM    3  C   UNL     1       6.120  11.903  21.966  0.00  0.00     0.043 C 
HETATM    4  C   UNL     1       6.072  11.062  20.864  0.00  0.00     0.097 C 
HETATM    5  S   UNL     1       7.515  11.170  19.957  0.00  0.00    -0.062 SA
HETATM    6  C   UNL     1       8.168  12.343  20.994  0.00  0.00     0.113 C 
HETATM    7  N   UNL     1       9.420  12.771  20.756  0.00  0.00    -0.227 NA
HETATM    8  C   UNL     1       9.855  13.756  21.537  0.00  0.00     0.123 C 
HETATM    9  C   UNL     1       9.057  14.382  22.496  0.00  0.00     0.096 C 
HETATM   10  C   UNL     1       9.634  15.530  23.144  0.00  0.00     0.103 C 
HETATM   11  N   UNL     1      10.136  16.447  23.647  0.00  0.00    -0.191 NA
ENDROOT
BRANCH   1  12
HETATM   12  C   UNL     1       6.785  14.687  23.642  0.00  0.00    -0.023 C 
HETATM   13  C   UNL     1       5.791  15.535  23.119  0.00  0.00     0.013 C 
HETATM   14  C   UNL     1       4.711  15.977  23.891  0.00  0.00     0.008 C 
HETATM   15  C   UNL     1       4.659  15.714  25.258  0.00  0.00    -0.059 C 
HETATM   16  C   UNL     1       5.721  15.020  25.837  0.00  0.00     0.008 C 
HETATM   17  C   UNL     1       6.733  14.474  25.033  0.00  0.00     0.013 C 
BRANCH  15  18
HETATM   18  C   UNL     1       3.441  16.094  26.060  0.00  0.00     0.034 C 
HETATM   19  C   UNL     1       2.534  14.892  26.298  0.00  0.00     0.010 C 
ENDBRANCH  15  18
ENDBRANCH   1  12
BRANCH   8  20
HETATM   20  N   UNL     1      11.205  14.074  21.375  0.00  0.00    -0.286 NA
HETATM   21  H   UNL     1      11.284  14.973  20.906  0.00  0.00     0.125 HD
HETATM   22  H   UNL     1      11.772  14.020  22.216  0.00  0.00     0.125 HD
ENDBRANCH   8  20
BRANCH   3  23
HETATM   23  N   UNL     1       5.143  11.901  22.918  0.00  0.00    -0.301 NA
HETATM   24  H   UNL     1       5.437  11.971  23.897  0.00  0.00     0.124 HD
HETATM   25  H   UNL     1       4.363  12.547  22.778  0.00  0.00     0.124 HD
ENDBRANCH   3  23
BRANCH   4  26
HETATM   26  C   UNL     1       5.047  10.109  20.403  0.00  0.00     0.265 C 
HETATM   27  O   UNL     1       4.349  10.331  19.415  0.00  0.00    -0.267 OA
HETATM   28  N   UNL     1       4.951   8.963  21.172  0.00  0.00    -0.322 N 
HETATM   29  H   UNL     1       5.646   8.881  21.906  0.00  0.00     0.169 HD
BRANCH  28  30
HETATM   30  C   UNL     1       4.052   7.876  21.030  0.00  0.00     0.037 A 
HETATM   31  C   UNL     1       3.126   7.482  22.020  0.00  0.00     0.032 A 
HETATM   32  C   UNL     1       2.262   6.396  21.819  0.00  0.00     0.042 A 
HETATM   33  C   UNL     1       2.344   5.720  20.625  0.00  0.00     0.105 A 
HETATM   34  C   UNL     1       3.242   6.087  19.655  0.00  0.00     0.107 A 
HETATM   35  O   UNL     1       1.587   4.650  20.259  0.00  0.00    -0.323 OA
HETATM   36  C   UNL     1       4.106   7.154  19.825  0.00  0.00     0.069 A 
HETATM   37  O   UNL     1       3.166   5.290  18.554  0.00  0.00    -0.323 OA
HETATM   38  C   UNL     1       2.114   4.381  18.946  0.00  0.00     0.352 A 
ENDBRANCH  28  30
ENDBRANCH   4  26
TORSDOF 6
ENDMDL
MODEL 2
REMARK VINA RESULT:    -8.553      1.590      1.640
REMARK INTER + INTRA:         -12.372
REMARK INTER:                 -11.139
REMARK INTRA:                  -1.233
REMARK UNBOUND:                -1.320
REMARK  6 active torsions:
REMARK  status: ('A' for Active; 'I' for Inactive)
REMARK    1  A    between atoms: C_2  and  C_3 
REMARK    2  A    between atoms: C_6  and  C_7 
REMARK    3  A    between atoms: C_9  and  N_10 
REMARK    4  A    between atoms: C_11  and  C_12 
REMARK       I    between atoms: C_12  and  N_14 
REMARK    5  A    between atoms: N_14  and  C_15 
REMARK    6  A    between atoms: C_27  and  N_28 
ROOT
HETATM    1  C   UNL     1       8.659  13.765  23.434  0.00  0.00     0.013 C 
HETATM    2  C   UNL     1       8.530  12.373  23.077  0.00  0.00     0.035 C 
HETATM    3  C   UNL     1       7.515  11.332  23.234  0.00  0.00     0.043 C 
HETATM    4  C   UNL     1       7.772  10.185  22.497  0.00  0.00     0.097 C 
HETATM    5  S   UNL     1       9.317  10.265  21.773  0.00  0.00    -0.062 SA
HETATM    6  C   UNL     1       9.614  11.813  22.400  0.00  0.00     0.113 C 
HETATM    7  N   UNL     1      10.815  12.371  22.166  0.00  0.00    -0.227 NA
HETATM    8  C   UNL     1      10.969  13.620  22.596  0.00  0.00     0.123 C 
HETATM    9  C   UNL     1       9.940  14.359  23.183  0.00  0.00     0.096 C 
HETATM   10  C   UNL     1      10.232  15.743  23.447  0.00  0.00     0.103 C 
HETATM   11  N   UNL     1      10.508  16.852  23.650  0.00  0.00    -0.191 NA
ENDROOT
BRANCH   1  12
HETATM   12  C   UNL     1       7.489  14.583  23.893  0.00  0.00    -0.023 C 
HETATM   13  C   UNL     1       6.642  15.241  22.983  0.00  0.00     0.013 C 
HETATM   14  C   UNL     1       5.377  15.712  23.351  0.00  0.00     0.008 C 
HETATM   15  C   UNL     1       4.967  15.680  24.682  0.00  0.00    -0.059 C 
HETATM   16  C   UNL     1       5.857  15.187  25.636  0.00  0.00     0.008 C 
HETATM   17  C   UNL     1       7.069  14.603  25.238  0.00  0.00     0.013 C 
BRANCH  15  18
HETATM   18  C   UNL     1       3.564  16.083  25.056  0.00  0.00     0.034 C 
HETATM   19  C   UNL     1       3.353  16.034  26.565  0.00  0.00     0.010 C 
ENDBRANCH  15  18
ENDBRANCH   1  12
BRANCH   8  20
HETATM   20  N   UNL     1      12.268  14.119  22.482  0.00  0.00    -0.286 NA
HETATM   21  H   UNL     1      12.307  14.780  21.711  0.00  0.00     0.125 HD
HETATM   22  H   UNL     1      12.672  14.490  23.337  0.00  0.00     0.125 HD
ENDBRANCH   8  20
BRANCH   3  23
HETATM   23  N   UNL     1       6.403  11.454  24.014  0.00  0.00    -0.301 NA
HETATM   24  H   UNL     1       6.211  10.705  24.685  0.00  0.00     0.124 HD
HETATM   25  H   UNL     1       6.276  12.347  24.497  0.00  0.00     0.124 HD
ENDBRANCH   3  23
BRANCH   4  26
HETATM   26  C   UNL     1       6.984   8.958  22.289  0.00  0.00     0.265 C 
HETATM   27  O   UNL     1       7.439   7.842  22.539  0.00  0.00    -0.267 OA
HETATM   28  N   UNL     1       5.709   9.179  21.801  0.00  0.00    -0.322 N 
HETATM   29  H   UNL     1       5.444  10.154  21.722  0.00  0.00     0.169 HD
BRANCH  28  30
HETATM   30  C   UNL     1       4.718   8.225  21.457  0.00  0.00     0.037 A 
HETATM   31  C   UNL     1       3.793   7.681  22.375  0.00  0.00     0.032 A 
HETATM   32  C   UNL     1       2.835   6.738  21.971  0.00  0.00     0.042 A 
HETATM   33  C   UNL     1       2.823   6.355  20.651  0.00  0.00     0.105 A 
HETATM   34  C   UNL     1       3.719   6.871  19.749  0.00  0.00     0.107 A 
HETATM   35  O   UNL     1       1.969   5.460  20.087  0.00  0.00    -0.323 OA
HETATM   36  C   UNL     1       4.675   7.802  20.118  0.00  0.00     0.069 A 
HETATM   37  O   UNL     1       3.543   6.361  18.499  0.00  0.00    -0.323 OA
HETATM   38  C   UNL     1       2.431   5.467  18.723  0.00  0.00     0.352 A 
ENDBRANCH  28  30
ENDBRANCH   4  26
TORSDOF 6
ENDMDL
MODEL 3
REMARK VINA RESULT:    -8.530      3.044      3.831
REMARK INTER + INTRA:         -12.343
REMARK INTER:                 -11.128
REMARK INTRA:                  -1.215
REMARK UNBOUND:                -1.320
REMARK  6 active torsions:
REMARK  status: ('A' for Active; 'I' for Inactive)
REMARK    1  A    between atoms: C_2  and  C_3 
REMARK    2  A    between atoms: C_6  and  C_7 
REMARK    3  A    between atoms: C_9  and  N_10 
REMARK    4  A    between atoms: C_11  and  C_12 
REMARK       I    between atoms: C_12  and  N_14 
REMARK    5  A    between atoms: N_14  and  C_15 
REMARK    6  A    between atoms: C_27  and  N_28 
ROOT
HETATM    1  C   UNL     1       6.522  13.301  22.638  0.00  0.00     0.013 C 
HETATM    2  C   UNL     1       6.067  11.935  22.544  0.00  0.00     0.035 C 
HETATM    3  C   UNL     1       5.199  11.055  23.325  0.00  0.00     0.043 C 
HETATM    4  C   UNL     1       4.882   9.867  22.681  0.00  0.00     0.097 C 
HETATM    5  S   UNL     1       5.772   9.709  21.232  0.00  0.00    -0.062 SA
HETATM    6  C   UNL     1       6.532  11.211  21.446  0.00  0.00     0.113 C 
HETATM    7  N   UNL     1       7.458  11.585  20.546  0.00  0.00    -0.227 NA
HETATM    8  C   UNL     1       7.959  12.808  20.701  0.00  0.00     0.123 C 
HETATM    9  C   UNL     1       7.510  13.699  21.677  0.00  0.00     0.096 C 
HETATM   10  C   UNL     1       8.048  15.032  21.606  0.00  0.00     0.103 C 
HETATM   11  N   UNL     1       8.508  16.093  21.520  0.00  0.00    -0.191 NA
ENDROOT
BRANCH   1  12
HETATM   12  C   UNL     1       5.894  14.288  23.577  0.00  0.00    -0.023 C 
HETATM   13  C   UNL     1       4.785  15.067  23.200  0.00  0.00     0.013 C 
HETATM   14  C   UNL     1       3.985  15.726  24.141  0.00  0.00     0.008 C 
HETATM   15  C   UNL     1       4.350  15.757  25.485  0.00  0.00    -0.059 C 
HETATM   16  C   UNL     1       5.540  15.136  25.862  0.00  0.00     0.008 C 
HETATM   17  C   UNL     1       6.265  14.373  24.933  0.00  0.00     0.013 C 
BRANCH  15  18
HETATM   18  C   UNL     1       3.429  16.370  26.509  0.00  0.00     0.034 C 
HETATM   19  C   UNL     1       2.331  15.396  26.924  0.00  0.00     0.010 C 
ENDBRANCH  15  18
ENDBRANCH   1  12
BRANCH   8  20
HETATM   20  N   UNL     1       9.026  13.111  19.854  0.00  0.00    -0.286 NA
HETATM   21  H   UNL     1       9.747  13.596  20.383  0.00  0.00     0.125 HD
HETATM   22  H   UNL     1       9.393  12.333  19.316  0.00  0.00     0.125 HD
ENDBRANCH   8  20
BRANCH   3  23
HETATM   23  N   UNL     1       4.720  11.351  24.567  0.00  0.00    -0.301 NA
HETATM   24  H   UNL     1       4.180  12.215  24.672  0.00  0.00     0.124 HD
HETATM   25  H   UNL     1       4.218  10.607  25.056  0.00  0.00     0.124 HD
ENDBRANCH   3  23
BRANCH   4  26
HETATM   26  C   UNL     1       3.982   8.762  23.052  0.00  0.00     0.265 C 
HETATM   27  O   UNL     1       4.132   7.623  22.612  0.00  0.00    -0.267 OA
HETATM   28  N   UNL     1       2.975   9.122  23.930  0.00  0.00    -0.322 N 
HETATM   29  H   UNL     1       3.025  10.075  24.271  0.00  0.00     0.169 HD
BRANCH  28  30
HETATM   30  C   UNL     1       1.928   8.320  24.450  0.00  0.00     0.037 A 
HETATM   31  C   UNL     1       0.824   7.873  23.691  0.00  0.00     0.032 A 
HETATM   32  C   UNL     1      -0.181   7.080  24.265  0.00  0.00     0.042 A 
HETATM   33  C   UNL     1      -0.063   6.751  25.595  0.00  0.00     0.105 A 
HETATM   34  C   UNL     1       1.000   7.183  26.346  0.00  0.00     0.107 A 
HETATM   35  O   UNL     1      -0.937   5.995  26.310  0.00  0.00    -0.323 OA
HETATM   36  C   UNL     1       2.007   7.965  25.808  0.00  0.00     0.069 A 
HETATM   37  O   UNL     1       0.928   6.753  27.636  0.00  0.00    -0.323 OA
HETATM   38  C   UNL     1      -0.304   6.000  27.604  0.00  0.00     0.352 A 
ENDBRANCH  28  30
ENDBRANCH   4  26
TORSDOF 6
ENDMDL
MODEL 4
REMARK VINA RESULT:    -8.357      4.538      6.621
REMARK INTER + INTRA:         -12.119
REMARK INTER:                 -10.948
REMARK INTRA:                  -1.171
REMARK UNBOUND:                -1.320
REMARK  6 active torsions:
REMARK  status: ('A' for Active; 'I' for Inactive)
REMARK    1  A    between atoms: C_2  and  C_3 
REMARK    2  A    between atoms: C_6  and  C_7 
REMARK    3  A    between atoms: C_9  and  N_10 
REMARK    4  A    between atoms: C_11  and  C_12 
REMARK       I    between atoms: C_12  and  N_14 
REMARK    5  A    between atoms: N_14  and  C_15 
REMARK    6  A    between atoms: C_27  and  N_28 
ROOT
HETATM    1  C   UNL     1       8.804  13.348  24.571  0.00  0.00     0.013 C 
HETATM    2  C   UNL     1       7.370  13.372  24.413  0.00  0.00     0.035 C 
HETATM    3  C   UNL     1       6.411  12.927  23.402  0.00  0.00     0.043 C 
HETATM    4  C   UNL     1       5.091  12.970  23.828  0.00  0.00     0.097 C 
HETATM    5  S   UNL     1       4.972  13.724  25.355  0.00  0.00    -0.062 SA
HETATM    6  C   UNL     1       6.650  13.950  25.459  0.00  0.00     0.113 C 
HETATM    7  N   UNL     1       7.135  14.610  26.526  0.00  0.00    -0.227 NA
HETATM    8  C   UNL     1       8.461  14.681  26.611  0.00  0.00     0.123 C 
HETATM    9  C   UNL     1       9.320  14.050  25.711  0.00  0.00     0.096 C 
HETATM   10  C   UNL     1      10.720  14.100  26.038  0.00  0.00     0.103 C 
HETATM   11  N   UNL     1      11.841  14.166  26.333  0.00  0.00    -0.191 NA
ENDROOT
BRANCH   1  12
HETATM   12  C   UNL     1       9.690  12.514  23.694  0.00  0.00    -0.023 C 
HETATM   13  C   UNL     1      10.381  13.066  22.600  0.00  0.00     0.013 C 
HETATM   14  C   UNL     1      11.454  12.407  21.989  0.00  0.00     0.008 C 
HETATM   15  C   UNL     1      11.784  11.102  22.349  0.00  0.00    -0.059 C 
HETATM   16  C   UNL     1      11.003  10.466  23.314  0.00  0.00     0.008 C 
HETATM   17  C   UNL     1      10.013  11.179  24.008  0.00  0.00     0.013 C 
BRANCH  15  18
HETATM   18  C   UNL     1      13.007  10.439  21.770  0.00  0.00     0.034 C 
HETATM   19  C   UNL     1      13.617  11.276  20.651  0.00  0.00     0.010 C 
ENDBRANCH  15  18
ENDBRANCH   1  12
BRANCH   8  20
HETATM   20  N   UNL     1       8.934  15.502  27.638  0.00  0.00    -0.286 NA
HETATM   21  H   UNL     1       9.182  16.410  27.253  0.00  0.00     0.125 HD
HETATM   22  H   UNL     1       8.334  15.572  28.454  0.00  0.00     0.125 HD
ENDBRANCH   8  20
BRANCH   3  23
HETATM   23  N   UNL     1       6.754  12.493  22.156  0.00  0.00    -0.301 NA
HETATM   24  H   UNL     1       5.996  12.216  21.526  0.00  0.00     0.124 HD
HETATM   25  H   UNL     1       7.401  13.082  21.626  0.00  0.00     0.124 HD
ENDBRANCH   3  23
BRANCH   4  26
HETATM   26  C   UNL     1       3.841  12.532  23.184  0.00  0.00     0.265 C 
HETATM   27  O   UNL     1       3.840  11.869  22.148  0.00  0.00    -0.267 OA
HETATM   28  N   UNL     1       2.692  12.927  23.847  0.00  0.00    -0.322 N 
HETATM   29  H   UNL     1       2.849  13.398  24.731  0.00  0.00     0.169 HD
BRANCH  28  30
HETATM   30  C   UNL     1       1.341  12.710  23.478  0.00  0.00     0.037 A 
HETATM   31  C   UNL     1       0.736  13.265  22.330  0.00  0.00     0.032 A 
HETATM   32  C   UNL     1      -0.608  13.012  22.020  0.00  0.00     0.042 A 
HETATM   33  C   UNL     1      -1.326  12.206  22.872  0.00  0.00     0.105 A 
HETATM   34  C   UNL     1      -0.754  11.664  23.995  0.00  0.00     0.107 A 
HETATM   35  O   UNL     1      -2.632  11.855  22.727  0.00  0.00    -0.323 OA
HETATM   36  C   UNL     1       0.570  11.896  24.326  0.00  0.00     0.069 A 
HETATM   37  O   UNL     1      -1.632  10.903  24.704  0.00  0.00    -0.323 OA
HETATM   38  C   UNL     1      -2.820  11.029  23.893  0.00  0.00     0.352 A 
ENDBRANCH  28  30
ENDBRANCH   4  26
TORSDOF 6
ENDMDL
MODEL 5
REMARK VINA RESULT:    -8.075      4.180      6.416
REMARK INTER + INTRA:         -11.755
REMARK INTER:                 -10.561
REMARK INTRA:                  -1.194
REMARK UNBOUND:                -1.320
REMARK  6 active torsions:
REMARK  status: ('A' for Active; 'I' for Inactive)
REMARK    1  A    between atoms: C_2  and  C_3 
REMARK    2  A    between atoms: C_6  and  C_7 
REMARK    3  A    between atoms: C_9  and  N_10 
REMARK    4  A    between atoms: C_11  and  C_12 
REMARK       I    between atoms: C_12  and  N_14 
REMARK    5  A    between atoms: N_14  and  C_15 
REMARK    6  A    between atoms: C_27  and  N_28 
ROOT
HETATM    1  C   UNL     1       8.105  12.848  22.770  0.00  0.00     0.013 C 
HETATM    2  C   UNL     1       6.844  13.540  22.897  0.00  0.00     0.035 C 
HETATM    3  C   UNL     1       5.444  13.159  23.077  0.00  0.00     0.043 C 
HETATM    4  C   UNL     1       4.610  14.225  23.382  0.00  0.00     0.097 C 
HETATM    5  S   UNL     1       5.452  15.706  23.260  0.00  0.00    -0.062 SA
HETATM    6  C   UNL     1       6.905  14.932  22.848  0.00  0.00     0.113 C 
HETATM    7  N   UNL     1       7.970  15.700  22.559  0.00  0.00    -0.227 NA
HETATM    8  C   UNL     1       9.109  15.052  22.333  0.00  0.00     0.123 C 
HETATM    9  C   UNL     1       9.240  13.668  22.462  0.00  0.00     0.096 C 
HETATM   10  C   UNL     1      10.576  13.148  22.334  0.00  0.00     0.103 C 
HETATM   11  N   UNL     1      11.666  12.767  22.219  0.00  0.00    -0.191 NA
ENDROOT
BRANCH   1  12
HETATM   12  C   UNL     1       8.250  11.390  23.091  0.00  0.00    -0.023 C 
HETATM   13  C   UNL     1       8.429  10.936  24.411  0.00  0.00     0.013 C 
HETATM   14  C   UNL     1       8.227   9.599  24.771  0.00  0.00     0.008 C 
HETATM   15  C   UNL     1       7.984   8.631  23.800  0.00  0.00    -0.059 C 
HETATM   16  C   UNL     1       7.971   9.026  22.462  0.00  0.00     0.008 C 
HETATM   17  C   UNL     1       8.048  10.386  22.124  0.00  0.00     0.013 C 
BRANCH  15  18
HETATM   18  C   UNL     1       7.655   7.216  24.201  0.00  0.00     0.034 C 
HETATM   19  C   UNL     1       7.257   6.373  22.995  0.00  0.00     0.010 C 
ENDBRANCH  15  18
ENDBRANCH   1  12
BRANCH   8  20
HETATM   20  N   UNL     1      10.158  15.857  21.882  0.00  0.00    -0.286 NA
HETATM   21  H   UNL     1      10.627  16.275  22.682  0.00  0.00     0.125 HD
HETATM   22  H   UNL     1      10.804  15.414  21.237  0.00  0.00     0.125 HD
ENDBRANCH   8  20
BRANCH   3  23
HETATM   23  N   UNL     1       4.975  11.882  22.974  0.00  0.00    -0.301 NA
HETATM   24  H   UNL     1       3.973  11.733  23.123  0.00  0.00     0.124 HD
HETATM   25  H   UNL     1       5.248  11.358  22.140  0.00  0.00     0.124 HD
ENDBRANCH   3  23
BRANCH   4  26
HETATM   26  C   UNL     1       3.180  14.280  23.731  0.00  0.00     0.265 C 
HETATM   27  O   UNL     1       2.693  15.238  24.330  0.00  0.00    -0.267 OA
HETATM   28  N   UNL     1       2.453  13.176  23.323  0.00  0.00    -0.322 N 
HETATM   29  H   UNL     1       2.971  12.504  22.768  0.00  0.00     0.169 HD
BRANCH  28  30
HETATM   30  C   UNL     1       1.079  12.896  23.533  0.00  0.00     0.037 A 
HETATM   31  C   UNL     1       0.081  13.062  22.548  0.00  0.00     0.032 A 
HETATM   32  C   UNL     1      -1.264  12.768  22.818  0.00  0.00     0.042 A 
HETATM   33  C   UNL     1      -1.585  12.314  24.076  0.00  0.00     0.105 A 
HETATM   34  C   UNL     1      -0.627  12.154  25.045  0.00  0.00     0.107 A 
HETATM   35  O   UNL     1      -2.830  11.981  24.510  0.00  0.00    -0.323 OA
HETATM   36  C   UNL     1       0.707  12.435  24.807  0.00  0.00     0.069 A 
HETATM   37  O   UNL     1      -1.150  11.701  26.217  0.00  0.00    -0.323 OA
HETATM   38  C   UNL     1      -2.548  11.594  25.869  0.00  0.00     0.352 A 
ENDBRANCH  28  30
ENDBRANCH   4  26
TORSDOF 6
ENDMDL
MODEL 6
REMARK VINA RESULT:    -8.064      2.689      2.924
REMARK INTER + INTRA:         -11.740
REMARK INTER:                 -10.544
REMARK INTRA:                  -1.197
REMARK UNBOUND:                -1.320
REMARK  6 active torsions:
REMARK  status: ('A' for Active; 'I' for Inactive)
REMARK    1  A    between atoms: C_2  and  C_3 
REMARK    2  A    between atoms: C_6  and  C_7 
REMARK    3  A    between atoms: C_9  and  N_10 
REMARK    4  A    between atoms: C_11  and  C_12 
REMARK       I    between atoms: C_12  and  N_14 
REMARK    5  A    between atoms: N_14  and  C_15 
REMARK    6  A    between atoms: C_27  and  N_28 
ROOT
HETATM    1  C   UNL     1       8.256  12.214  25.116  0.00  0.00     0.013 C 
HETATM    2  C   UNL     1       7.817  10.949  24.577  0.00  0.00     0.035 C 
HETATM    3  C   UNL     1       6.537  10.344  24.213  0.00  0.00     0.043 C 
HETATM    4  C   UNL     1       6.662   9.159  23.502  0.00  0.00     0.097 C 
HETATM    5  S   UNL     1       8.294   8.662  23.436  0.00  0.00    -0.062 SA
HETATM    6  C   UNL     1       8.822  10.021  24.304  0.00  0.00     0.113 C 
HETATM    7  N   UNL     1      10.128  10.107  24.612  0.00  0.00    -0.227 NA
HETATM    8  C   UNL     1      10.510  11.231  25.211  0.00  0.00     0.123 C 
HETATM    9  C   UNL     1       9.650  12.305  25.443  0.00  0.00     0.096 C 
HETATM   10  C   UNL     1      10.262  13.501  25.958  0.00  0.00     0.103 C 
HETATM   11  N   UNL     1      10.791  14.445  26.378  0.00  0.00    -0.191 NA
ENDROOT
BRANCH   1  12
HETATM   12  C   UNL     1       7.351  13.408  25.187  0.00  0.00    -0.023 C 
HETATM   13  C   UNL     1       6.991  14.134  24.037  0.00  0.00     0.013 C 
HETATM   14  C   UNL     1       5.905  15.016  24.024  0.00  0.00     0.008 C 
HETATM   15  C   UNL     1       5.226  15.324  25.201  0.00  0.00    -0.059 C 
HETATM   16  C   UNL     1       5.672  14.748  26.391  0.00  0.00     0.008 C 
HETATM   17  C   UNL     1       6.678  13.770  26.370  0.00  0.00     0.013 C 
BRANCH  15  18
HETATM   18  C   UNL     1       3.989  16.184  25.163  0.00  0.00     0.034 C 
HETATM   19  C   UNL     1       3.230  16.127  26.485  0.00  0.00     0.010 C 
ENDBRANCH  15  18
ENDBRANCH   1  12
BRANCH   8  20
HETATM   20  N   UNL     1      11.833  11.230  25.659  0.00  0.00    -0.286 NA
HETATM   21  H   UNL     1      12.061  10.310  26.027  0.00  0.00     0.125 HD
HETATM   22  H   UNL     1      12.521  11.568  24.994  0.00  0.00     0.125 HD
ENDBRANCH   8  20
BRANCH   3  23
HETATM   23  N   UNL     1       5.319  10.877  24.519  0.00  0.00    -0.301 NA
HETATM   24  H   UNL     1       5.299  11.835  24.879  0.00  0.00     0.124 HD
HETATM   25  H   UNL     1       4.590  10.795  23.807  0.00  0.00     0.124 HD
ENDBRANCH   3  23
BRANCH   4  26
HETATM   26  C   UNL     1       5.657   8.288  22.868  0.00  0.00     0.265 C 
HETATM   27  O   UNL     1       4.560   8.076  23.384  0.00  0.00    -0.267 OA
HETATM   28  N   UNL     1       6.057   7.746  21.659  0.00  0.00    -0.322 N 
HETATM   29  H   UNL     1       6.954   8.075  21.319  0.00  0.00     0.169 HD
BRANCH  28  30
HETATM   30  C   UNL     1       5.355   6.846  20.819  0.00  0.00     0.037 A 
HETATM   31  C   UNL     1       5.741   5.505  20.601  0.00  0.00     0.032 A 
HETATM   32  C   UNL     1       5.004   4.663  19.756  0.00  0.00     0.042 A 
HETATM   33  C   UNL     1       3.890   5.182  19.140  0.00  0.00     0.105 A 
HETATM   34  C   UNL     1       3.505   6.485  19.337  0.00  0.00     0.107 A 
HETATM   35  O   UNL     1       3.060   4.514  18.295  0.00  0.00    -0.323 OA
HETATM   36  C   UNL     1       4.213   7.338  20.165  0.00  0.00     0.069 A 
HETATM   37  O   UNL     1       2.383   6.802  18.636  0.00  0.00    -0.323 OA
HETATM   38  C   UNL     1       2.107   5.547  17.978  0.00  0.00     0.352 A 
ENDBRANCH  28  30
ENDBRANCH   4  26
TORSDOF 6
ENDMDL
MODEL 7
REMARK VINA RESULT:    -8.021      5.112      6.877
REMARK INTER + INTRA:         -11.686
REMARK INTER:                 -10.366
REMARK INTRA:                  -1.320
REMARK UNBOUND:                -1.320
REMARK  6 active torsions:
REMARK  status: ('A' for Active; 'I' for Inactive)
REMARK    1  A    between atoms: C_2  and  C_3 
REMARK    2  A    between atoms: C_6  and  C_7 
REMARK    3  A    between atoms: C_9  and  N_10 
REMARK    4  A    between atoms: C_11  and  C_12 
REMARK       I    between atoms: C_12  and  N_14 
REMARK    5  A    between atoms: N_14  and  C_15 
REMARK    6  A    between atoms: C_27  and  N_28 
ROOT
HETATM    1  C   UNL     1       5.943   9.778  23.491  0.00  0.00     0.013 C 
HETATM    2  C   UNL     1       4.760   9.031  23.848  0.00  0.00     0.035 C 
HETATM    3  C   UNL     1       3.522   9.299  24.577  0.00  0.00     0.043 C 
HETATM    4  C   UNL     1       2.569   8.299  24.447  0.00  0.00     0.097 C 
HETATM    5  S   UNL     1       3.215   6.951  23.621  0.00  0.00    -0.062 SA
HETATM    6  C   UNL     1       4.720   7.707  23.411  0.00  0.00     0.113 C 
HETATM    7  N   UNL     1       5.704   7.004  22.823  0.00  0.00    -0.227 NA
HETATM    8  C   UNL     1       6.835   7.666  22.595  0.00  0.00     0.123 C 
HETATM    9  C   UNL     1       6.991   9.027  22.863  0.00  0.00     0.096 C 
HETATM   10  C   UNL     1       8.223   9.619  22.413  0.00  0.00     0.103 C 
HETATM   11  N   UNL     1       9.230  10.058  22.040  0.00  0.00    -0.191 NA
ENDROOT
BRANCH   1  12
HETATM   12  C   UNL     1       6.014  11.270  23.624  0.00  0.00    -0.023 C 
HETATM   13  C   UNL     1       5.391  12.127  22.699  0.00  0.00     0.013 C 
HETATM   14  C   UNL     1       5.153  13.477  22.980  0.00  0.00     0.008 C 
HETATM   15  C   UNL     1       5.663  14.063  24.136  0.00  0.00    -0.059 C 
HETATM   16  C   UNL     1       6.434  13.275  24.991  0.00  0.00     0.008 C 
HETATM   17  C   UNL     1       6.558  11.896  24.763  0.00  0.00     0.013 C 
BRANCH  15  18
HETATM   18  C   UNL     1       5.310  15.485  24.488  0.00  0.00     0.034 C 
HETATM   19  C   UNL     1       4.112  15.977  23.683  0.00  0.00     0.010 C 
ENDBRANCH  15  18
ENDBRANCH   1  12
BRANCH   8  20
HETATM   20  N   UNL     1       7.889   6.876  22.131  0.00  0.00    -0.286 NA
HETATM   21  H   UNL     1       8.189   7.218  21.222  0.00  0.00     0.125 HD
HETATM   22  H   UNL     1       8.662   6.753  22.777  0.00  0.00     0.125 HD
ENDBRANCH   8  20
BRANCH   3  23
HETATM   23  N   UNL     1       3.291  10.424  25.314  0.00  0.00    -0.301 NA
HETATM   24  H   UNL     1       2.349  10.822  25.287  0.00  0.00     0.124 HD
HETATM   25  H   UNL     1       3.595  10.403  26.291  0.00  0.00     0.124 HD
ENDBRANCH   3  23
BRANCH   4  26
HETATM   26  C   UNL     1       1.178   8.205  24.922  0.00  0.00     0.265 C 
HETATM   27  O   UNL     1       0.268   7.804  24.197  0.00  0.00    -0.267 OA
HETATM   28  N   UNL     1       1.000   8.597  26.237  0.00  0.00    -0.322 N 
HETATM   29  H   UNL     1       1.853   8.824  26.735  0.00  0.00     0.169 HD
BRANCH  28  30
HETATM   30  C   UNL     1      -0.204   8.666  26.983  0.00  0.00     0.037 A 
HETATM   31  C   UNL     1      -0.679   7.628  27.814  0.00  0.00     0.032 A 
HETATM   32  C   UNL     1      -1.880   7.757  28.526  0.00  0.00     0.042 A 
HETATM   33  C   UNL     1      -2.589   8.927  28.390  0.00  0.00     0.105 A 
HETATM   34  C   UNL     1      -2.143   9.942  27.581  0.00  0.00     0.107 A 
HETATM   35  O   UNL     1      -3.765   9.224  29.003  0.00  0.00    -0.323 OA
HETATM   36  C   UNL     1      -0.962   9.844  26.867  0.00  0.00     0.069 A 
HETATM   37  O   UNL     1      -2.989  11.009  27.582  0.00  0.00    -0.323 OA
HETATM   38  C   UNL     1      -4.015  10.545  28.486  0.00  0.00     0.352 A 
ENDBRANCH  28  30
ENDBRANCH   4  26
TORSDOF 6
ENDMDL
MODEL 8
REMARK VINA RESULT:    -8.007      2.609      2.818
REMARK INTER + INTRA:         -11.667
REMARK INTER:                 -10.827
REMARK INTRA:                  -0.840
REMARK UNBOUND:                -1.320
REMARK  6 active torsions:
REMARK  status: ('A' for Active; 'I' for Inactive)
REMARK    1  A    between atoms: C_2  and  C_3 
REMARK    2  A    between atoms: C_6  and  C_7 
REMARK    3  A    between atoms: C_9  and  N_10 
REMARK    4  A    between atoms: C_11  and  C_12 
REMARK       I    between atoms: C_12  and  N_14 
REMARK    5  A    between atoms: N_14  and  C_15 
REMARK    6  A    between atoms: C_27  and  N_28 
ROOT
HETATM    1  C   UNL     1       8.746  14.037  22.814  0.00  0.00     0.013 C 
HETATM    2  C   UNL     1       8.848  12.597  22.822  0.00  0.00     0.035 C 
HETATM    3  C   UNL     1       8.140  11.492  23.466  0.00  0.00     0.043 C 
HETATM    4  C   UNL     1       8.475  10.244  22.961  0.00  0.00     0.097 C 
HETATM    5  S   UNL     1       9.775  10.366  21.860  0.00  0.00    -0.062 SA
HETATM    6  C   UNL     1       9.857  12.053  22.027  0.00  0.00     0.113 C 
HETATM    7  N   UNL     1      10.830  12.706  21.369  0.00  0.00    -0.227 NA
HETATM    8  C   UNL     1      10.799  14.034  21.455  0.00  0.00     0.123 C 
HETATM    9  C   UNL     1       9.785  14.734  22.110  0.00  0.00     0.096 C 
HETATM   10  C   UNL     1       9.820  16.166  21.975  0.00  0.00     0.103 C 
HETATM   11  N   UNL     1       9.886  17.317  21.847  0.00  0.00    -0.191 NA
ENDROOT
BRANCH   1  12
HETATM   12  C   UNL     1       7.553  14.756  23.369  0.00  0.00    -0.023 C 
HETATM   13  C   UNL     1       6.553  15.288  22.534  0.00  0.00     0.013 C 
HETATM   14  C   UNL     1       5.292  15.649  23.022  0.00  0.00     0.008 C 
HETATM   15  C   UNL     1       5.028  15.634  24.389  0.00  0.00    -0.059 C 
HETATM   16  C   UNL     1       6.059  15.273  25.257  0.00  0.00     0.008 C 
HETATM   17  C   UNL     1       7.276  14.793  24.750  0.00  0.00     0.013 C 
BRANCH  15  18
HETATM   18  C   UNL     1       3.638  15.914  24.899  0.00  0.00     0.034 C 
HETATM   19  C   UNL     1       3.602  15.962  26.423  0.00  0.00     0.010 C 
ENDBRANCH  15  18
ENDBRANCH   1  12
BRANCH   8  20
HETATM   20  N   UNL     1      11.904  14.679  20.897  0.00  0.00    -0.286 NA
HETATM   21  H   UNL     1      11.684  15.662  20.760  0.00  0.00     0.125 HD
HETATM   22  H   UNL     1      12.784  14.539  21.384  0.00  0.00     0.125 HD
ENDBRANCH   8  20
BRANCH   3  23
HETATM   23  N   UNL     1       7.221  11.645  24.462  0.00  0.00    -0.301 NA
HETATM   24  H   UNL     1       6.276  11.290  24.293  0.00  0.00     0.124 HD
HETATM   25  H   UNL     1       7.504  11.345  25.398  0.00  0.00     0.124 HD
ENDBRANCH   3  23
BRANCH   4  26
HETATM   26  C   UNL     1       7.945   8.899  23.245  0.00  0.00     0.265 C 
HETATM   27  O   UNL     1       7.880   8.453  24.390  0.00  0.00    -0.267 OA
HETATM   28  N   UNL     1       7.532   8.204  22.123  0.00  0.00    -0.322 N 
HETATM   29  H   UNL     1       7.569   8.729  21.256  0.00  0.00     0.169 HD
BRANCH  28  30
HETATM   30  C   UNL     1       7.017   6.886  22.041  0.00  0.00     0.037 A 
HETATM   31  C   UNL     1       7.816   5.722  22.071  0.00  0.00     0.032 A 
HETATM   32  C   UNL     1       7.245   4.444  21.985  0.00  0.00     0.042 A 
HETATM   33  C   UNL     1       5.878   4.354  21.866  0.00  0.00     0.105 A 
HETATM   34  C   UNL     1       5.089   5.476  21.829  0.00  0.00     0.107 A 
HETATM   35  O   UNL     1       5.158   3.205  21.773  0.00  0.00    -0.323 OA
HETATM   36  C   UNL     1       5.624   6.750  21.912  0.00  0.00     0.069 A 
HETATM   37  O   UNL     1       3.768   5.173  21.704  0.00  0.00    -0.323 OA
HETATM   38  C   UNL     1       3.820   3.730  21.669  0.00  0.00     0.352 A 
ENDBRANCH  28  30
ENDBRANCH   4  26
TORSDOF 6
ENDMDL
MODEL 9
REMARK VINA RESULT:    -7.891      2.029      4.941
REMARK INTER + INTRA:         -11.517
REMARK INTER:                 -10.299
REMARK INTRA:                  -1.218
REMARK UNBOUND:                -1.320
REMARK  6 active torsions:
REMARK  status: ('A' for Active; 'I' for Inactive)
REMARK    1  A    between atoms: C_2  and  C_3 
REMARK    2  A    between atoms: C_6  and  C_7 
REMARK    3  A    between atoms: C_9  and  N_10 
REMARK    4  A    between atoms: C_11  and  C_12 
REMARK       I    between atoms: C_12  and  N_14 
REMARK    5  A    between atoms: N_14  and  C_15 
REMARK    6  A    between atoms: C_27  and  N_28 
ROOT
HETATM    1  C   UNL     1       8.354  13.255  22.502  0.00  0.00     0.013 C 
HETATM    2  C   UNL     1       7.293  12.457  21.935  0.00  0.00     0.035 C 
HETATM    3  C   UNL     1       7.167  11.486  20.850  0.00  0.00     0.043 C 
HETATM    4  C   UNL     1       5.958  10.804  20.848  0.00  0.00     0.097 C 
HETATM    5  S   UNL     1       4.894  11.455  22.014  0.00  0.00    -0.062 SA
HETATM    6  C   UNL     1       6.040  12.594  22.534  0.00  0.00     0.113 C 
HETATM    7  N   UNL     1       5.670  13.479  23.476  0.00  0.00    -0.227 NA
HETATM    8  C   UNL     1       6.627  14.290  23.918  0.00  0.00     0.123 C 
HETATM    9  C   UNL     1       7.958  14.198  23.509  0.00  0.00     0.096 C 
HETATM   10  C   UNL     1       8.890  15.048  24.201  0.00  0.00     0.103 C 
HETATM   11  N   UNL     1       9.609  15.753  24.777  0.00  0.00    -0.191 NA
ENDROOT
BRANCH   1  12
HETATM   12  C   UNL     1       9.797  13.011  22.175  0.00  0.00    -0.023 C 
HETATM   13  C   UNL     1      10.518  11.949  22.752  0.00  0.00     0.013 C 
HETATM   14  C   UNL     1      11.732  11.500  22.220  0.00  0.00     0.008 C 
HETATM   15  C   UNL     1      12.351  12.190  21.180  0.00  0.00    -0.059 C 
HETATM   16  C   UNL     1      11.741  13.350  20.702  0.00  0.00     0.008 C 
HETATM   17  C   UNL     1      10.465  13.718  21.156  0.00  0.00     0.013 C 
BRANCH  15  18
HETATM   18  C   UNL     1      13.597  11.639  20.537  0.00  0.00     0.034 C 
HETATM   19  C   UNL     1      13.642  10.117  20.622  0.00  0.00     0.010 C 
ENDBRANCH  15  18
ENDBRANCH   1  12
BRANCH   8  20
HETATM   20  N   UNL     1       6.184  15.298  24.777  0.00  0.00    -0.286 NA
HETATM   21  H   UNL     1       5.313  15.007  25.215  0.00  0.00     0.125 HD
HETATM   22  H   UNL     1       6.867  15.632  25.450  0.00  0.00     0.125 HD
ENDBRANCH   8  20
BRANCH   3  23
HETATM   23  N   UNL     1       8.134  11.241  19.920  0.00  0.00    -0.301 NA
HETATM   24  H   UNL     1       9.067  11.625  20.096  0.00  0.00     0.124 HD
HETATM   25  H   UNL     1       8.248  10.271  19.619  0.00  0.00     0.124 HD
ENDBRANCH   3  23
BRANCH   4  26
HETATM   26  C   UNL     1       5.460   9.698  20.013  0.00  0.00     0.265 C 
HETATM   27  O   UNL     1       5.340   9.805  18.793  0.00  0.00    -0.267 OA
HETATM   28  N   UNL     1       5.151   8.548  20.719  0.00  0.00    -0.322 N 
HETATM   29  H   UNL     1       5.379   8.579  21.706  0.00  0.00     0.169 HD
BRANCH  28  30
HETATM   30  C   UNL     1       4.618   7.329  20.231  0.00  0.00     0.037 A 
HETATM   31  C   UNL     1       5.384   6.332  19.588  0.00  0.00     0.032 A 
HETATM   32  C   UNL     1       4.796   5.146  19.127  0.00  0.00     0.042 A 
HETATM   33  C   UNL     1       3.444   4.980  19.316  0.00  0.00     0.105 A 
HETATM   34  C   UNL     1       2.685   5.942  19.933  0.00  0.00     0.107 A 
HETATM   35  O   UNL     1       2.712   3.899  18.936  0.00  0.00    -0.323 OA
HETATM   36  C   UNL     1       3.238   7.122  20.399  0.00  0.00     0.069 A 
HETATM   37  O   UNL     1       1.374   5.587  20.018  0.00  0.00    -0.323 OA
HETATM   38  C   UNL     1       1.399   4.290  19.383  0.00  0.00     0.352 A 
ENDBRANCH  28  30
ENDBRANCH   4  26
TORSDOF 6
ENDMDL
