REMARK  6 active torsions:
REMARK  status: ('A' for Active; 'I' for Inactive)
REMARK    1  A    between atoms: C_2  and  C_3 
REMARK    2  A    between atoms: C_6  and  C_7 
REMARK    3  A    between atoms: C_9  and  N_10 
REMARK    4  A    between atoms: C_11  and  C_12 
REMARK       I    between atoms: C_12  and  N_14 
REMARK    5  A    between atoms: N_14  and  C_15 
REMARK    6  A    between atoms: C_27  and  N_28 
ROOT
HETATM    1  C   UNL     1       4.741   1.437   4.890  0.00  0.00     0.013 C 
HETATM    2  C   UNL     1       4.713   2.869   5.072  0.00  0.00     0.035 C 
HETATM    3  C   UNL     1       4.287   4.025   4.285  0.00  0.00     0.043 C 
HETATM    4  C   UNL     1       4.249   5.209   5.008  0.00  0.00     0.097 C 
HETATM    5  S   UNL     1       4.907   4.987   6.568  0.00  0.00    -0.062 SA
HETATM    6  C   UNL     1       5.198   3.338   6.293  0.00  0.00     0.113 C 
HETATM    7  N   UNL     1       5.815   2.635   7.259  0.00  0.00    -0.227 NA
HETATM    8  C   UNL     1       5.938   1.329   7.038  0.00  0.00     0.123 C 
HETATM    9  C   UNL     1       5.398   0.688   5.922  0.00  0.00     0.096 C 
HETATM   10  C   UNL     1       5.488  -0.748   5.917  0.00  0.00     0.103 C 
HETATM   11  N   UNL     1       5.585  -1.904   5.947  0.00  0.00    -0.191 NA
ENDROOT
BRANCH   1  12
HETATM   12  C   UNL     1       3.998   0.760   3.777  0.00  0.00    -0.023 C 
HETATM   13  C   UNL     1       4.458  -0.438   3.200  0.00  0.00     0.013 C 
HETATM   14  C   UNL     1       3.630  -1.253   2.420  0.00  0.00     0.008 C 
HETATM   15  C   UNL     1       2.353  -0.830   2.059  0.00  0.00    -0.059 C 
HETATM   16  C   UNL     1       1.933   0.433   2.476  0.00  0.00     0.008 C 
HETATM   17  C   UNL     1       2.721   1.185   3.361  0.00  0.00     0.013 C 
BRANCH  15  18
HETATM   18  C   UNL     1       1.426  -1.757   1.316  0.00  0.00     0.034 C 
HETATM   19  C   UNL     1       0.521  -2.525   2.273  0.00  0.00     0.010 C 
ENDBRANCH  15  18
ENDBRANCH   1  12
BRANCH   8  20
HETATM   20  N   UNL     1       6.717   0.651   7.978  0.00  0.00    -0.286 NA
HETATM   21  H   UNL     1       6.945   1.282   8.742  0.00  0.00     0.125 HD
HETATM   22  H   UNL     1       6.341  -0.235   8.301  0.00  0.00     0.125 HD
ENDBRANCH   8  20
BRANCH   3  23
HETATM   23  N   UNL     1       3.941   3.973   2.967  0.00  0.00    -0.301 NA
HETATM   24  H   UNL     1       4.149   3.110   2.457  0.00  0.00     0.124 HD
HETATM   25  H   UNL     1       2.986   4.253   2.731  0.00  0.00     0.124 HD
ENDBRANCH   3  23
BRANCH   4  26
HETATM   26  C   UNL     1       3.796   6.563   4.645  0.00  0.00     0.265 C 
HETATM   27  O   UNL     1       3.464   7.388   5.495  0.00  0.00    -0.267 OA
HETATM   28  N   UNL     1       3.786   6.812   3.284  0.00  0.00    -0.322 N 
HETATM   29  H   UNL     1       4.164   6.067   2.710  0.00  0.00     0.169 HD
BRANCH  28  30
HETATM   30  C   UNL     1       3.372   7.985   2.604  0.00  0.00     0.037 A 
HETATM   31  C   UNL     1       2.808   9.111   3.243  0.00  0.00     0.032 A 
HETATM   32  C   UNL     1       2.417  10.243   2.513  0.00  0.00     0.042 A 
HETATM   33  C   UNL     1       2.596  10.225   1.150  0.00  0.00     0.105 A 
HETATM   34  C   UNL     1       3.137   9.136   0.514  0.00  0.00     0.107 A 
HETATM   35  O   UNL     1       2.278  11.229   0.290  0.00  0.00    -0.323 OA
HETATM   36  C   UNL     1       3.532   8.006   1.208  0.00  0.00     0.069 A 
HETATM   37  O   UNL     1       3.225   9.317  -0.832  0.00  0.00    -0.323 OA
HETATM   38  C   UNL     1       2.678  10.647  -0.966  0.00  0.00     0.352 A 
ENDBRANCH  28  30
ENDBRANCH   4  26
TORSDOF 6
