MODEL 1
REMARK VINA RESULT:    -9.686      0.000      0.000
REMARK INTER + INTRA:         -12.442
REMARK INTER:                 -11.220
REMARK INTRA:                  -1.222
REMARK UNBOUND:                -1.058
REMARK  3 active torsions:
REMARK  status: ('A' for Active; 'I' for Inactive)
REMARK    1  A    between atoms: C_9  and  C_11 
REMARK    2  A    between atoms: C_23  and  N_24 
REMARK       I    between atoms: N_24  and  C_25 
REMARK    3  A    between atoms: C_25  and  C_27 
ROOT
HETATM    1  C   UNL     1       3.104   9.012  24.799  0.00  0.00     0.022 A 
HETATM    2  C   UNL     1       3.376  10.335  24.371  0.00  0.00     0.016 A 
HETATM    3  C   UNL     1       3.886  10.627  23.098  0.00  0.00     0.002 A 
HETATM    4  C   UNL     1       4.127   9.605  22.196  0.00  0.00     0.010 A 
HETATM    5  C   UNL     1       3.419   7.968  23.913  0.00  0.00    -0.003 A 
HETATM    6  C   UNL     1       3.881   8.304  22.605  0.00  0.00    -0.019 A 
HETATM    7  C   UNL     1       3.349   6.499  23.980  0.00  0.00    -0.016 A 
HETATM    8  C   UNL     1       3.626   5.966  22.699  0.00  0.00    -0.020 A 
HETATM    9  C   UNL     1       3.561   4.602  22.424  0.00  0.00     0.010 A 
HETATM   10  C   UNL     1       3.219   3.734  23.454  0.00  0.00     0.001 A 
HETATM   11  C   UNL     1       3.025   4.229  24.747  0.00  0.00     0.001 A 
HETATM   12  C   UNL     1       3.134   5.602  25.018  0.00  0.00     0.013 A 
HETATM   13  C   UNL     1       4.049   7.064  21.741  0.00  0.00     0.153 A 
ENDROOT
BRANCH  13  14
HETATM   14  N   UNL     1       3.198   7.085  20.583  0.00  0.00    -0.344 N 
HETATM   15  C   UNL     1       3.526   6.422  19.426  0.00  0.00     0.253 C 
HETATM   16  O   UNL     1       4.587   5.840  19.249  0.00  0.00    -0.268 OA
HETATM   17  H   UNL     1       2.433   7.745  20.580  0.00  0.00     0.163 HD
BRANCH  15  18
HETATM   18  C   UNL     1       2.514   6.458  18.348  0.00  0.00     0.047 A 
HETATM   19  C   UNL     1       2.772   7.204  17.192  0.00  0.00     0.037 A 
HETATM   20  C   UNL     1       1.832   7.200  16.174  0.00  0.00     0.120 A 
HETATM   21  N   UNL     1       0.663   6.522  16.185  0.00  0.00    -0.242 NA
HETATM   22  C   UNL     1       0.476   5.803  17.305  0.00  0.00     0.138 A 
HETATM   23  C   UNL     1       1.320   5.710  18.407  0.00  0.00     0.027 A 
HETATM   24  N   UNL     1      -0.614   5.006  17.532  0.00  0.00    -0.350 N 
HETATM   25  C   UNL     1       0.698   4.797  19.309  0.00  0.00     0.033 A 
HETATM   26  C   UNL     1      -0.491   4.383  18.746  0.00  0.00     0.090 A 
HETATM   27  H   UNL     1      -1.369   4.893  16.872  0.00  0.00     0.166 HD
ENDBRANCH  15  18
ENDBRANCH  13  14
BRANCH   1  28
HETATM   28  C   UNL     1       2.468   8.868  26.116  0.00  0.00     0.140 C 
HETATM   29  N   UNL     1       3.136   8.497  27.254  0.00  0.00    -0.337 N 
HETATM   30  C   UNL     1       2.309   8.680  28.327  0.00  0.00     0.080 A 
HETATM   31  H   UNL     1       4.103   8.215  27.296  0.00  0.00     0.167 HD
HETATM   32  C   UNL     1       2.521   8.688  29.692  0.00  0.00     0.148 A 
HETATM   33  C   UNL     1       1.059   8.846  27.758  0.00  0.00     0.088 A 
HETATM   34  N   UNL     1       1.445   8.787  30.504  0.00  0.00    -0.271 NA
HETATM   35  C   UNL     1       0.208   8.858  29.951  0.00  0.00     0.118 A 
HETATM   36  C   UNL     1      -0.059   8.898  28.589  0.00  0.00     0.053 A 
HETATM   37  N   UNL     1       1.170   8.953  26.387  0.00  0.00    -0.228 NA
ENDBRANCH   1  28
TORSDOF 3
ENDMDL
MODEL 2
REMARK VINA RESULT:    -9.432      1.305      1.785
REMARK INTER + INTRA:         -12.144
REMARK INTER:                 -11.131
REMARK INTRA:                  -1.013
REMARK UNBOUND:                -1.058
REMARK  3 active torsions:
REMARK  status: ('A' for Active; 'I' for Inactive)
REMARK    1  A    between atoms: C_9  and  C_11 
REMARK    2  A    between atoms: C_23  and  N_24 
REMARK       I    between atoms: N_24  and  C_25 
REMARK    3  A    between atoms: C_25  and  C_27 
ROOT
HETATM    1  C   UNL     1       3.155   9.279  25.087  0.00  0.00     0.022 A 
HETATM    2  C   UNL     1       3.106  10.605  24.593  0.00  0.00     0.016 A 
HETATM    3  C   UNL     1       3.606  10.962  23.333  0.00  0.00     0.002 A 
HETATM    4  C   UNL     1       4.161   9.998  22.509  0.00  0.00     0.010 A 
HETATM    5  C   UNL     1       3.786   8.313  24.284  0.00  0.00    -0.003 A 
HETATM    6  C   UNL     1       4.232   8.697  22.984  0.00  0.00    -0.019 A 
HETATM    7  C   UNL     1       4.092   6.881  24.438  0.00  0.00    -0.016 A 
HETATM    8  C   UNL     1       4.581   6.380  23.209  0.00  0.00    -0.020 A 
HETATM    9  C   UNL     1       4.887   5.036  23.015  0.00  0.00     0.010 A 
HETATM   10  C   UNL     1       4.713   4.157  24.078  0.00  0.00     0.001 A 
HETATM   11  C   UNL     1       4.313   4.643  25.326  0.00  0.00     0.001 A 
HETATM   12  C   UNL     1       4.047   6.007  25.517  0.00  0.00     0.013 A 
HETATM   13  C   UNL     1       4.770   7.506  22.208  0.00  0.00     0.153 A 
ENDROOT
BRANCH  13  14
HETATM   14  N   UNL     1       4.020   7.250  21.008  0.00  0.00    -0.344 N 
HETATM   15  C   UNL     1       4.593   6.680  19.898  0.00  0.00     0.253 C 
HETATM   16  O   UNL     1       5.785   6.423  19.801  0.00  0.00    -0.268 OA
HETATM   17  H   UNL     1       3.101   7.663  20.938  0.00  0.00     0.163 HD
BRANCH  15  18
HETATM   18  C   UNL     1       3.681   6.395  18.770  0.00  0.00     0.047 A 
HETATM   19  C   UNL     1       3.562   5.081  18.303  0.00  0.00     0.037 A 
HETATM   20  C   UNL     1       2.676   4.821  17.269  0.00  0.00     0.120 A 
HETATM   21  N   UNL     1       1.890   5.735  16.657  0.00  0.00    -0.242 NA
HETATM   22  C   UNL     1       2.024   6.974  17.161  0.00  0.00     0.138 A 
HETATM   23  C   UNL     1       2.868   7.388  18.186  0.00  0.00     0.027 A 
HETATM   24  N   UNL     1       1.307   8.057  16.731  0.00  0.00    -0.350 N 
HETATM   25  C   UNL     1       2.611   8.778  18.375  0.00  0.00     0.033 A 
HETATM   26  C   UNL     1       1.650   9.163  17.463  0.00  0.00     0.090 A 
HETATM   27  H   UNL     1       0.616   8.013  15.997  0.00  0.00     0.166 HD
ENDBRANCH  15  18
ENDBRANCH  13  14
BRANCH   1  28
HETATM   28  C   UNL     1       2.493   9.035  26.376  0.00  0.00     0.140 C 
HETATM   29  N   UNL     1       3.152   8.671  27.521  0.00  0.00    -0.337 N 
HETATM   30  C   UNL     1       2.281   8.748  28.572  0.00  0.00     0.080 A 
HETATM   31  H   UNL     1       4.136   8.463  27.585  0.00  0.00     0.167 HD
HETATM   32  C   UNL     1       2.449   8.719  29.943  0.00  0.00     0.148 A 
HETATM   33  C   UNL     1       1.040   8.841  27.967  0.00  0.00     0.088 A 
HETATM   34  N   UNL     1       1.344   8.703  30.721  0.00  0.00    -0.271 NA
HETATM   35  C   UNL     1       0.123   8.702  30.130  0.00  0.00     0.118 A 
HETATM   36  C   UNL     1      -0.104   8.774  28.762  0.00  0.00     0.053 A 
HETATM   37  N   UNL     1       1.184   9.010  26.606  0.00  0.00    -0.228 NA
ENDBRANCH   1  28
TORSDOF 3
ENDMDL
MODEL 3
REMARK VINA RESULT:    -9.083      1.785      2.019
REMARK INTER + INTRA:         -11.733
REMARK INTER:                 -10.483
REMARK INTRA:                  -1.250
REMARK UNBOUND:                -1.058
REMARK  3 active torsions:
REMARK  status: ('A' for Active; 'I' for Inactive)
REMARK    1  A    between atoms: C_9  and  C_11 
REMARK    2  A    between atoms: C_23  and  N_24 
REMARK       I    between atoms: N_24  and  C_25 
REMARK    3  A    between atoms: C_25  and  C_27 
ROOT
HETATM    1  C   UNL     1       3.914   7.856  23.722  0.00  0.00     0.022 A 
HETATM    2  C   UNL     1       3.893   9.227  23.371  0.00  0.00     0.016 A 
HETATM    3  C   UNL     1       4.140   9.677  22.066  0.00  0.00     0.002 A 
HETATM    4  C   UNL     1       4.401   8.767  21.056  0.00  0.00     0.010 A 
HETATM    5  C   UNL     1       4.254   6.935  22.715  0.00  0.00    -0.003 A 
HETATM    6  C   UNL     1       4.442   7.421  21.387  0.00  0.00    -0.019 A 
HETATM    7  C   UNL     1       4.439   5.475  22.669  0.00  0.00    -0.016 A 
HETATM    8  C   UNL     1       4.595   5.073  21.322  0.00  0.00    -0.020 A 
HETATM    9  C   UNL     1       4.714   3.737  20.947  0.00  0.00     0.010 A 
HETATM   10  C   UNL     1       4.687   2.766  21.940  0.00  0.00     0.001 A 
HETATM   11  C   UNL     1       4.621   3.144  23.284  0.00  0.00     0.001 A 
HETATM   12  C   UNL     1       4.542   4.496  23.649  0.00  0.00     0.013 A 
HETATM   13  C   UNL     1       4.674   6.282  20.407  0.00  0.00     0.153 A 
ENDROOT
BRANCH  13  14
HETATM   14  N   UNL     1       3.658   6.218  19.392  0.00  0.00    -0.344 N 
HETATM   15  C   UNL     1       3.968   6.169  18.055  0.00  0.00     0.253 C 
HETATM   16  O   UNL     1       5.104   6.260  17.613  0.00  0.00    -0.268 OA
HETATM   17  H   UNL     1       2.704   6.388  19.677  0.00  0.00     0.163 HD
BRANCH  15  18
HETATM   18  C   UNL     1       2.825   6.015  17.129  0.00  0.00     0.047 A 
HETATM   19  C   UNL     1       2.463   7.089  16.306  0.00  0.00     0.037 A 
HETATM   20  C   UNL     1       1.413   6.920  15.417  0.00  0.00     0.120 A 
HETATM   21  N   UNL     1       0.691   5.789  15.257  0.00  0.00    -0.242 NA
HETATM   22  C   UNL     1       1.095   4.783  16.052  0.00  0.00     0.138 A 
HETATM   23  C   UNL     1       2.122   4.801  16.990  0.00  0.00     0.027 A 
HETATM   24  N   UNL     1       0.542   3.531  16.045  0.00  0.00    -0.350 N 
HETATM   25  C   UNL     1       2.181   3.486  17.540  0.00  0.00     0.033 A 
HETATM   26  C   UNL     1       1.196   2.728  16.942  0.00  0.00     0.090 A 
HETATM   27  H   UNL     1      -0.217   3.260  15.438  0.00  0.00     0.166 HD
ENDBRANCH  15  18
ENDBRANCH  13  14
BRANCH   1  28
HETATM   28  C   UNL     1       3.528   7.527  25.101  0.00  0.00     0.140 C 
HETATM   29  N   UNL     1       4.415   7.167  26.082  0.00  0.00    -0.337 N 
HETATM   30  C   UNL     1       3.760   7.154  27.282  0.00  0.00     0.080 A 
HETATM   31  H   UNL     1       5.403   7.020  25.947  0.00  0.00     0.167 HD
HETATM   32  C   UNL     1       4.191   7.089  28.593  0.00  0.00     0.148 A 
HETATM   33  C   UNL     1       2.422   7.188  26.930  0.00  0.00     0.088 A 
HETATM   34  N   UNL     1       3.260   6.977  29.566  0.00  0.00    -0.271 NA
HETATM   35  C   UNL     1       1.950   6.918  29.219  0.00  0.00     0.118 A 
HETATM   36  C   UNL     1       1.459   7.022  27.924  0.00  0.00     0.053 A 
HETATM   37  N   UNL     1       2.291   7.411  25.575  0.00  0.00    -0.228 NA
ENDBRANCH   1  28
TORSDOF 3
ENDMDL
MODEL 4
REMARK VINA RESULT:    -8.729      0.894      1.868
REMARK INTER + INTRA:         -11.317
REMARK INTER:                 -10.131
REMARK INTRA:                  -1.186
REMARK UNBOUND:                -1.058
REMARK  3 active torsions:
REMARK  status: ('A' for Active; 'I' for Inactive)
REMARK    1  A    between atoms: C_9  and  C_11 
REMARK    2  A    between atoms: C_23  and  N_24 
REMARK       I    between atoms: N_24  and  C_25 
REMARK    3  A    between atoms: C_25  and  C_27 
ROOT
HETATM    1  C   UNL     1       3.137   8.231  25.303  0.00  0.00     0.022 A 
HETATM    2  C   UNL     1       3.425   9.477  24.696  0.00  0.00     0.016 A 
HETATM    3  C   UNL     1       3.773   9.597  23.343  0.00  0.00     0.002 A 
HETATM    4  C   UNL     1       3.829   8.471  22.539  0.00  0.00     0.010 A 
HETATM    5  C   UNL     1       3.268   7.079  24.508  0.00  0.00    -0.003 A 
HETATM    6  C   UNL     1       3.566   7.241  23.122  0.00  0.00    -0.019 A 
HETATM    7  C   UNL     1       3.122   5.634  24.751  0.00  0.00    -0.016 A 
HETATM    8  C   UNL     1       3.191   4.951  23.514  0.00  0.00    -0.020 A 
HETATM    9  C   UNL     1       3.010   3.574  23.406  0.00  0.00     0.010 A 
HETATM   10  C   UNL     1       2.762   2.846  24.564  0.00  0.00     0.001 A 
HETATM   11  C   UNL     1       2.775   3.487  25.807  0.00  0.00     0.001 A 
HETATM   12  C   UNL     1       2.999   4.868  25.903  0.00  0.00     0.013 A 
HETATM   13  C   UNL     1       3.543   5.909  22.391  0.00  0.00     0.153 A 
ENDROOT
BRANCH  13  14
HETATM   14  N   UNL     1       2.544   5.869  21.357  0.00  0.00    -0.344 N 
HETATM   15  C   UNL     1       2.781   5.286  20.137  0.00  0.00     0.253 C 
HETATM   16  O   UNL     1       3.865   4.835  19.794  0.00  0.00    -0.268 OA
HETATM   17  H   UNL     1       1.719   6.438  21.486  0.00  0.00     0.163 HD
BRANCH  15  18
HETATM   18  C   UNL     1       1.633   5.241  19.205  0.00  0.00     0.047 A 
HETATM   19  C   UNL     1       0.559   4.389  19.486  0.00  0.00     0.037 A 
HETATM   20  C   UNL     1      -0.527   4.383  18.624  0.00  0.00     0.120 A 
HETATM   21  N   UNL     1      -0.656   5.144  17.515  0.00  0.00    -0.242 NA
HETATM   22  C   UNL     1       0.391   5.961  17.306  0.00  0.00     0.138 A 
HETATM   23  C   UNL     1       1.545   6.077  18.073  0.00  0.00     0.027 A 
HETATM   24  N   UNL     1       0.473   6.851  16.269  0.00  0.00    -0.350 N 
HETATM   25  C   UNL     1       2.327   7.102  17.463  0.00  0.00     0.033 A 
HETATM   26  C   UNL     1       1.645   7.557  16.354  0.00  0.00     0.090 A 
HETATM   27  H   UNL     1      -0.249   6.967  15.575  0.00  0.00     0.166 HD
ENDBRANCH  15  18
ENDBRANCH  13  14
BRANCH   1  28
HETATM   28  C   UNL     1       2.680   8.272  26.699  0.00  0.00     0.140 C 
HETATM   29  N   UNL     1       3.510   8.145  27.783  0.00  0.00    -0.337 N 
HETATM   30  C   UNL     1       2.805   8.454  28.913  0.00  0.00     0.080 A 
HETATM   31  H   UNL     1       4.495   7.937  27.740  0.00  0.00     0.167 HD
HETATM   32  C   UNL     1       3.178   8.708  30.218  0.00  0.00     0.148 A 
HETATM   33  C   UNL     1       1.486   8.439  28.496  0.00  0.00     0.088 A 
HETATM   34  N   UNL     1       2.203   8.873  31.140  0.00  0.00    -0.271 NA
HETATM   35  C   UNL     1       0.907   8.769  30.752  0.00  0.00     0.118 A 
HETATM   36  C   UNL     1       0.476   8.558  29.449  0.00  0.00     0.053 A 
HETATM   37  N   UNL     1       1.421   8.318  27.123  0.00  0.00    -0.228 NA
ENDBRANCH   1  28
TORSDOF 3
ENDMDL
MODEL 5
REMARK VINA RESULT:    -8.676      2.927      8.684
REMARK INTER + INTRA:         -11.255
REMARK INTER:                 -10.282
REMARK INTRA:                  -0.974
REMARK UNBOUND:                -1.058
REMARK  3 active torsions:
REMARK  status: ('A' for Active; 'I' for Inactive)
REMARK    1  A    between atoms: C_9  and  C_11 
REMARK    2  A    between atoms: C_23  and  N_24 
REMARK       I    between atoms: N_24  and  C_25 
REMARK    3  A    between atoms: C_25  and  C_27 
ROOT
HETATM    1  C   UNL     1       3.358   4.604  23.170  0.00  0.00     0.022 A 
HETATM    2  C   UNL     1       3.059   3.627  24.150  0.00  0.00     0.016 A 
HETATM    3  C   UNL     1       2.842   3.950  25.497  0.00  0.00     0.002 A 
HETATM    4  C   UNL     1       2.897   5.270  25.912  0.00  0.00     0.010 A 
HETATM    5  C   UNL     1       3.491   5.935  23.601  0.00  0.00    -0.003 A 
HETATM    6  C   UNL     1       3.205   6.237  24.967  0.00  0.00    -0.019 A 
HETATM    7  C   UNL     1       3.835   7.206  22.943  0.00  0.00    -0.016 A 
HETATM    8  C   UNL     1       3.625   8.268  23.854  0.00  0.00    -0.020 A 
HETATM    9  C   UNL     1       3.792   9.604  23.499  0.00  0.00     0.010 A 
HETATM   10  C   UNL     1       4.189   9.900  22.201  0.00  0.00     0.001 A 
HETATM   11  C   UNL     1       4.486   8.865  21.309  0.00  0.00     0.001 A 
HETATM   12  C   UNL     1       4.352   7.522  21.693  0.00  0.00     0.013 A 
HETATM   13  C   UNL     1       3.271   7.733  25.229  0.00  0.00     0.153 A 
ENDROOT
BRANCH  13  14
HETATM   14  N   UNL     1       2.013   8.267  25.674  0.00  0.00    -0.344 N 
HETATM   15  C   UNL     1       1.836   8.752  26.946  0.00  0.00     0.253 C 
HETATM   16  O   UNL     1       2.688   8.697  27.823  0.00  0.00    -0.268 OA
HETATM   17  H   UNL     1       1.208   8.114  25.083  0.00  0.00     0.163 HD
BRANCH  15  18
HETATM   18  C   UNL     1       0.515   9.351  27.235  0.00  0.00     0.047 A 
HETATM   19  C   UNL     1       0.051   9.378  28.556  0.00  0.00     0.037 A 
HETATM   20  C   UNL     1      -1.171   9.975  28.819  0.00  0.00     0.120 A 
HETATM   21  N   UNL     1      -1.977  10.556  27.902  0.00  0.00    -0.242 NA
HETATM   22  C   UNL     1      -1.473  10.525  26.656  0.00  0.00     0.138 A 
HETATM   23  C   UNL     1      -0.271   9.963  26.238  0.00  0.00     0.027 A 
HETATM   24  N   UNL     1      -2.088  11.081  25.567  0.00  0.00    -0.350 N 
HETATM   25  C   UNL     1      -0.175  10.226  24.840  0.00  0.00     0.033 A 
HETATM   26  C   UNL     1      -1.308  10.911  24.454  0.00  0.00     0.090 A 
HETATM   27  H   UNL     1      -2.974  11.562  25.612  0.00  0.00     0.166 HD
ENDBRANCH  15  18
ENDBRANCH  13  14
BRANCH   1  28
HETATM   28  C   UNL     1       3.451   4.131  21.781  0.00  0.00     0.140 C 
HETATM   29  N   UNL     1       4.618   3.731  21.183  0.00  0.00    -0.337 N 
HETATM   30  C   UNL     1       4.318   3.145  19.985  0.00  0.00     0.080 A 
HETATM   31  H   UNL     1       5.534   3.788  21.599  0.00  0.00     0.167 HD
HETATM   32  C   UNL     1       5.051   2.383  19.096  0.00  0.00     0.148 A 
HETATM   33  C   UNL     1       3.003   3.510  19.758  0.00  0.00     0.088 A 
HETATM   34  N   UNL     1       4.477   2.046  17.920  0.00  0.00    -0.271 NA
HETATM   35  C   UNL     1       3.219   2.479  17.654  0.00  0.00     0.118 A 
HETATM   36  C   UNL     1       2.423   3.208  18.526  0.00  0.00     0.053 A 
HETATM   37  N   UNL     1       2.479   4.127  20.875  0.00  0.00    -0.228 NA
ENDBRANCH   1  28
TORSDOF 3
ENDMDL
MODEL 6
REMARK VINA RESULT:    -8.670      4.905      8.266
REMARK INTER + INTRA:         -11.248
REMARK INTER:                  -9.996
REMARK INTRA:                  -1.252
REMARK UNBOUND:                -1.058
REMARK  3 active torsions:
REMARK  status: ('A' for Active; 'I' for Inactive)
REMARK    1  A    between atoms: C_9  and  C_11 
REMARK    2  A    between atoms: C_23  and  N_24 
REMARK       I    between atoms: N_24  and  C_25 
REMARK    3  A    between atoms: C_25  and  C_27 
ROOT
HETATM    1  C   UNL     1       1.739   5.618  17.104  0.00  0.00     0.022 A 
HETATM    2  C   UNL     1       1.332   6.235  15.896  0.00  0.00     0.016 A 
HETATM    3  C   UNL     1       0.382   5.662  15.039  0.00  0.00     0.002 A 
HETATM    4  C   UNL     1      -0.212   4.455  15.368  0.00  0.00     0.010 A 
HETATM    5  C   UNL     1       1.195   4.357  17.403  0.00  0.00    -0.003 A 
HETATM    6  C   UNL     1       0.188   3.831  16.539  0.00  0.00    -0.019 A 
HETATM    7  C   UNL     1       1.383   3.381  18.489  0.00  0.00    -0.016 A 
HETATM    8  C   UNL     1       0.415   2.358  18.362  0.00  0.00    -0.020 A 
HETATM    9  C   UNL     1       0.288   1.326  19.287  0.00  0.00     0.010 A 
HETATM   10  C   UNL     1       1.155   1.299  20.373  0.00  0.00     0.001 A 
HETATM   11  C   UNL     1       2.175   2.250  20.474  0.00  0.00     0.001 A 
HETATM   12  C   UNL     1       2.316   3.261  19.511  0.00  0.00     0.013 A 
HETATM   13  C   UNL     1      -0.378   2.527  17.078  0.00  0.00     0.153 A 
ENDROOT
BRANCH  13  14
HETATM   14  N   UNL     1      -1.785   2.616  17.358  0.00  0.00    -0.344 N 
HETATM   15  C   UNL     1      -2.626   1.540  17.214  0.00  0.00     0.253 C 
HETATM   16  O   UNL     1      -2.279   0.458  16.763  0.00  0.00    -0.268 OA
HETATM   17  H   UNL     1      -2.175   3.538  17.495  0.00  0.00     0.163 HD
BRANCH  15  18
HETATM   18  C   UNL     1      -4.031   1.755  17.623  0.00  0.00     0.047 A 
HETATM   19  C   UNL     1      -5.012   1.920  16.638  0.00  0.00     0.037 A 
HETATM   20  C   UNL     1      -6.330   2.084  17.034  0.00  0.00     0.120 A 
HETATM   21  N   UNL     1      -6.774   2.092  18.311  0.00  0.00    -0.242 NA
HETATM   22  C   UNL     1      -5.796   1.905  19.214  0.00  0.00     0.138 A 
HETATM   23  C   UNL     1      -4.437   1.731  18.973  0.00  0.00     0.027 A 
HETATM   24  N   UNL     1      -6.005   1.837  20.565  0.00  0.00    -0.350 N 
HETATM   25  C   UNL     1      -3.830   1.532  20.248  0.00  0.00     0.033 A 
HETATM   26  C   UNL     1      -4.817   1.606  21.208  0.00  0.00     0.090 A 
HETATM   27  H   UNL     1      -6.913   1.923  20.994  0.00  0.00     0.166 HD
ENDBRANCH  15  18
ENDBRANCH  13  14
BRANCH   1  28
HETATM   28  C   UNL     1       2.659   6.388  17.955  0.00  0.00     0.140 C 
HETATM   29  N   UNL     1       2.334   6.870  19.196  0.00  0.00    -0.337 N 
HETATM   30  C   UNL     1       3.472   7.332  19.797  0.00  0.00     0.080 A 
HETATM   31  H   UNL     1       1.422   6.815  19.622  0.00  0.00     0.167 HD
HETATM   32  C   UNL     1       3.770   7.703  21.094  0.00  0.00     0.148 A 
HETATM   33  C   UNL     1       4.386   7.409  18.762  0.00  0.00     0.088 A 
HETATM   34  N   UNL     1       4.988   8.237  21.340  0.00  0.00    -0.271 NA
HETATM   35  C   UNL     1       5.856   8.399  20.310  0.00  0.00     0.118 A 
HETATM   36  C   UNL     1       5.624   8.005  18.999  0.00  0.00     0.053 A 
HETATM   37  N   UNL     1       3.868   6.828  17.623  0.00  0.00    -0.228 NA
ENDBRANCH   1  28
TORSDOF 3
ENDMDL
MODEL 7
REMARK VINA RESULT:    -8.529      2.638      9.638
REMARK INTER + INTRA:         -11.082
REMARK INTER:                 -10.024
REMARK INTRA:                  -1.058
REMARK UNBOUND:                -1.058
REMARK  3 active torsions:
REMARK  status: ('A' for Active; 'I' for Inactive)
REMARK    1  A    between atoms: C_9  and  C_11 
REMARK    2  A    between atoms: C_23  and  N_24 
REMARK       I    between atoms: N_24  and  C_25 
REMARK    3  A    between atoms: C_25  and  C_27 
ROOT
HETATM    1  C   UNL     1       2.895   3.566  17.782  0.00  0.00     0.022 A 
HETATM    2  C   UNL     1       3.552   2.374  18.173  0.00  0.00     0.016 A 
HETATM    3  C   UNL     1       4.575   2.356  19.133  0.00  0.00     0.002 A 
HETATM    4  C   UNL     1       4.966   3.531  19.752  0.00  0.00     0.010 A 
HETATM    5  C   UNL     1       3.343   4.770  18.352  0.00  0.00    -0.003 A 
HETATM    6  C   UNL     1       4.344   4.708  19.367  0.00  0.00    -0.019 A 
HETATM    7  C   UNL     1       2.985   6.188  18.186  0.00  0.00    -0.016 A 
HETATM    8  C   UNL     1       3.650   6.949  19.176  0.00  0.00    -0.020 A 
HETATM    9  C   UNL     1       3.454   8.320  19.326  0.00  0.00     0.010 A 
HETATM   10  C   UNL     1       2.575   8.961  18.462  0.00  0.00     0.001 A 
HETATM   11  C   UNL     1       1.972   8.247  17.423  0.00  0.00     0.001 A 
HETATM   12  C   UNL     1       2.211   6.874  17.259  0.00  0.00     0.013 A 
HETATM   13  C   UNL     1       4.615   6.081  19.962  0.00  0.00     0.153 A 
ENDROOT
BRANCH  13  14
HETATM   14  N   UNL     1       4.320   6.136  21.368  0.00  0.00    -0.344 N 
HETATM   15  C   UNL     1       5.295   6.356  22.309  0.00  0.00     0.253 C 
HETATM   16  O   UNL     1       6.488   6.436  22.051  0.00  0.00    -0.268 OA
HETATM   17  H   UNL     1       3.402   5.833  21.662  0.00  0.00     0.163 HD
BRANCH  15  18
HETATM   18  C   UNL     1       4.832   6.476  23.708  0.00  0.00     0.047 A 
HETATM   19  C   UNL     1       5.212   5.503  24.640  0.00  0.00     0.037 A 
HETATM   20  C   UNL     1       4.801   5.647  25.956  0.00  0.00     0.120 A 
HETATM   21  N   UNL     1       4.057   6.665  26.442  0.00  0.00    -0.242 NA
HETATM   22  C   UNL     1       3.741   7.583  25.512  0.00  0.00     0.138 A 
HETATM   23  C   UNL     1       4.074   7.576  24.162  0.00  0.00     0.027 A 
HETATM   24  N   UNL     1       3.026   8.722  25.771  0.00  0.00    -0.350 N 
HETATM   25  C   UNL     1       3.543   8.781  23.615  0.00  0.00     0.033 A 
HETATM   26  C   UNL     1       2.901   9.464  24.627  0.00  0.00     0.090 A 
HETATM   27  H   UNL     1       2.678   8.965  26.686  0.00  0.00     0.166 HD
ENDBRANCH  15  18
ENDBRANCH  13  14
BRANCH   1  28
HETATM   28  C   UNL     1       1.769   3.416  16.848  0.00  0.00     0.140 C 
HETATM   29  N   UNL     1       0.776   2.482  16.987  0.00  0.00    -0.337 N 
HETATM   30  C   UNL     1      -0.218   2.763  16.091  0.00  0.00     0.080 A 
HETATM   31  H   UNL     1       0.750   1.761  17.691  0.00  0.00     0.167 HD
HETATM   32  C   UNL     1      -1.515   2.309  15.947  0.00  0.00     0.148 A 
HETATM   33  C   UNL     1       0.366   3.666  15.221  0.00  0.00     0.088 A 
HETATM   34  N   UNL     1      -2.213   2.711  14.861  0.00  0.00    -0.271 NA
HETATM   35  C   UNL     1      -1.613   3.524  13.956  0.00  0.00     0.118 A 
HETATM   36  C   UNL     1      -0.331   4.043  14.074  0.00  0.00     0.053 A 
HETATM   37  N   UNL     1       1.600   4.057  15.696  0.00  0.00    -0.228 NA
ENDBRANCH   1  28
TORSDOF 3
ENDMDL
MODEL 8
REMARK VINA RESULT:    -8.448      2.085      9.091
REMARK INTER + INTRA:         -10.987
REMARK INTER:                  -9.834
REMARK INTRA:                  -1.153
REMARK UNBOUND:                -1.058
REMARK  3 active torsions:
REMARK  status: ('A' for Active; 'I' for Inactive)
REMARK    1  A    between atoms: C_9  and  C_11 
REMARK    2  A    between atoms: C_23  and  N_24 
REMARK       I    between atoms: N_24  and  C_25 
REMARK    3  A    between atoms: C_25  and  C_27 
ROOT
HETATM    1  C   UNL     1       2.263   4.084  20.272  0.00  0.00     0.022 A 
HETATM    2  C   UNL     1       2.027   2.806  20.834  0.00  0.00     0.016 A 
HETATM    3  C   UNL     1       2.387   2.481  22.150  0.00  0.00     0.002 A 
HETATM    4  C   UNL     1       2.982   3.433  22.962  0.00  0.00     0.010 A 
HETATM    5  C   UNL     1       2.936   5.027  21.068  0.00  0.00    -0.003 A 
HETATM    6  C   UNL     1       3.234   4.684  22.420  0.00  0.00    -0.019 A 
HETATM    7  C   UNL     1       3.411   6.405  20.858  0.00  0.00    -0.016 A 
HETATM    8  C   UNL     1       3.857   6.930  22.094  0.00  0.00    -0.020 A 
HETATM    9  C   UNL     1       4.297   8.244  22.235  0.00  0.00     0.010 A 
HETATM   10  C   UNL     1       4.304   9.064  21.113  0.00  0.00     0.001 A 
HETATM   11  C   UNL     1       3.949   8.543  19.865  0.00  0.00     0.001 A 
HETATM   12  C   UNL     1       3.546   7.205  19.732  0.00  0.00     0.013 A 
HETATM   13  C   UNL     1       3.842   5.859  23.169  0.00  0.00     0.153 A 
ENDROOT
BRANCH  13  14
HETATM   14  N   UNL     1       3.035   6.272  24.286  0.00  0.00    -0.344 N 
HETATM   15  C   UNL     1       3.580   6.872  25.394  0.00  0.00     0.253 C 
HETATM   16  O   UNL     1       4.781   7.029  25.566  0.00  0.00    -0.268 OA
HETATM   17  H   UNL     1       2.079   5.950  24.313  0.00  0.00     0.163 HD
BRANCH  15  18
HETATM   18  C   UNL     1       2.620   7.324  26.425  0.00  0.00     0.047 A 
HETATM   19  C   UNL     1       2.749   6.845  27.734  0.00  0.00     0.037 A 
HETATM   20  C   UNL     1       1.866   7.304  28.699  0.00  0.00     0.120 A 
HETATM   21  N   UNL     1       0.872   8.197  28.496  0.00  0.00    -0.242 NA
HETATM   22  C   UNL     1       0.809   8.643  27.230  0.00  0.00     0.138 A 
HETATM   23  C   UNL     1       1.616   8.276  26.158  0.00  0.00     0.027 A 
HETATM   24  N   UNL     1      -0.089   9.578  26.790  0.00  0.00    -0.350 N 
HETATM   25  C   UNL     1       1.177   9.054  25.046  0.00  0.00     0.033 A 
HETATM   26  C   UNL     1       0.125   9.842  25.464  0.00  0.00     0.090 A 
HETATM   27  H   UNL     1      -0.779  10.011  27.385  0.00  0.00     0.166 HD
ENDBRANCH  15  18
ENDBRANCH  13  14
BRANCH   1  28
HETATM   28  C   UNL     1       1.733   4.312  18.920  0.00  0.00     0.140 C 
HETATM   29  N   UNL     1       0.762   5.233  18.622  0.00  0.00    -0.337 N 
HETATM   30  C   UNL     1       0.668   5.346  17.263  0.00  0.00     0.080 A 
HETATM   31  H   UNL     1       0.262   5.791  19.297  0.00  0.00     0.167 HD
HETATM   32  C   UNL     1       0.043   6.255  16.432  0.00  0.00     0.148 A 
HETATM   33  C   UNL     1       1.361   4.245  16.790  0.00  0.00     0.088 A 
HETATM   34  N   UNL     1       0.047   6.011  15.102  0.00  0.00    -0.271 NA
HETATM   35  C   UNL     1       0.647   4.885  14.641  0.00  0.00     0.118 A 
HETATM   36  C   UNL     1       1.326   3.962  15.425  0.00  0.00     0.053 A 
HETATM   37  N   UNL     1       2.010   3.609  17.827  0.00  0.00    -0.228 NA
ENDBRANCH   1  28
TORSDOF 3
ENDMDL
