MODEL 1
REMARK VINA RESULT:    -9.331      0.000      0.000
REMARK INTER + INTRA:         -12.680
REMARK INTER:                 -11.605
REMARK INTRA:                  -1.075
REMARK UNBOUND:                -0.894
REMARK  5 active torsions:
REMARK  status: ('A' for Active; 'I' for Inactive)
REMARK    1  A    between atoms: C_7  and  N_10 
REMARK       I    between atoms: N_10  and  C_12 
REMARK    2  A    between atoms: C_12  and  C_14 
REMARK    3  A    between atoms: C_16  and  O_17 
REMARK    4  A    between atoms: C_24  and  C_25 
REMARK    5  A    between atoms: C_25  and  C_26 
ROOT
HETATM    1  C   UNL     1       7.472  12.225  21.365  0.00  0.00     0.066 A 
HETATM    2  C   UNL     1       6.763  13.346  21.870  0.00  0.00     0.035 A 
HETATM    3  C   UNL     1       8.515  11.706  22.135  0.00  0.00     0.083 A 
HETATM    4  C   UNL     1       8.944  12.309  23.327  0.00  0.00     0.069 A 
HETATM    5  C   UNL     1       8.249  13.436  23.764  0.00  0.00     0.065 A 
HETATM    6  C   UNL     1       7.173  13.979  23.068  0.00  0.00     0.020 A 
HETATM    7  N   UNL     1       8.393  14.213  24.880  0.00  0.00    -0.277 N 
HETATM    8  H   UNL     1       9.067  14.104  25.629  0.00  0.00     0.189 HD
HETATM    9  N   UNL     1       7.510  15.214  24.973  0.00  0.00    -0.178 NA
HETATM   10  C   UNL     1       6.780  15.112  23.848  0.00  0.00     0.071 A 
ENDROOT
BRANCH   1  11
HETATM   11  C   UNL     1       6.896  11.582  20.130  0.00  0.00     0.260 C 
HETATM   12  N   UNL     1       5.602  10.998  20.099  0.00  0.00    -0.318 N 
HETATM   13  C   UNL     1       4.643  11.173  21.190  0.00  0.00     0.159 C 
HETATM   14  O   UNL     1       7.668  11.591  19.163  0.00  0.00    -0.267 OA
BRANCH  12  15
HETATM   15  C   UNL     1       5.150  10.208  18.960  0.00  0.00     0.039 A 
HETATM   16  C   UNL     1       5.335   8.816  18.903  0.00  0.00     0.069 A 
HETATM   17  C   UNL     1       4.819   8.105  17.826  0.00  0.00     0.107 A 
HETATM   18  O   UNL     1       4.900   6.757  17.652  0.00  0.00    -0.323 OA
HETATM   19  C   UNL     1       4.126   8.717  16.811  0.00  0.00     0.105 A 
HETATM   20  C   UNL     1       4.212   6.600  16.394  0.00  0.00     0.352 A 
HETATM   21  O   UNL     1       3.690   7.839  15.870  0.00  0.00    -0.323 OA
HETATM   22  C   UNL     1       3.920  10.073  16.811  0.00  0.00     0.042 A 
HETATM   23  C   UNL     1       4.440  10.817  17.884  0.00  0.00     0.032 A 
ENDBRANCH  12  15
ENDBRANCH   1  11
BRANCH   3  24
HETATM   24  O   UNL     1       9.159  10.554  21.781  0.00  0.00    -0.360 OA
HETATM   25  H   UNL     1       8.605  10.129  21.106  0.00  0.00     0.217 HD
ENDBRANCH   3  24
BRANCH  10  26
HETATM   26  C   UNL     1       5.692  16.104  23.594  0.00  0.00     0.100 C 
BRANCH  26  27
HETATM   27  C   UNL     1       4.377  15.422  23.908  0.00  0.00    -0.052 A 
HETATM   28  C   UNL     1       3.831  15.517  25.196  0.00  0.00     0.007 A 
HETATM   29  C   UNL     1       2.575  14.983  25.475  0.00  0.00     0.001 A 
HETATM   30  C   UNL     1       1.859  14.319  24.483  0.00  0.00     0.007 A 
HETATM   31  C   UNL     1       2.404  14.159  23.203  0.00  0.00    -0.061 A 
HETATM   32  C   UNL     1       3.656  14.726  22.919  0.00  0.00     0.014 A 
HETATM   33  C   UNL     1       1.679  13.352  22.164  0.00  0.00     0.048 C 
ENDBRANCH  26  27
ENDBRANCH  10  26
TORSDOF 5
ENDMDL
MODEL 2
REMARK VINA RESULT:    -8.682      3.953      6.526
REMARK INTER + INTRA:         -11.860
REMARK INTER:                 -10.748
REMARK INTRA:                  -1.112
REMARK UNBOUND:                -0.894
REMARK  5 active torsions:
REMARK  status: ('A' for Active; 'I' for Inactive)
REMARK    1  A    between atoms: C_7  and  N_10 
REMARK       I    between atoms: N_10  and  C_12 
REMARK    2  A    between atoms: C_12  and  C_14 
REMARK    3  A    between atoms: C_16  and  O_17 
REMARK    4  A    between atoms: C_24  and  C_25 
REMARK    5  A    between atoms: C_25  and  C_26 
ROOT
HETATM    1  C   UNL     1       4.722  14.602  23.364  0.00  0.00     0.066 A 
HETATM    2  C   UNL     1       5.535  13.993  22.371  0.00  0.00     0.035 A 
HETATM    3  C   UNL     1       5.333  15.468  24.273  0.00  0.00     0.083 A 
HETATM    4  C   UNL     1       6.721  15.677  24.299  0.00  0.00     0.069 A 
HETATM    5  C   UNL     1       7.488  15.023  23.335  0.00  0.00     0.065 A 
HETATM    6  C   UNL     1       6.938  14.181  22.373  0.00  0.00     0.020 A 
HETATM    7  N   UNL     1       8.830  15.047  23.076  0.00  0.00    -0.277 N 
HETATM    8  H   UNL     1       9.547  15.571  23.565  0.00  0.00     0.189 HD
HETATM    9  N   UNL     1       9.205  14.296  22.035  0.00  0.00    -0.178 NA
HETATM   10  C   UNL     1       8.062  13.723  21.617  0.00  0.00     0.071 A 
ENDROOT
BRANCH   1  11
HETATM   11  C   UNL     1       3.237  14.402  23.214  0.00  0.00     0.260 C 
HETATM   12  N   UNL     1       2.650  13.128  22.994  0.00  0.00    -0.318 N 
HETATM   13  C   UNL     1       3.415  11.887  23.120  0.00  0.00     0.159 C 
HETATM   14  O   UNL     1       2.588  15.454  23.275  0.00  0.00    -0.267 OA
BRANCH  12  15
HETATM   15  C   UNL     1       1.239  12.987  22.651  0.00  0.00     0.039 A 
HETATM   16  C   UNL     1       0.270  12.668  23.616  0.00  0.00     0.069 A 
HETATM   17  C   UNL     1      -1.069  12.619  23.245  0.00  0.00     0.107 A 
HETATM   18  O   UNL     1      -2.114  12.349  24.074  0.00  0.00    -0.323 OA
HETATM   19  C   UNL     1      -1.481  12.878  21.961  0.00  0.00     0.105 A 
HETATM   20  C   UNL     1      -3.223  12.431  23.156  0.00  0.00     0.352 A 
HETATM   21  O   UNL     1      -2.830  12.799  21.818  0.00  0.00    -0.323 OA
HETATM   22  C   UNL     1      -0.578  13.190  20.977  0.00  0.00     0.042 A 
HETATM   23  C   UNL     1       0.783  13.237  21.324  0.00  0.00     0.032 A 
ENDBRANCH  12  15
ENDBRANCH   1  11
BRANCH   3  24
HETATM   24  O   UNL     1       4.602  16.191  25.173  0.00  0.00    -0.360 OA
HETATM   25  H   UNL     1       3.880  16.601  24.669  0.00  0.00     0.217 HD
ENDBRANCH   3  24
BRANCH  10  26
HETATM   26  C   UNL     1       8.103  12.776  20.462  0.00  0.00     0.100 C 
BRANCH  26  27
HETATM   27  C   UNL     1       7.294  11.555  20.851  0.00  0.00    -0.052 A 
HETATM   28  C   UNL     1       6.231  11.135  20.039  0.00  0.00     0.007 A 
HETATM   29  C   UNL     1       5.543   9.958  20.326  0.00  0.00     0.001 A 
HETATM   30  C   UNL     1       5.882   9.202  21.444  0.00  0.00     0.007 A 
HETATM   31  C   UNL     1       6.901   9.627  22.305  0.00  0.00    -0.061 A 
HETATM   32  C   UNL     1       7.612  10.796  21.993  0.00  0.00     0.014 A 
HETATM   33  C   UNL     1       7.197   8.868  23.567  0.00  0.00     0.048 C 
ENDBRANCH  26  27
ENDBRANCH  10  26
TORSDOF 5
ENDMDL
MODEL 3
REMARK VINA RESULT:    -8.583      3.863      7.063
REMARK INTER + INTRA:         -11.734
REMARK INTER:                 -10.677
REMARK INTRA:                  -1.057
REMARK UNBOUND:                -0.894
REMARK  5 active torsions:
REMARK  status: ('A' for Active; 'I' for Inactive)
REMARK    1  A    between atoms: C_7  and  N_10 
REMARK       I    between atoms: N_10  and  C_12 
REMARK    2  A    between atoms: C_12  and  C_14 
REMARK    3  A    between atoms: C_16  and  O_17 
REMARK    4  A    between atoms: C_24  and  C_25 
REMARK    5  A    between atoms: C_25  and  C_26 
ROOT
HETATM    1  C   UNL     1       7.892  13.577  22.030  0.00  0.00     0.066 A 
HETATM    2  C   UNL     1       9.013  14.216  22.622  0.00  0.00     0.035 A 
HETATM    3  C   UNL     1       8.128  12.503  21.168  0.00  0.00     0.083 A 
HETATM    4  C   UNL     1       9.422  12.106  20.796  0.00  0.00     0.069 A 
HETATM    5  C   UNL     1      10.494  12.791  21.366  0.00  0.00     0.065 A 
HETATM    6  C   UNL     1      10.330  13.841  22.265  0.00  0.00     0.020 A 
HETATM    7  N   UNL     1      11.846  12.625  21.240  0.00  0.00    -0.277 N 
HETATM    8  H   UNL     1      12.336  11.938  20.680  0.00  0.00     0.189 HD
HETATM    9  N   UNL     1      12.577  13.472  21.974  0.00  0.00    -0.178 NA
HETATM   10  C   UNL     1      11.663  14.254  22.577  0.00  0.00     0.071 A 
ENDROOT
BRANCH   1  11
HETATM   11  C   UNL     1       6.542  13.999  22.547  0.00  0.00     0.260 C 
HETATM   12  N   UNL     1       5.712  13.144  23.321  0.00  0.00    -0.318 N 
HETATM   13  C   UNL     1       6.196  11.874  23.864  0.00  0.00     0.159 C 
HETATM   14  O   UNL     1       6.221  15.145  22.211  0.00  0.00    -0.267 OA
BRANCH  12  15
HETATM   15  C   UNL     1       4.334  13.500  23.635  0.00  0.00     0.039 A 
HETATM   16  C   UNL     1       3.248  12.963  22.923  0.00  0.00     0.069 A 
HETATM   17  C   UNL     1       1.953  13.282  23.315  0.00  0.00     0.107 A 
HETATM   18  O   UNL     1       0.811  12.818  22.737  0.00  0.00    -0.323 OA
HETATM   19  C   UNL     1       1.695  14.106  24.382  0.00  0.00     0.105 A 
HETATM   20  C   UNL     1      -0.190  13.475  23.540  0.00  0.00     0.352 A 
HETATM   21  O   UNL     1       0.366  14.270  24.608  0.00  0.00    -0.323 OA
HETATM   22  C   UNL     1       2.716  14.664  25.110  0.00  0.00     0.042 A 
HETATM   23  C   UNL     1       4.034  14.364  24.729  0.00  0.00     0.032 A 
ENDBRANCH  12  15
ENDBRANCH   1  11
BRANCH   3  24
HETATM   24  O   UNL     1       7.104  11.756  20.661  0.00  0.00    -0.360 OA
HETATM   25  H   UNL     1       6.687  12.298  19.971  0.00  0.00     0.217 HD
ENDBRANCH   3  24
BRANCH  10  26
HETATM   26  C   UNL     1      12.127  15.356  23.473  0.00  0.00     0.100 C 
BRANCH  26  27
HETATM   27  C   UNL     1      11.919  14.895  24.901  0.00  0.00    -0.052 A 
HETATM   28  C   UNL     1      12.763  13.919  25.449  0.00  0.00     0.007 A 
HETATM   29  C   UNL     1      12.650  13.557  26.790  0.00  0.00     0.001 A 
HETATM   30  C   UNL     1      11.675  14.139  27.594  0.00  0.00     0.007 A 
HETATM   31  C   UNL     1      10.781  15.075  27.059  0.00  0.00    -0.061 A 
HETATM   32  C   UNL     1      10.919  15.459  25.716  0.00  0.00     0.014 A 
HETATM   33  C   UNL     1       9.663  15.624  27.898  0.00  0.00     0.048 C 
ENDBRANCH  26  27
ENDBRANCH  10  26
TORSDOF 5
ENDMDL
MODEL 4
REMARK VINA RESULT:    -8.562      2.265      4.893
REMARK INTER + INTRA:         -11.708
REMARK INTER:                 -10.993
REMARK INTRA:                  -0.715
REMARK UNBOUND:                -0.894
REMARK  5 active torsions:
REMARK  status: ('A' for Active; 'I' for Inactive)
REMARK    1  A    between atoms: C_7  and  N_10 
REMARK       I    between atoms: N_10  and  C_12 
REMARK    2  A    between atoms: C_12  and  C_14 
REMARK    3  A    between atoms: C_16  and  O_17 
REMARK    4  A    between atoms: C_24  and  C_25 
REMARK    5  A    between atoms: C_25  and  C_26 
ROOT
HETATM    1  C   UNL     1       5.477  11.783  21.064  0.00  0.00     0.066 A 
HETATM    2  C   UNL     1       6.653  12.577  21.034  0.00  0.00     0.035 A 
HETATM    3  C   UNL     1       4.392  12.241  21.814  0.00  0.00     0.083 A 
HETATM    4  C   UNL     1       4.461  13.395  22.610  0.00  0.00     0.069 A 
HETATM    5  C   UNL     1       5.651  14.121  22.588  0.00  0.00     0.065 A 
HETATM    6  C   UNL     1       6.755  13.745  21.828  0.00  0.00     0.020 A 
HETATM    7  N   UNL     1       6.015  15.285  23.209  0.00  0.00    -0.277 N 
HETATM    8  H   UNL     1       5.455  15.857  23.829  0.00  0.00     0.189 HD
HETATM    9  N   UNL     1       7.255  15.699  22.924  0.00  0.00    -0.178 NA
HETATM   10  C   UNL     1       7.740  14.743  22.110  0.00  0.00     0.071 A 
ENDROOT
BRANCH   1  11
HETATM   11  C   UNL     1       5.448  10.612  20.116  0.00  0.00     0.260 C 
HETATM   12  N   UNL     1       4.729  10.630  18.891  0.00  0.00    -0.318 N 
HETATM   13  C   UNL     1       4.149  11.859  18.348  0.00  0.00     0.159 C 
HETATM   14  O   UNL     1       6.086   9.632  20.522  0.00  0.00    -0.267 OA
BRANCH  12  15
HETATM   15  C   UNL     1       4.551   9.422  18.094  0.00  0.00     0.039 A 
HETATM   16  C   UNL     1       3.298   9.053  17.578  0.00  0.00     0.069 A 
HETATM   17  C   UNL     1       3.202   7.930  16.763  0.00  0.00     0.107 A 
HETATM   18  O   UNL     1       2.064   7.470  16.176  0.00  0.00    -0.323 OA
HETATM   19  C   UNL     1       4.296   7.167  16.440  0.00  0.00     0.105 A 
HETATM   20  C   UNL     1       2.563   6.310  15.479  0.00  0.00     0.352 A 
HETATM   21  O   UNL     1       3.987   6.131  15.617  0.00  0.00    -0.323 OA
HETATM   22  C   UNL     1       5.543   7.477  16.920  0.00  0.00     0.042 A 
HETATM   23  C   UNL     1       5.666   8.602  17.752  0.00  0.00     0.032 A 
ENDBRANCH  12  15
ENDBRANCH   1  11
BRANCH   3  24
HETATM   24  O   UNL     1       3.185  11.602  21.790  0.00  0.00    -0.360 OA
HETATM   25  H   UNL     1       2.968  11.468  20.852  0.00  0.00     0.217 HD
ENDBRANCH   3  24
BRANCH  10  26
HETATM   26  C   UNL     1       9.140  14.860  21.604  0.00  0.00     0.100 C 
BRANCH  26  27
HETATM   27  C   UNL     1      10.058  14.344  22.692  0.00  0.00    -0.052 A 
HETATM   28  C   UNL     1      10.104  12.971  22.973  0.00  0.00     0.007 A 
HETATM   29  C   UNL     1      11.016  12.468  23.899  0.00  0.00     0.001 A 
HETATM   30  C   UNL     1      11.872  13.328  24.580  0.00  0.00     0.007 A 
HETATM   31  C   UNL     1      11.809  14.710  24.361  0.00  0.00    -0.061 A 
HETATM   32  C   UNL     1      10.911  15.208  23.405  0.00  0.00     0.014 A 
HETATM   33  C   UNL     1      12.658  15.647  25.171  0.00  0.00     0.048 C 
ENDBRANCH  26  27
ENDBRANCH  10  26
TORSDOF 5
ENDMDL
MODEL 5
REMARK VINA RESULT:    -8.552      2.239      4.685
REMARK INTER + INTRA:         -11.696
REMARK INTER:                 -11.008
REMARK INTRA:                  -0.688
REMARK UNBOUND:                -0.894
REMARK  5 active torsions:
REMARK  status: ('A' for Active; 'I' for Inactive)
REMARK    1  A    between atoms: C_7  and  N_10 
REMARK       I    between atoms: N_10  and  C_12 
REMARK    2  A    between atoms: C_12  and  C_14 
REMARK    3  A    between atoms: C_16  and  O_17 
REMARK    4  A    between atoms: C_24  and  C_25 
REMARK    5  A    between atoms: C_25  and  C_26 
ROOT
HETATM    1  C   UNL     1       5.473  11.803  21.058  0.00  0.00     0.066 A 
HETATM    2  C   UNL     1       6.666  12.574  21.050  0.00  0.00     0.035 A 
HETATM    3  C   UNL     1       4.379  12.292  21.775  0.00  0.00     0.083 A 
HETATM    4  C   UNL     1       4.451  13.455  22.559  0.00  0.00     0.069 A 
HETATM    5  C   UNL     1       5.656  14.157  22.559  0.00  0.00     0.065 A 
HETATM    6  C   UNL     1       6.771  13.749  21.832  0.00  0.00     0.020 A 
HETATM    7  N   UNL     1       6.026  15.320  23.175  0.00  0.00    -0.277 N 
HETATM    8  H   UNL     1       5.462  15.911  23.774  0.00  0.00     0.189 HD
HETATM    9  N   UNL     1       7.282  15.705  22.918  0.00  0.00    -0.178 NA
HETATM   10  C   UNL     1       7.768  14.730  22.128  0.00  0.00     0.071 A 
ENDROOT
BRANCH   1  11
HETATM   11  C   UNL     1       5.445  10.621  20.124  0.00  0.00     0.260 C 
HETATM   12  N   UNL     1       4.748  10.635  18.886  0.00  0.00    -0.318 N 
HETATM   13  C   UNL     1       4.193  11.865  18.320  0.00  0.00     0.159 C 
HETATM   14  O   UNL     1       6.063   9.639  20.552  0.00  0.00    -0.267 OA
BRANCH  12  15
HETATM   15  C   UNL     1       4.567   9.420  18.101  0.00  0.00     0.039 A 
HETATM   16  C   UNL     1       3.312   9.044  17.594  0.00  0.00     0.069 A 
HETATM   17  C   UNL     1       3.213   7.914  16.790  0.00  0.00     0.107 A 
HETATM   18  O   UNL     1       2.073   7.447  16.212  0.00  0.00    -0.323 OA
HETATM   19  C   UNL     1       4.307   7.150  16.468  0.00  0.00     0.105 A 
HETATM   20  C   UNL     1       2.570   6.282  15.523  0.00  0.00     0.352 A 
HETATM   21  O   UNL     1       3.996   6.106  15.655  0.00  0.00    -0.323 OA
HETATM   22  C   UNL     1       5.556   7.466  16.938  0.00  0.00     0.042 A 
HETATM   23  C   UNL     1       5.681   8.598  17.761  0.00  0.00     0.032 A 
ENDBRANCH  12  15
ENDBRANCH   1  11
BRANCH   3  24
HETATM   24  O   UNL     1       3.161  11.677  21.727  0.00  0.00    -0.360 OA
HETATM   25  H   UNL     1       2.573  12.277  21.237  0.00  0.00     0.217 HD
ENDBRANCH   3  24
BRANCH  10  26
HETATM   26  C   UNL     1       9.183  14.814  21.657  0.00  0.00     0.100 C 
BRANCH  26  27
HETATM   27  C   UNL     1      10.072  14.704  22.878  0.00  0.00    -0.052 A 
HETATM   28  C   UNL     1      10.970  15.737  23.183  0.00  0.00     0.007 A 
HETATM   29  C   UNL     1      11.722  15.700  24.355  0.00  0.00     0.001 A 
HETATM   30  C   UNL     1      11.614  14.618  25.223  0.00  0.00     0.007 A 
HETATM   31  C   UNL     1      10.769  13.545  24.916  0.00  0.00    -0.061 A 
HETATM   32  C   UNL     1       9.990  13.602  23.750  0.00  0.00     0.014 A 
HETATM   33  C   UNL     1      10.731  12.330  25.799  0.00  0.00     0.048 C 
ENDBRANCH  26  27
ENDBRANCH  10  26
TORSDOF 5
ENDMDL
MODEL 6
REMARK VINA RESULT:    -8.538      1.297      1.865
REMARK INTER + INTRA:         -11.677
REMARK INTER:                 -11.233
REMARK INTRA:                  -0.444
REMARK UNBOUND:                -0.894
REMARK  5 active torsions:
REMARK  status: ('A' for Active; 'I' for Inactive)
REMARK    1  A    between atoms: C_7  and  N_10 
REMARK       I    between atoms: N_10  and  C_12 
REMARK    2  A    between atoms: C_12  and  C_14 
REMARK    3  A    between atoms: C_16  and  O_17 
REMARK    4  A    between atoms: C_24  and  C_25 
REMARK    5  A    between atoms: C_25  and  C_26 
ROOT
HETATM    1  C   UNL     1       8.423  12.387  21.161  0.00  0.00     0.066 A 
HETATM    2  C   UNL     1       7.781  12.464  22.425  0.00  0.00     0.035 A 
HETATM    3  C   UNL     1       9.801  12.604  21.109  0.00  0.00     0.083 A 
HETATM    4  C   UNL     1      10.546  12.988  22.236  0.00  0.00     0.069 A 
HETATM    5  C   UNL     1       9.867  13.097  23.448  0.00  0.00     0.065 A 
HETATM    6  C   UNL     1       8.503  12.853  23.578  0.00  0.00     0.020 A 
HETATM    7  N   UNL     1      10.304  13.408  24.707  0.00  0.00    -0.277 N 
HETATM    8  H   UNL     1      11.249  13.628  24.998  0.00  0.00     0.189 HD
HETATM    9  N   UNL     1       9.349  13.391  25.643  0.00  0.00    -0.178 NA
HETATM   10  C   UNL     1       8.228  13.093  24.961  0.00  0.00     0.071 A 
ENDROOT
BRANCH   1  11
HETATM   11  C   UNL     1       7.577  11.882  20.021  0.00  0.00     0.260 C 
HETATM   12  N   UNL     1       6.361  11.175  20.219  0.00  0.00    -0.318 N 
HETATM   13  C   UNL     1       5.723  11.078  21.533  0.00  0.00     0.159 C 
HETATM   14  O   UNL     1       8.057  12.121  18.906  0.00  0.00    -0.267 OA
BRANCH  12  15
HETATM   15  C   UNL     1       5.670  10.523  19.113  0.00  0.00     0.039 A 
HETATM   16  C   UNL     1       5.909   9.181  18.777  0.00  0.00     0.069 A 
HETATM   17  C   UNL     1       5.167   8.591  17.759  0.00  0.00     0.107 A 
HETATM   18  O   UNL     1       5.273   7.299  17.345  0.00  0.00    -0.323 OA
HETATM   19  C   UNL     1       4.200   9.278  17.069  0.00  0.00     0.105 A 
HETATM   20  C   UNL     1       4.288   7.266  16.291  0.00  0.00     0.352 A 
HETATM   21  O   UNL     1       3.580   8.513  16.133  0.00  0.00    -0.323 OA
HETATM   22  C   UNL     1       3.927  10.593  17.351  0.00  0.00     0.042 A 
HETATM   23  C   UNL     1       4.669  11.214  18.369  0.00  0.00     0.032 A 
ENDBRANCH  12  15
ENDBRANCH   1  11
BRANCH   3  24
HETATM   24  O   UNL     1      10.510  12.420  19.957  0.00  0.00    -0.360 OA
HETATM   25  H   UNL     1      11.424  12.686  20.155  0.00  0.00     0.217 HD
ENDBRANCH   3  24
BRANCH  10  26
HETATM   26  C   UNL     1       6.929  13.014  25.695  0.00  0.00     0.100 C 
BRANCH  26  27
HETATM   27  C   UNL     1       5.944  13.905  24.968  0.00  0.00    -0.052 A 
HETATM   28  C   UNL     1       6.232  15.266  24.791  0.00  0.00     0.007 A 
HETATM   29  C   UNL     1       5.387  16.077  24.038  0.00  0.00     0.001 A 
HETATM   30  C   UNL     1       4.226  15.552  23.477  0.00  0.00     0.007 A 
HETATM   31  C   UNL     1       3.883  14.210  23.685  0.00  0.00    -0.061 A 
HETATM   32  C   UNL     1       4.755  13.390  24.418  0.00  0.00     0.014 A 
HETATM   33  C   UNL     1       2.580  13.670  23.170  0.00  0.00     0.048 C 
ENDBRANCH  26  27
ENDBRANCH  10  26
TORSDOF 5
ENDMDL
MODEL 7
REMARK VINA RESULT:    -8.537      3.942      5.205
REMARK INTER + INTRA:         -11.676
REMARK INTER:                 -11.064
REMARK INTRA:                  -0.613
REMARK UNBOUND:                -0.894
REMARK  5 active torsions:
REMARK  status: ('A' for Active; 'I' for Inactive)
REMARK    1  A    between atoms: C_7  and  N_10 
REMARK       I    between atoms: N_10  and  C_12 
REMARK    2  A    between atoms: C_12  and  C_14 
REMARK    3  A    between atoms: C_16  and  O_17 
REMARK    4  A    between atoms: C_24  and  C_25 
REMARK    5  A    between atoms: C_25  and  C_26 
ROOT
HETATM    1  C   UNL     1       8.411  10.767  22.419  0.00  0.00     0.066 A 
HETATM    2  C   UNL     1       8.397  12.186  22.359  0.00  0.00     0.035 A 
HETATM    3  C   UNL     1       9.649  10.121  22.393  0.00  0.00     0.083 A 
HETATM    4  C   UNL     1      10.857  10.814  22.212  0.00  0.00     0.069 A 
HETATM    5  C   UNL     1      10.792  12.202  22.111  0.00  0.00     0.065 A 
HETATM    6  C   UNL     1       9.597  12.912  22.173  0.00  0.00     0.020 A 
HETATM    7  N   UNL     1      11.772  13.147  21.970  0.00  0.00    -0.277 N 
HETATM    8  H   UNL     1      12.772  12.998  21.910  0.00  0.00     0.189 HD
HETATM    9  N   UNL     1      11.322  14.407  21.933  0.00  0.00    -0.178 NA
HETATM   10  C   UNL     1       9.985  14.279  22.013  0.00  0.00     0.071 A 
ENDROOT
BRANCH   1  11
HETATM   11  C   UNL     1       7.088  10.105  22.705  0.00  0.00     0.260 C 
HETATM   12  N   UNL     1       6.278  10.453  23.818  0.00  0.00    -0.318 N 
HETATM   13  C   UNL     1       6.554  11.629  24.644  0.00  0.00     0.159 C 
HETATM   14  O   UNL     1       6.795   9.219  21.893  0.00  0.00    -0.267 OA
BRANCH  12  15
HETATM   15  C   UNL     1       5.108   9.664  24.185  0.00  0.00     0.039 A 
HETATM   16  C   UNL     1       3.814  10.210  24.182  0.00  0.00     0.069 A 
HETATM   17  C   UNL     1       2.728   9.390  24.470  0.00  0.00     0.107 A 
HETATM   18  O   UNL     1       1.423   9.775  24.479  0.00  0.00    -0.323 OA
HETATM   19  C   UNL     1       2.877   8.056  24.754  0.00  0.00     0.105 A 
HETATM   20  C   UNL     1       0.774   8.539  24.839  0.00  0.00     0.352 A 
HETATM   21  O   UNL     1       1.691   7.434  24.984  0.00  0.00    -0.323 OA
HETATM   22  C   UNL     1       4.117   7.469  24.777  0.00  0.00     0.042 A 
HETATM   23  C   UNL     1       5.231   8.279  24.499  0.00  0.00     0.032 A 
ENDBRANCH  12  15
ENDBRANCH   1  11
BRANCH   3  24
HETATM   24  O   UNL     1       9.754   8.772  22.577  0.00  0.00    -0.360 OA
HETATM   25  H   UNL     1       9.537   8.607  23.510  0.00  0.00     0.217 HD
ENDBRANCH   3  24
BRANCH  10  26
HETATM   26  C   UNL     1       9.134  15.506  21.972  0.00  0.00     0.100 C 
BRANCH  26  27
HETATM   27  C   UNL     1       8.159  15.418  23.127  0.00  0.00    -0.052 A 
HETATM   28  C   UNL     1       8.616  15.057  24.402  0.00  0.00     0.007 A 
HETATM   29  C   UNL     1       7.753  15.070  25.495  0.00  0.00     0.001 A 
HETATM   30  C   UNL     1       6.414  15.410  25.327  0.00  0.00     0.007 A 
HETATM   31  C   UNL     1       5.915  15.720  24.056  0.00  0.00    -0.061 A 
HETATM   32  C   UNL     1       6.797  15.736  22.964  0.00  0.00     0.014 A 
HETATM   33  C   UNL     1       4.450  15.984  23.857  0.00  0.00     0.048 C 
ENDBRANCH  26  27
ENDBRANCH  10  26
TORSDOF 5
ENDMDL
MODEL 8
REMARK VINA RESULT:    -8.498      2.301      4.569
REMARK INTER + INTRA:         -11.627
REMARK INTER:                 -10.540
REMARK INTRA:                  -1.087
REMARK UNBOUND:                -0.894
REMARK  5 active torsions:
REMARK  status: ('A' for Active; 'I' for Inactive)
REMARK    1  A    between atoms: C_7  and  N_10 
REMARK       I    between atoms: N_10  and  C_12 
REMARK    2  A    between atoms: C_12  and  C_14 
REMARK    3  A    between atoms: C_16  and  O_17 
REMARK    4  A    between atoms: C_24  and  C_25 
REMARK    5  A    between atoms: C_25  and  C_26 
ROOT
HETATM    1  C   UNL     1       5.133  12.305  22.304  0.00  0.00     0.066 A 
HETATM    2  C   UNL     1       6.094  13.307  22.006  0.00  0.00     0.035 A 
HETATM    3  C   UNL     1       4.623  12.249  23.603  0.00  0.00     0.083 A 
HETATM    4  C   UNL     1       5.097  13.076  24.634  0.00  0.00     0.069 A 
HETATM    5  C   UNL     1       6.074  14.015  24.309  0.00  0.00     0.065 A 
HETATM    6  C   UNL     1       6.594  14.153  23.025  0.00  0.00     0.020 A 
HETATM    7  N   UNL     1       6.699  14.970  25.062  0.00  0.00    -0.277 N 
HETATM    8  H   UNL     1       6.558  15.177  26.043  0.00  0.00     0.189 HD
HETATM    9  N   UNL     1       7.581  15.716  24.385  0.00  0.00    -0.178 NA
HETATM   10  C   UNL     1       7.560  15.201  23.143  0.00  0.00     0.071 A 
ENDROOT
BRANCH   1  11
HETATM   11  C   UNL     1       4.611  11.521  21.129  0.00  0.00     0.260 C 
HETATM   12  N   UNL     1       5.309  10.418  20.567  0.00  0.00    -0.318 N 
HETATM   13  C   UNL     1       6.473   9.820  21.223  0.00  0.00     0.159 C 
HETATM   14  O   UNL     1       3.536  11.947  20.689  0.00  0.00    -0.267 OA
BRANCH  12  15
HETATM   15  C   UNL     1       4.887   9.808  19.313  0.00  0.00     0.039 A 
HETATM   16  C   UNL     1       4.563   8.444  19.223  0.00  0.00     0.069 A 
HETATM   17  C   UNL     1       4.096   7.933  18.018  0.00  0.00     0.107 A 
HETATM   18  O   UNL     1       3.722   6.644  17.793  0.00  0.00    -0.323 OA
HETATM   19  C   UNL     1       3.935   8.720  16.904  0.00  0.00     0.105 A 
HETATM   20  C   UNL     1       3.345   6.705  16.402  0.00  0.00     0.352 A 
HETATM   21  O   UNL     1       3.448   8.030  15.841  0.00  0.00    -0.323 OA
HETATM   22  C   UNL     1       4.241  10.057  16.932  0.00  0.00     0.042 A 
HETATM   23  C   UNL     1       4.723  10.597  18.136  0.00  0.00     0.032 A 
ENDBRANCH  12  15
ENDBRANCH   1  11
BRANCH   3  24
HETATM   24  O   UNL     1       3.605  11.402  23.935  0.00  0.00    -0.360 OA
HETATM   25  H   UNL     1       3.200  11.766  24.739  0.00  0.00     0.217 HD
ENDBRANCH   3  24
BRANCH  10  26
HETATM   26  C   UNL     1       8.460  15.780  22.100  0.00  0.00     0.100 C 
BRANCH  26  27
HETATM   27  C   UNL     1       9.781  15.043  22.184  0.00  0.00    -0.052 A 
HETATM   28  C   UNL     1      10.903  15.681  22.731  0.00  0.00     0.007 A 
HETATM   29  C   UNL     1      12.096  14.985  22.908  0.00  0.00     0.001 A 
HETATM   30  C   UNL     1      12.199  13.654  22.514  0.00  0.00     0.007 A 
HETATM   31  C   UNL     1      11.112  13.008  21.912  0.00  0.00    -0.061 A 
HETATM   32  C   UNL     1       9.902  13.704  21.765  0.00  0.00     0.014 A 
HETATM   33  C   UNL     1      11.254  11.607  21.390  0.00  0.00     0.048 C 
ENDBRANCH  26  27
ENDBRANCH  10  26
TORSDOF 5
ENDMDL
MODEL 9
REMARK VINA RESULT:    -8.327      2.431      4.873
REMARK INTER + INTRA:         -11.412
REMARK INTER:                 -10.518
REMARK INTRA:                  -0.894
REMARK UNBOUND:                -0.894
REMARK  5 active torsions:
REMARK  status: ('A' for Active; 'I' for Inactive)
REMARK    1  A    between atoms: C_7  and  N_10 
REMARK       I    between atoms: N_10  and  C_12 
REMARK    2  A    between atoms: C_12  and  C_14 
REMARK    3  A    between atoms: C_16  and  O_17 
REMARK    4  A    between atoms: C_24  and  C_25 
REMARK    5  A    between atoms: C_25  and  C_26 
ROOT
HETATM    1  C   UNL     1       5.190  12.356  21.369  0.00  0.00     0.066 A 
HETATM    2  C   UNL     1       6.516  12.854  21.256  0.00  0.00     0.035 A 
HETATM    3  C   UNL     1       4.290  13.060  22.171  0.00  0.00     0.083 A 
HETATM    4  C   UNL     1       4.674  14.172  22.938  0.00  0.00     0.069 A 
HETATM    5  C   UNL     1       5.997  14.600  22.832  0.00  0.00     0.065 A 
HETATM    6  C   UNL     1       6.934  13.971  22.018  0.00  0.00     0.020 A 
HETATM    7  N   UNL     1       6.658  15.651  23.407  0.00  0.00    -0.277 N 
HETATM    8  H   UNL     1       6.286  16.342  24.046  0.00  0.00     0.189 HD
HETATM    9  N   UNL     1       7.941  15.761  23.042  0.00  0.00    -0.178 NA
HETATM   10  C   UNL     1       8.139  14.713  22.223  0.00  0.00     0.071 A 
ENDROOT
BRANCH   1  11
HETATM   11  C   UNL     1       4.832  11.218  20.449  0.00  0.00     0.260 C 
HETATM   12  N   UNL     1       5.441   9.938  20.535  0.00  0.00    -0.318 N 
HETATM   13  C   UNL     1       6.295   9.557  21.661  0.00  0.00     0.159 C 
HETATM   14  O   UNL     1       3.981  11.517  19.602  0.00  0.00    -0.267 OA
BRANCH  12  15
HETATM   15  C   UNL     1       5.226   8.922  19.512  0.00  0.00     0.039 A 
HETATM   16  C   UNL     1       4.416   7.798  19.741  0.00  0.00     0.069 A 
HETATM   17  C   UNL     1       4.189   6.900  18.704  0.00  0.00     0.107 A 
HETATM   18  O   UNL     1       3.410   5.786  18.774  0.00  0.00    -0.323 OA
HETATM   19  C   UNL     1       4.729   7.076  17.454  0.00  0.00     0.105 A 
HETATM   20  C   UNL     1       3.554   5.265  17.437  0.00  0.00     0.352 A 
HETATM   21  O   UNL     1       4.365   6.098  16.584  0.00  0.00    -0.323 OA
HETATM   22  C   UNL     1       5.532   8.152  17.174  0.00  0.00     0.042 A 
HETATM   23  C   UNL     1       5.785   9.070  18.208  0.00  0.00     0.032 A 
ENDBRANCH  12  15
ENDBRANCH   1  11
BRANCH   3  24
HETATM   24  O   UNL     1       2.969  12.721  22.229  0.00  0.00    -0.360 OA
HETATM   25  H   UNL     1       2.488  13.416  21.749  0.00  0.00     0.217 HD
ENDBRANCH   3  24
BRANCH  10  26
HETATM   26  C   UNL     1       9.495  14.497  21.634  0.00  0.00     0.100 C 
BRANCH  26  27
HETATM   27  C   UNL     1      10.476  14.395  22.784  0.00  0.00    -0.052 A 
HETATM   28  C   UNL     1      11.592  15.242  22.828  0.00  0.00     0.007 A 
HETATM   29  C   UNL     1      12.446  15.232  23.927  0.00  0.00     0.001 A 
HETATM   30  C   UNL     1      12.221  14.354  24.984  0.00  0.00     0.007 A 
HETATM   31  C   UNL     1      11.147  13.456  24.941  0.00  0.00    -0.061 A 
HETATM   32  C   UNL     1      10.271  13.493  23.846  0.00  0.00     0.014 A 
HETATM   33  C   UNL     1      10.964  12.438  26.030  0.00  0.00     0.048 C 
ENDBRANCH  26  27
ENDBRANCH  10  26
TORSDOF 5
ENDMDL
