MODEL 1
REMARK VINA RESULT:    -6.671      0.000      0.000
REMARK INTER + INTRA:          -8.772
REMARK INTER:                  -7.917
REMARK INTRA:                  -0.855
REMARK UNBOUND:                -0.932
REMARK  4 active torsions:
REMARK  status: ('A' for Active; 'I' for Inactive)
REMARK    1  A    between atoms: O_1  and  C_2 
REMARK    2  A    between atoms: C_5  and  C_6 
REMARK    3  A    between atoms: N_12  and  C_13 
REMARK    4  A    between atoms: C_20  and  O_21 
ROOT
HETATM    1  C   UNL     1      -1.961  11.684  22.814  0.00  0.00     0.170 A 
HETATM    2  N   UNL     1      -2.395  11.104  21.721  0.00  0.00    -0.153 NA
HETATM    3  N   UNL     1      -1.502  11.427  20.765  0.00  0.00    -0.251 N 
HETATM    4  H   UNL     1      -1.544  11.028  19.828  0.00  0.00     0.191 HD
HETATM    5  C   UNL     1      -0.465  12.178  21.289  0.00  0.00     0.201 A 
HETATM    6  S   UNL     1       0.867  12.538  20.360  0.00  0.00    -0.038 SA
HETATM    7  N   UNL     1      -0.791  12.403  22.626  0.00  0.00    -0.266 N 
ENDROOT
BRANCH   1   8
HETATM    8  C   UNL     1      -2.732  11.485  24.069  0.00  0.00     0.045 C 
HETATM    9  C   UNL     1      -2.026  10.850  25.114  0.00  0.00     0.021 C 
HETATM   10  C   UNL     1      -2.583  10.711  26.386  0.00  0.00     0.037 C 
HETATM   11  C   UNL     1      -3.846  11.225  26.628  0.00  0.00     0.068 C 
HETATM   12  C   UNL     1      -4.594  11.782  25.595  0.00  0.00     0.074 C 
HETATM   13  C   UNL     1      -4.060  11.853  24.303  0.00  0.00     0.082 C 
BRANCH  11  14
HETATM   14  O   UNL     1      -4.392  11.198  27.878  0.00  0.00    -0.361 OA
HETATM   15  H   UNL     1      -5.160  11.792  27.896  0.00  0.00     0.217 HD
ENDBRANCH  11  14
BRANCH  13  16
HETATM   16  O   UNL     1      -4.926  12.277  23.335  0.00  0.00    -0.360 OA
HETATM   17  H   UNL     1      -5.464  13.006  23.686  0.00  0.00     0.217 HD
ENDBRANCH  13  16
ENDBRANCH   1   8
BRANCH   7  18
HETATM   18  C   UNL     1      -0.030  13.186  23.548  0.00  0.00     0.082 A 
HETATM   19  C   UNL     1       1.291  12.812  23.868  0.00  0.00     0.033 A 
HETATM   20  C   UNL     1       2.117  13.626  24.651  0.00  0.00     0.002 A 
HETATM   21  C   UNL     1       1.654  14.855  25.106  0.00  0.00     0.003 A 
HETATM   22  C   UNL     1       0.339  15.225  24.843  0.00  0.00     0.044 A 
HETATM   23  C   UNL     1      -0.498  14.375  24.115  0.00  0.00     0.143 A 
HETATM   24  F   UNL     1      -1.787  14.726  23.998  0.00  0.00    -0.204 F 
ENDBRANCH   7  18
TORSDOF 4
ENDMDL
MODEL 2
REMARK VINA RESULT:    -6.575      2.441      3.701
REMARK INTER + INTRA:          -8.660
REMARK INTER:                  -7.844
REMARK INTRA:                  -0.816
REMARK UNBOUND:                -0.932
REMARK  4 active torsions:
REMARK  status: ('A' for Active; 'I' for Inactive)
REMARK    1  A    between atoms: O_1  and  C_2 
REMARK    2  A    between atoms: C_5  and  C_6 
REMARK    3  A    between atoms: N_12  and  C_13 
REMARK    4  A    between atoms: C_20  and  O_21 
ROOT
HETATM    1  C   UNL     1      -0.851  12.697  24.062  0.00  0.00     0.170 A 
HETATM    2  N   UNL     1       0.415  12.596  24.388  0.00  0.00    -0.153 NA
HETATM    3  N   UNL     1       1.089  13.238  23.414  0.00  0.00    -0.251 N 
HETATM    4  H   UNL     1       2.095  13.395  23.465  0.00  0.00     0.191 HD
HETATM    5  C   UNL     1       0.220  13.796  22.494  0.00  0.00     0.201 A 
HETATM    6  S   UNL     1       0.789  14.808  21.303  0.00  0.00    -0.038 SA
HETATM    7  N   UNL     1      -1.058  13.392  22.880  0.00  0.00    -0.266 N 
ENDROOT
BRANCH   1   8
HETATM    8  C   UNL     1      -1.863  12.102  24.973  0.00  0.00     0.045 C 
HETATM    9  C   UNL     1      -1.877  12.631  26.282  0.00  0.00     0.021 C 
HETATM   10  C   UNL     1      -2.854  12.256  27.206  0.00  0.00     0.037 C 
HETATM   11  C   UNL     1      -3.837  11.360  26.819  0.00  0.00     0.068 C 
HETATM   12  C   UNL     1      -3.797  10.763  25.562  0.00  0.00     0.074 C 
HETATM   13  C   UNL     1      -2.773  11.088  24.665  0.00  0.00     0.082 C 
BRANCH  11  14
HETATM   14  O   UNL     1      -4.866  11.036  27.654  0.00  0.00    -0.361 OA
HETATM   15  H   UNL     1      -5.347  11.847  27.888  0.00  0.00     0.217 HD
ENDBRANCH  11  14
BRANCH  13  16
HETATM   16  O   UNL     1      -2.738  10.339  23.523  0.00  0.00    -0.360 OA
HETATM   17  H   UNL     1      -3.640  10.248  23.173  0.00  0.00     0.217 HD
ENDBRANCH  13  16
ENDBRANCH   1   8
BRANCH   7  18
HETATM   18  C   UNL     1      -2.270  13.689  22.183  0.00  0.00     0.082 A 
HETATM   19  C   UNL     1      -3.218  14.561  22.756  0.00  0.00     0.033 A 
HETATM   20  C   UNL     1      -4.347  14.989  22.049  0.00  0.00     0.002 A 
HETATM   21  C   UNL     1      -4.539  14.583  20.734  0.00  0.00     0.003 A 
HETATM   22  C   UNL     1      -3.643  13.685  20.162  0.00  0.00     0.044 A 
HETATM   23  C   UNL     1      -2.554  13.214  20.899  0.00  0.00     0.143 A 
HETATM   24  F   UNL     1      -1.795  12.259  20.342  0.00  0.00    -0.204 F 
ENDBRANCH   7  18
TORSDOF 4
ENDMDL
MODEL 3
REMARK VINA RESULT:    -6.485      2.336      3.091
REMARK INTER + INTRA:          -8.554
REMARK INTER:                  -7.700
REMARK INTRA:                  -0.854
REMARK UNBOUND:                -0.932
REMARK  4 active torsions:
REMARK  status: ('A' for Active; 'I' for Inactive)
REMARK    1  A    between atoms: O_1  and  C_2 
REMARK    2  A    between atoms: C_5  and  C_6 
REMARK    3  A    between atoms: N_12  and  C_13 
REMARK    4  A    between atoms: C_20  and  O_21 
ROOT
HETATM    1  C   UNL     1      -3.345  11.944  24.589  0.00  0.00     0.170 A 
HETATM    2  N   UNL     1      -4.461  11.523  24.046  0.00  0.00    -0.153 NA
HETATM    3  N   UNL     1      -4.772  12.439  23.108  0.00  0.00    -0.251 N 
HETATM    4  H   UNL     1      -5.550  12.310  22.463  0.00  0.00     0.191 HD
HETATM    5  C   UNL     1      -3.800  13.420  23.031  0.00  0.00     0.201 A 
HETATM    6  S   UNL     1      -3.845  14.558  21.820  0.00  0.00    -0.038 SA
HETATM    7  N   UNL     1      -2.886  13.135  24.046  0.00  0.00    -0.266 N 
ENDROOT
BRANCH   1   8
HETATM    8  C   UNL     1      -2.725  11.116  25.656  0.00  0.00     0.045 C 
HETATM    9  C   UNL     1      -1.654  10.297  25.235  0.00  0.00     0.021 C 
HETATM   10  C   UNL     1      -0.900   9.562  26.150  0.00  0.00     0.037 C 
HETATM   11  C   UNL     1      -1.199   9.656  27.499  0.00  0.00     0.068 C 
HETATM   12  C   UNL     1      -2.300  10.392  27.931  0.00  0.00     0.074 C 
HETATM   13  C   UNL     1      -3.098  11.068  27.002  0.00  0.00     0.082 C 
BRANCH  11  14
HETATM   14  O   UNL     1      -0.432   9.032  28.439  0.00  0.00    -0.361 OA
HETATM   15  H   UNL     1       0.308   9.615  28.675  0.00  0.00     0.217 HD
ENDBRANCH  11  14
BRANCH  13  16
HETATM   16  O   UNL     1      -4.234  11.633  27.509  0.00  0.00    -0.360 OA
HETATM   17  H   UNL     1      -4.880  11.747  26.791  0.00  0.00     0.217 HD
ENDBRANCH  13  16
ENDBRANCH   1   8
BRANCH   7  18
HETATM   18  C   UNL     1      -1.740  13.921  24.378  0.00  0.00     0.082 A 
HETATM   19  C   UNL     1      -1.686  14.605  25.609  0.00  0.00     0.033 A 
HETATM   20  C   UNL     1      -0.528  15.266  26.034  0.00  0.00     0.002 A 
HETATM   21  C   UNL     1       0.620  15.229  25.253  0.00  0.00     0.003 A 
HETATM   22  C   UNL     1       0.579  14.601  24.012  0.00  0.00     0.044 A 
HETATM   23  C   UNL     1      -0.602  13.999  23.569  0.00  0.00     0.143 A 
HETATM   24  F   UNL     1      -0.620  13.517  22.318  0.00  0.00    -0.204 F 
ENDBRANCH   7  18
TORSDOF 4
ENDMDL
MODEL 4
REMARK VINA RESULT:    -6.434      2.556      3.200
REMARK INTER + INTRA:          -8.494
REMARK INTER:                  -7.476
REMARK INTRA:                  -1.017
REMARK UNBOUND:                -0.932
REMARK  4 active torsions:
REMARK  status: ('A' for Active; 'I' for Inactive)
REMARK    1  A    between atoms: O_1  and  C_2 
REMARK    2  A    between atoms: C_5  and  C_6 
REMARK    3  A    between atoms: N_12  and  C_13 
REMARK    4  A    between atoms: C_20  and  O_21 
ROOT
HETATM    1  C   UNL     1      -3.338  12.559  23.177  0.00  0.00     0.170 A 
HETATM    2  N   UNL     1      -4.646  12.574  23.088  0.00  0.00    -0.153 NA
HETATM    3  N   UNL     1      -4.926  13.401  22.062  0.00  0.00    -0.251 N 
HETATM    4  H   UNL     1      -5.874  13.523  21.709  0.00  0.00     0.191 HD
HETATM    5  C   UNL     1      -3.766  13.865  21.468  0.00  0.00     0.201 A 
HETATM    6  S   UNL     1      -3.836  14.743  20.057  0.00  0.00    -0.038 SA
HETATM    7  N   UNL     1      -2.715  13.364  22.235  0.00  0.00    -0.266 N 
ENDROOT
BRANCH   1   8
HETATM    8  C   UNL     1      -2.713  11.700  24.217  0.00  0.00     0.045 C 
HETATM    9  C   UNL     1      -1.911  10.648  23.723  0.00  0.00     0.021 C 
HETATM   10  C   UNL     1      -1.164   9.840  24.582  0.00  0.00     0.037 C 
HETATM   11  C   UNL     1      -1.200  10.092  25.944  0.00  0.00     0.068 C 
HETATM   12  C   UNL     1      -2.045  11.070  26.461  0.00  0.00     0.074 C 
HETATM   13  C   UNL     1      -2.848  11.828  25.601  0.00  0.00     0.082 C 
BRANCH  11  14
HETATM   14  O   UNL     1      -0.416   9.392  26.813  0.00  0.00    -0.361 OA
HETATM   15  H   UNL     1      -0.719   8.470  26.835  0.00  0.00     0.217 HD
ENDBRANCH  11  14
BRANCH  13  16
HETATM   16  O   UNL     1      -3.747  12.652  26.216  0.00  0.00    -0.360 OA
HETATM   17  H   UNL     1      -4.634  12.483  25.855  0.00  0.00     0.217 HD
ENDBRANCH  13  16
ENDBRANCH   1   8
BRANCH   7  18
HETATM   18  C   UNL     1      -1.328  13.635  22.024  0.00  0.00     0.082 A 
HETATM   19  C   UNL     1      -0.702  14.690  22.718  0.00  0.00     0.033 A 
HETATM   20  C   UNL     1       0.680  14.899  22.649  0.00  0.00     0.002 A 
HETATM   21  C   UNL     1       1.478  14.033  21.912  0.00  0.00     0.003 A 
HETATM   22  C   UNL     1       0.879  13.013  21.180  0.00  0.00     0.044 A 
HETATM   23  C   UNL     1      -0.509  12.853  21.204  0.00  0.00     0.143 A 
HETATM   24  F   UNL     1      -1.041  11.933  20.386  0.00  0.00    -0.204 F 
ENDBRANCH   7  18
TORSDOF 4
ENDMDL
MODEL 5
REMARK VINA RESULT:    -6.394      2.574      3.850
REMARK INTER + INTRA:          -8.447
REMARK INTER:                  -7.495
REMARK INTRA:                  -0.952
REMARK UNBOUND:                -0.932
REMARK  4 active torsions:
REMARK  status: ('A' for Active; 'I' for Inactive)
REMARK    1  A    between atoms: O_1  and  C_2 
REMARK    2  A    between atoms: C_5  and  C_6 
REMARK    3  A    between atoms: N_12  and  C_13 
REMARK    4  A    between atoms: C_20  and  O_21 
ROOT
HETATM    1  C   UNL     1      -2.231  11.653  23.424  0.00  0.00     0.170 A 
HETATM    2  N   UNL     1      -2.708  10.435  23.336  0.00  0.00    -0.153 NA
HETATM    3  N   UNL     1      -1.981   9.702  24.201  0.00  0.00    -0.251 N 
HETATM    4  H   UNL     1      -2.204   8.729  24.406  0.00  0.00     0.191 HD
HETATM    5  C   UNL     1      -1.071  10.493  24.880  0.00  0.00     0.201 A 
HETATM    6  S   UNL     1      -0.189   9.868  26.144  0.00  0.00    -0.038 SA
HETATM    7  N   UNL     1      -1.187  11.769  24.330  0.00  0.00    -0.266 N 
ENDROOT
BRANCH   1   8
HETATM    8  C   UNL     1      -2.858  12.717  22.597  0.00  0.00     0.045 C 
HETATM    9  C   UNL     1      -2.235  12.957  21.353  0.00  0.00     0.021 C 
HETATM   10  C   UNL     1      -2.787  13.837  20.422  0.00  0.00     0.037 C 
HETATM   11  C   UNL     1      -3.981  14.471  20.722  0.00  0.00     0.068 C 
HETATM   12  C   UNL     1      -4.572  14.314  21.972  0.00  0.00     0.074 C 
HETATM   13  C   UNL     1      -3.976  13.487  22.930  0.00  0.00     0.082 C 
BRANCH  11  14
HETATM   14  O   UNL     1      -4.608  15.266  19.807  0.00  0.00    -0.361 OA
HETATM   15  H   UNL     1      -5.327  14.760  19.394  0.00  0.00     0.217 HD
ENDBRANCH  11  14
BRANCH  13  16
HETATM   16  O   UNL     1      -4.550  13.519  24.170  0.00  0.00    -0.360 OA
HETATM   17  H   UNL     1      -5.018  14.363  24.282  0.00  0.00     0.217 HD
ENDBRANCH  13  16
ENDBRANCH   1   8
BRANCH   7  18
HETATM   18  C   UNL     1      -0.395  12.904  24.686  0.00  0.00     0.082 A 
HETATM   19  C   UNL     1       0.944  12.993  24.257  0.00  0.00     0.033 A 
HETATM   20  C   UNL     1       1.708  14.147  24.462  0.00  0.00     0.002 A 
HETATM   21  C   UNL     1       1.139  15.259  25.071  0.00  0.00     0.003 A 
HETATM   22  C   UNL     1      -0.166  15.180  25.546  0.00  0.00     0.044 A 
HETATM   23  C   UNL     1      -0.899  14.000  25.394  0.00  0.00     0.143 A 
HETATM   24  F   UNL     1      -2.104  13.939  25.978  0.00  0.00    -0.204 F 
ENDBRANCH   7  18
TORSDOF 4
ENDMDL
MODEL 6
REMARK VINA RESULT:    -6.384      2.680      3.350
REMARK INTER + INTRA:          -8.436
REMARK INTER:                  -7.517
REMARK INTRA:                  -0.919
REMARK UNBOUND:                -0.932
REMARK  4 active torsions:
REMARK  status: ('A' for Active; 'I' for Inactive)
REMARK    1  A    between atoms: O_1  and  C_2 
REMARK    2  A    between atoms: C_5  and  C_6 
REMARK    3  A    between atoms: N_12  and  C_13 
REMARK    4  A    between atoms: C_20  and  O_21 
ROOT
HETATM    1  C   UNL     1      -2.961  11.575  24.442  0.00  0.00     0.170 A 
HETATM    2  N   UNL     1      -4.091  11.096  23.979  0.00  0.00    -0.153 NA
HETATM    3  N   UNL     1      -4.649  12.105  23.281  0.00  0.00    -0.251 N 
HETATM    4  H   UNL     1      -5.496  11.978  22.730  0.00  0.00     0.191 HD
HETATM    5  C   UNL     1      -3.822  13.214  23.266  0.00  0.00     0.201 A 
HETATM    6  S   UNL     1      -4.188  14.525  22.310  0.00  0.00    -0.038 SA
HETATM    7  N   UNL     1      -2.736  12.894  24.080  0.00  0.00    -0.266 N 
ENDROOT
BRANCH   1   8
HETATM    8  C   UNL     1      -2.091  10.674  25.242  0.00  0.00     0.045 C 
HETATM    9  C   UNL     1      -2.213  10.808  26.642  0.00  0.00     0.021 C 
HETATM   10  C   UNL     1      -1.550   9.944  27.514  0.00  0.00     0.037 C 
HETATM   11  C   UNL     1      -0.773   8.924  26.990  0.00  0.00     0.068 C 
HETATM   12  C   UNL     1      -0.572   8.821  25.616  0.00  0.00     0.074 C 
HETATM   13  C   UNL     1      -1.180   9.736  24.749  0.00  0.00     0.082 C 
BRANCH  11  14
HETATM   14  O   UNL     1      -0.184   7.997  27.799  0.00  0.00    -0.361 OA
HETATM   15  H   UNL     1       0.459   8.447  28.373  0.00  0.00     0.217 HD
ENDBRANCH  11  14
BRANCH  13  16
HETATM   16  O   UNL     1      -0.801   9.641  23.440  0.00  0.00    -0.360 OA
HETATM   17  H   UNL     1      -1.530   9.947  22.874  0.00  0.00     0.217 HD
ENDBRANCH  13  16
ENDBRANCH   1   8
BRANCH   7  18
HETATM   18  C   UNL     1      -1.652  13.768  24.403  0.00  0.00     0.082 A 
HETATM   19  C   UNL     1      -1.670  14.498  25.609  0.00  0.00     0.033 A 
HETATM   20  C   UNL     1      -0.568  15.252  26.030  0.00  0.00     0.002 A 
HETATM   21  C   UNL     1       0.596  15.266  25.271  0.00  0.00     0.003 A 
HETATM   22  C   UNL     1       0.622  14.592  24.054  0.00  0.00     0.044 A 
HETATM   23  C   UNL     1      -0.506  13.895  23.612  0.00  0.00     0.143 A 
HETATM   24  F   UNL     1      -0.466  13.369  22.379  0.00  0.00    -0.204 F 
ENDBRANCH   7  18
TORSDOF 4
ENDMDL
MODEL 7
REMARK VINA RESULT:    -6.376      2.656      3.970
REMARK INTER + INTRA:          -8.426
REMARK INTER:                  -7.814
REMARK INTRA:                  -0.612
REMARK UNBOUND:                -0.932
REMARK  4 active torsions:
REMARK  status: ('A' for Active; 'I' for Inactive)
REMARK    1  A    between atoms: O_1  and  C_2 
REMARK    2  A    between atoms: C_5  and  C_6 
REMARK    3  A    between atoms: N_12  and  C_13 
REMARK    4  A    between atoms: C_20  and  O_21 
ROOT
HETATM    1  C   UNL     1      -3.001  11.988  24.983  0.00  0.00     0.170 A 
HETATM    2  N   UNL     1      -4.064  12.460  25.590  0.00  0.00    -0.153 NA
HETATM    3  N   UNL     1      -4.544  13.421  24.777  0.00  0.00    -0.251 N 
HETATM    4  H   UNL     1      -5.428  13.893  24.961  0.00  0.00     0.191 HD
HETATM    5  C   UNL     1      -3.795  13.510  23.618  0.00  0.00     0.201 A 
HETATM    6  S   UNL     1      -4.295  14.482  22.364  0.00  0.00    -0.038 SA
HETATM    7  N   UNL     1      -2.740  12.611  23.772  0.00  0.00    -0.266 N 
ENDROOT
BRANCH   1   8
HETATM    8  C   UNL     1      -2.256  10.876  25.630  0.00  0.00     0.045 C 
HETATM    9  C   UNL     1      -1.580  10.010  24.743  0.00  0.00     0.021 C 
HETATM   10  C   UNL     1      -0.742   9.000  25.215  0.00  0.00     0.037 C 
HETATM   11  C   UNL     1      -0.558   8.859  26.580  0.00  0.00     0.068 C 
HETATM   12  C   UNL     1      -1.276   9.647  27.476  0.00  0.00     0.074 C 
HETATM   13  C   UNL     1      -2.172  10.611  26.999  0.00  0.00     0.082 C 
BRANCH  11  14
HETATM   14  O   UNL     1       0.324   7.950  27.085  0.00  0.00    -0.361 OA
HETATM   15  H   UNL     1       0.208   7.902  28.048  0.00  0.00     0.217 HD
ENDBRANCH  11  14
BRANCH  13  16
HETATM   16  O   UNL     1      -2.934  11.223  27.953  0.00  0.00    -0.360 OA
HETATM   17  H   UNL     1      -2.426  11.952  28.348  0.00  0.00     0.217 HD
ENDBRANCH  13  16
ENDBRANCH   1   8
BRANCH   7  18
HETATM   18  C   UNL     1      -1.677  12.408  22.839  0.00  0.00     0.082 A 
HETATM   19  C   UNL     1      -1.918  11.716  21.635  0.00  0.00     0.033 A 
HETATM   20  C   UNL     1      -0.945  11.619  20.634  0.00  0.00     0.002 A 
HETATM   21  C   UNL     1       0.285  12.244  20.797  0.00  0.00     0.003 A 
HETATM   22  C   UNL     1       0.564  12.893  21.996  0.00  0.00     0.044 A 
HETATM   23  C   UNL     1      -0.391  12.928  23.014  0.00  0.00     0.143 A 
HETATM   24  F   UNL     1      -0.024  13.458  24.190  0.00  0.00    -0.204 F 
ENDBRANCH   7  18
TORSDOF 4
ENDMDL
MODEL 8
REMARK VINA RESULT:    -6.319      3.201      4.523
REMARK INTER + INTRA:          -8.359
REMARK INTER:                  -7.427
REMARK INTRA:                  -0.932
REMARK UNBOUND:                -0.932
REMARK  4 active torsions:
REMARK  status: ('A' for Active; 'I' for Inactive)
REMARK    1  A    between atoms: O_1  and  C_2 
REMARK    2  A    between atoms: C_5  and  C_6 
REMARK    3  A    between atoms: N_12  and  C_13 
REMARK    4  A    between atoms: C_20  and  O_21 
ROOT
HETATM    1  C   UNL     1      -3.532  12.262  24.113  0.00  0.00     0.170 A 
HETATM    2  N   UNL     1      -4.561  11.551  24.507  0.00  0.00    -0.153 NA
HETATM    3  N   UNL     1      -4.242  11.110  25.740  0.00  0.00    -0.251 N 
HETATM    4  H   UNL     1      -4.908  10.607  26.323  0.00  0.00     0.191 HD
HETATM    5  C   UNL     1      -3.013  11.603  26.140  0.00  0.00     0.201 A 
HETATM    6  S   UNL     1      -2.478  11.369  27.697  0.00  0.00    -0.038 SA
HETATM    7  N   UNL     1      -2.511  12.313  25.049  0.00  0.00    -0.266 N 
ENDROOT
BRANCH   1   8
HETATM    8  C   UNL     1      -3.597  12.916  22.780  0.00  0.00     0.045 C 
HETATM    9  C   UNL     1      -4.269  14.157  22.752  0.00  0.00     0.021 C 
HETATM   10  C   UNL     1      -4.298  14.940  21.597  0.00  0.00     0.037 C 
HETATM   11  C   UNL     1      -3.638  14.494  20.464  0.00  0.00     0.068 C 
HETATM   12  C   UNL     1      -3.039  13.238  20.442  0.00  0.00     0.074 C 
HETATM   13  C   UNL     1      -3.075  12.425  21.580  0.00  0.00     0.082 C 
BRANCH  11  14
HETATM   14  O   UNL     1      -3.559  15.267  19.343  0.00  0.00    -0.361 OA
HETATM   15  H   UNL     1      -4.386  15.177  18.842  0.00  0.00     0.217 HD
ENDBRANCH  11  14
BRANCH  13  16
HETATM   16  O   UNL     1      -2.593  11.158  21.409  0.00  0.00    -0.360 OA
HETATM   17  H   UNL     1      -1.959  11.155  20.672  0.00  0.00     0.217 HD
ENDBRANCH  13  16
ENDBRANCH   1   8
BRANCH   7  18
HETATM   18  C   UNL     1      -1.234  12.951  24.989  0.00  0.00     0.082 A 
HETATM   19  C   UNL     1      -0.144  12.293  24.386  0.00  0.00     0.033 A 
HETATM   20  C   UNL     1       1.082  12.935  24.179  0.00  0.00     0.002 A 
HETATM   21  C   UNL     1       1.238  14.268  24.538  0.00  0.00     0.003 A 
HETATM   22  C   UNL     1       0.193  14.926  25.178  0.00  0.00     0.044 A 
HETATM   23  C   UNL     1      -1.005  14.256  25.438  0.00  0.00     0.143 A 
HETATM   24  F   UNL     1      -1.930  14.899  26.165  0.00  0.00    -0.204 F 
ENDBRANCH   7  18
TORSDOF 4
ENDMDL
MODEL 9
REMARK VINA RESULT:    -6.291      2.400      3.069
REMARK INTER + INTRA:          -8.326
REMARK INTER:                  -7.380
REMARK INTRA:                  -0.946
REMARK UNBOUND:                -0.932
REMARK  4 active torsions:
REMARK  status: ('A' for Active; 'I' for Inactive)
REMARK    1  A    between atoms: O_1  and  C_2 
REMARK    2  A    between atoms: C_5  and  C_6 
REMARK    3  A    between atoms: N_12  and  C_13 
REMARK    4  A    between atoms: C_20  and  O_21 
ROOT
HETATM    1  C   UNL     1      -1.926  11.390  22.918  0.00  0.00     0.170 A 
HETATM    2  N   UNL     1      -2.655  10.885  21.952  0.00  0.00    -0.153 NA
HETATM    3  N   UNL     1      -3.019  11.935  21.190  0.00  0.00    -0.251 N 
HETATM    4  H   UNL     1      -3.517  11.818  20.309  0.00  0.00     0.191 HD
HETATM    5  C   UNL     1      -2.458  13.109  21.662  0.00  0.00     0.201 A 
HETATM    6  S   UNL     1      -2.590  14.517  20.788  0.00  0.00    -0.038 SA
HETATM    7  N   UNL     1      -1.786  12.768  22.836  0.00  0.00    -0.266 N 
ENDROOT
BRANCH   1   8
HETATM    8  C   UNL     1      -1.345  10.461  23.921  0.00  0.00     0.045 C 
HETATM    9  C   UNL     1      -0.269   9.673  23.458  0.00  0.00     0.021 C 
HETATM   10  C   UNL     1       0.452   8.849  24.323  0.00  0.00     0.037 C 
HETATM   11  C   UNL     1       0.112   8.820  25.666  0.00  0.00     0.068 C 
HETATM   12  C   UNL     1      -0.995   9.525  26.130  0.00  0.00     0.074 C 
HETATM   13  C   UNL     1      -1.760  10.292  25.245  0.00  0.00     0.082 C 
BRANCH  11  14
HETATM   14  O   UNL     1       0.845   8.104  26.565  0.00  0.00    -0.361 OA
HETATM   15  H   UNL     1       0.612   7.165  26.483  0.00  0.00     0.217 HD
ENDBRANCH  11  14
BRANCH  13  16
HETATM   16  O   UNL     1      -2.906  10.820  25.768  0.00  0.00    -0.360 OA
HETATM   17  H   UNL     1      -3.156  11.608  25.256  0.00  0.00     0.217 HD
ENDBRANCH  13  16
ENDBRANCH   1   8
BRANCH   7  18
HETATM   18  C   UNL     1      -1.103  13.679  23.699  0.00  0.00     0.082 A 
HETATM   19  C   UNL     1      -1.832  14.469  24.610  0.00  0.00     0.033 A 
HETATM   20  C   UNL     1      -1.195  15.266  25.568  0.00  0.00     0.002 A 
HETATM   21  C   UNL     1       0.191  15.266  25.661  0.00  0.00     0.003 A 
HETATM   22  C   UNL     1       0.935  14.533  24.742  0.00  0.00     0.044 A 
HETATM   23  C   UNL     1       0.290  13.791  23.750  0.00  0.00     0.143 A 
HETATM   24  F   UNL     1       1.056  13.204  22.818  0.00  0.00    -0.204 F 
ENDBRANCH   7  18
TORSDOF 4
ENDMDL
