MODEL 1
REMARK VINA RESULT:    -9.265      0.000      0.000
REMARK INTER + INTRA:         -13.376
REMARK INTER:                 -12.076
REMARK INTRA:                  -1.300
REMARK UNBOUND:                -1.132
REMARK  6 active torsions:
REMARK  status: ('A' for Active; 'I' for Inactive)
REMARK    1  A    between atoms: N_8  and  C_9 
REMARK    2  A    between atoms: C_14  and  N_15 
REMARK       I    between atoms: N_15  and  C_17 
REMARK    3  A    between atoms: C_17  and  C_19 
REMARK    4  A    between atoms: C_21  and  O_22 
REMARK    5  A    between atoms: C_29  and  C_30 
REMARK    6  A    between atoms: C_30  and  C_31 
ROOT
HETATM    1  C   UNL     1       8.321  10.634  22.696  0.00  0.00     0.066 C 
HETATM    2  C   UNL     1       8.202  11.534  23.778  0.00  0.00     0.035 C 
HETATM    3  C   UNL     1       9.288  10.927  21.708  0.00  0.00     0.083 C 
HETATM    4  C   UNL     1      10.038  12.111  21.722  0.00  0.00     0.069 C 
HETATM    5  C   UNL     1       9.734  13.046  22.716  0.00  0.00     0.065 A 
HETATM    6  C   UNL     1       8.814  12.811  23.726  0.00  0.00     0.020 A 
HETATM    7  N   UNL     1      10.222  14.299  22.966  0.00  0.00    -0.277 N 
HETATM    8  H   UNL     1      10.959  14.781  22.464  0.00  0.00     0.189 HD
HETATM    9  N   UNL     1       9.599  14.941  23.967  0.00  0.00    -0.178 NA
HETATM   10  C   UNL     1       8.715  14.052  24.447  0.00  0.00     0.071 A 
ENDROOT
BRANCH   1  11
HETATM   11  C   UNL     1       7.437   9.406  22.525  0.00  0.00     0.260 C 
HETATM   12  N   UNL     1       6.157   9.486  21.894  0.00  0.00    -0.318 N 
HETATM   13  C   UNL     1       5.677  10.749  21.320  0.00  0.00     0.159 C 
HETATM   14  O   UNL     1       7.952   8.359  22.915  0.00  0.00    -0.267 OA
BRANCH  12  15
HETATM   15  C   UNL     1       5.301   8.323  21.654  0.00  0.00     0.037 C 
HETATM   16  C   UNL     1       4.243   8.033  22.528  0.00  0.00     0.032 C 
HETATM   17  C   UNL     1       3.262   7.070  22.240  0.00  0.00     0.031 C 
HETATM   18  C   UNL     1       3.289   6.297  21.079  0.00  0.00     0.030 C 
HETATM   19  C   UNL     1       4.434   6.460  20.291  0.00  0.00     0.031 C 
HETATM   20  C   UNL     1       5.415   7.454  20.566  0.00  0.00     0.032 C 
BRANCH  18  21
HETATM   21  N   UNL     1       2.251   5.410  20.806  0.00  0.00    -0.378 N 
HETATM   22  C   UNL     1       2.505   4.021  20.392  0.00  0.00     0.150 C 
HETATM   23  C   UNL     1       2.461   3.871  18.855  0.00  0.00     0.254 C 
HETATM   24  N   UNL     1       1.153   4.436  18.287  0.00  0.00    -0.072 N 
HETATM   25  H   UNL     1       0.387   3.877  18.683  0.00  0.00     0.279 HD
HETATM   26  C   UNL     1       1.087   4.308  16.795  0.00  0.00     0.269 C 
HETATM   27  C   UNL     1       0.935   5.879  18.745  0.00  0.00     0.254 C 
HETATM   28  C   UNL     1       0.980   5.967  20.286  0.00  0.00     0.150 C 
ENDBRANCH  18  21
ENDBRANCH  12  15
ENDBRANCH   1  11
BRANCH   3  29
HETATM   29  O   UNL     1       9.564  10.085  20.657  0.00  0.00    -0.360 OA
HETATM   30  H   UNL     1       8.928  10.286  19.936  0.00  0.00     0.217 HD
ENDBRANCH   3  29
BRANCH  10  31
HETATM   31  C   UNL     1       7.809  14.476  25.583  0.00  0.00     0.100 C 
BRANCH  31  32
HETATM   32  C   UNL     1       6.444  14.954  25.088  0.00  0.00    -0.052 A 
HETATM   33  C   UNL     1       6.183  15.309  23.760  0.00  0.00     0.007 A 
HETATM   34  C   UNL     1       4.921  15.753  23.358  0.00  0.00     0.001 A 
HETATM   35  C   UNL     1       3.910  15.944  24.294  0.00  0.00     0.007 A 
HETATM   36  C   UNL     1       4.165  15.731  25.651  0.00  0.00    -0.061 A 
HETATM   37  C   UNL     1       5.412  15.198  26.036  0.00  0.00     0.014 A 
HETATM   38  C   UNL     1       3.099  16.095  26.652  0.00  0.00     0.048 C 
ENDBRANCH  31  32
ENDBRANCH  10  31
TORSDOF 6
ENDMDL
MODEL 2
REMARK VINA RESULT:    -9.264      5.112      7.298
REMARK INTER + INTRA:         -13.375
REMARK INTER:                 -12.050
REMARK INTRA:                  -1.325
REMARK UNBOUND:                -1.132
REMARK  6 active torsions:
REMARK  status: ('A' for Active; 'I' for Inactive)
REMARK    1  A    between atoms: N_8  and  C_9 
REMARK    2  A    between atoms: C_14  and  N_15 
REMARK       I    between atoms: N_15  and  C_17 
REMARK    3  A    between atoms: C_17  and  C_19 
REMARK    4  A    between atoms: C_21  and  O_22 
REMARK    5  A    between atoms: C_29  and  C_30 
REMARK    6  A    between atoms: C_30  and  C_31 
ROOT
HETATM    1  C   UNL     1       9.771  14.259  21.275  0.00  0.00     0.066 C 
HETATM    2  C   UNL     1      10.415  13.049  21.614  0.00  0.00     0.035 C 
HETATM    3  C   UNL     1      10.579  15.314  20.790  0.00  0.00     0.083 C 
HETATM    4  C   UNL     1      11.975  15.224  20.737  0.00  0.00     0.069 C 
HETATM    5  C   UNL     1      12.561  14.069  21.267  0.00  0.00     0.065 A 
HETATM    6  C   UNL     1      11.826  12.992  21.736  0.00  0.00     0.020 A 
HETATM    7  N   UNL     1      13.868  13.702  21.425  0.00  0.00    -0.277 N 
HETATM    8  H   UNL     1      14.690  14.222  21.135  0.00  0.00     0.189 HD
HETATM    9  N   UNL     1      14.038  12.542  22.079  0.00  0.00    -0.178 NA
HETATM   10  C   UNL     1      12.795  12.087  22.296  0.00  0.00     0.071 A 
ENDROOT
BRANCH   1  11
HETATM   11  C   UNL     1       8.277  14.492  21.449  0.00  0.00     0.260 C 
HETATM   12  N   UNL     1       7.610  14.187  22.677  0.00  0.00    -0.318 N 
HETATM   13  C   UNL     1       8.358  13.705  23.843  0.00  0.00     0.159 C 
HETATM   14  O   UNL     1       7.733  15.014  20.477  0.00  0.00    -0.267 OA
BRANCH  12  15
HETATM   15  C   UNL     1       6.188  14.450  22.909  0.00  0.00     0.037 C 
HETATM   16  C   UNL     1       5.252  13.410  22.810  0.00  0.00     0.032 C 
HETATM   17  C   UNL     1       3.918  13.546  23.227  0.00  0.00     0.031 C 
HETATM   18  C   UNL     1       3.411  14.742  23.735  0.00  0.00     0.030 C 
HETATM   19  C   UNL     1       4.291  15.828  23.674  0.00  0.00     0.031 C 
HETATM   20  C   UNL     1       5.651  15.686  23.278  0.00  0.00     0.032 C 
BRANCH  18  21
HETATM   21  N   UNL     1       2.101  14.801  24.205  0.00  0.00    -0.378 N 
HETATM   22  C   UNL     1       1.724  14.263  25.523  0.00  0.00     0.150 C 
HETATM   23  C   UNL     1       1.162  12.828  25.409  0.00  0.00     0.254 C 
HETATM   24  N   UNL     1       0.020  12.767  24.388  0.00  0.00    -0.072 N 
HETATM   25  H   UNL     1      -0.730  13.375  24.738  0.00  0.00     0.279 HD
HETATM   26  C   UNL     1      -0.540  11.383  24.254  0.00  0.00     0.269 C 
HETATM   27  C   UNL     1       0.460  13.336  23.038  0.00  0.00     0.254 C 
HETATM   28  C   UNL     1       1.004  14.770  23.210  0.00  0.00     0.150 C 
ENDBRANCH  18  21
ENDBRANCH  12  15
ENDBRANCH   1  11
BRANCH   3  29
HETATM   29  O   UNL     1      10.062  16.506  20.341  0.00  0.00    -0.360 OA
HETATM   30  H   UNL     1       9.237  16.684  20.844  0.00  0.00     0.217 HD
ENDBRANCH   3  29
BRANCH  10  31
HETATM   31  C   UNL     1      12.624  10.788  23.056  0.00  0.00     0.100 C 
BRANCH  31  32
HETATM   32  C   UNL     1      11.459  10.844  24.044  0.00  0.00    -0.052 A 
HETATM   33  C   UNL     1      11.508  11.535  25.261  0.00  0.00     0.007 A 
HETATM   34  C   UNL     1      10.421  11.547  26.137  0.00  0.00     0.001 A 
HETATM   35  C   UNL     1       9.286  10.790  25.864  0.00  0.00     0.007 A 
HETATM   36  C   UNL     1       9.245   9.979  24.727  0.00  0.00    -0.061 A 
HETATM   37  C   UNL     1      10.309  10.042  23.804  0.00  0.00     0.014 A 
HETATM   38  C   UNL     1       8.069   9.055  24.539  0.00  0.00     0.048 C 
ENDBRANCH  31  32
ENDBRANCH  10  31
TORSDOF 6
ENDMDL
MODEL 3
REMARK VINA RESULT:    -9.240      4.964      6.422
REMARK INTER + INTRA:         -13.343
REMARK INTER:                 -12.448
REMARK INTRA:                  -0.895
REMARK UNBOUND:                -1.132
REMARK  6 active torsions:
REMARK  status: ('A' for Active; 'I' for Inactive)
REMARK    1  A    between atoms: N_8  and  C_9 
REMARK    2  A    between atoms: C_14  and  N_15 
REMARK       I    between atoms: N_15  and  C_17 
REMARK    3  A    between atoms: C_17  and  C_19 
REMARK    4  A    between atoms: C_21  and  O_22 
REMARK    5  A    between atoms: C_29  and  C_30 
REMARK    6  A    between atoms: C_30  and  C_31 
ROOT
HETATM    1  C   UNL     1       8.928  12.182  21.814  0.00  0.00     0.066 C 
HETATM    2  C   UNL     1      10.053  12.798  22.406  0.00  0.00     0.035 C 
HETATM    3  C   UNL     1       9.114  11.547  20.565  0.00  0.00     0.083 C 
HETATM    4  C   UNL     1      10.330  11.602  19.871  0.00  0.00     0.069 C 
HETATM    5  C   UNL     1      11.345  12.389  20.424  0.00  0.00     0.065 A 
HETATM    6  C   UNL     1      11.234  13.018  21.654  0.00  0.00     0.020 A 
HETATM    7  N   UNL     1      12.600  12.701  19.979  0.00  0.00    -0.277 N 
HETATM    8  H   UNL     1      13.051  12.364  19.135  0.00  0.00     0.189 HD
HETATM    9  N   UNL     1      13.253  13.583  20.751  0.00  0.00    -0.178 NA
HETATM   10  C   UNL     1      12.430  13.809  21.785  0.00  0.00     0.071 A 
ENDROOT
BRANCH   1  11
HETATM   11  C   UNL     1       7.536  12.211  22.429  0.00  0.00     0.260 C 
HETATM   12  N   UNL     1       6.740  13.399  22.427  0.00  0.00    -0.318 N 
HETATM   13  C   UNL     1       7.211  14.621  21.763  0.00  0.00     0.159 C 
HETATM   14  O   UNL     1       7.153  11.123  22.856  0.00  0.00    -0.267 OA
BRANCH  12  15
HETATM   15  C   UNL     1       5.375  13.457  22.952  0.00  0.00     0.037 C 
HETATM   16  C   UNL     1       4.883  14.646  23.509  0.00  0.00     0.032 C 
HETATM   17  C   UNL     1       3.528  14.832  23.831  0.00  0.00     0.031 C 
HETATM   18  C   UNL     1       2.574  13.829  23.658  0.00  0.00     0.030 C 
HETATM   19  C   UNL     1       3.089  12.587  23.268  0.00  0.00     0.031 C 
HETATM   20  C   UNL     1       4.456  12.405  22.915  0.00  0.00     0.032 C 
BRANCH  18  21
HETATM   21  N   UNL     1       1.232  14.089  23.921  0.00  0.00    -0.378 N 
HETATM   22  C   UNL     1       0.622  13.783  25.225  0.00  0.00     0.150 C 
HETATM   23  C   UNL     1      -0.093  12.414  25.208  0.00  0.00     0.254 C 
HETATM   24  N   UNL     1      -1.090  12.331  24.046  0.00  0.00    -0.072 N 
HETATM   25  H   UNL     1      -1.799  13.058  24.206  0.00  0.00     0.279 HD
HETATM   26  C   UNL     1      -1.795  11.009  24.003  0.00  0.00     0.269 C 
HETATM   27  C   UNL     1      -0.410  12.657  22.715  0.00  0.00     0.254 C 
HETATM   28  C   UNL     1       0.279  14.037  22.788  0.00  0.00     0.150 C 
ENDBRANCH  18  21
ENDBRANCH  12  15
ENDBRANCH   1  11
BRANCH   3  29
HETATM   29  O   UNL     1       8.123  10.835  19.932  0.00  0.00    -0.360 OA
HETATM   30  H   UNL     1       8.137   9.919  20.287  0.00  0.00     0.217 HD
ENDBRANCH   3  29
BRANCH  10  31
HETATM   31  C   UNL     1      12.856  14.802  22.845  0.00  0.00     0.100 C 
BRANCH  31  32
HETATM   32  C   UNL     1      11.887  14.841  24.027  0.00  0.00    -0.052 A 
HETATM   33  C   UNL     1      10.735  15.637  24.057  0.00  0.00     0.007 A 
HETATM   34  C   UNL     1       9.885  15.647  25.166  0.00  0.00     0.001 A 
HETATM   35  C   UNL     1      10.215  14.933  26.313  0.00  0.00     0.007 A 
HETATM   36  C   UNL     1      11.421  14.232  26.378  0.00  0.00    -0.061 A 
HETATM   37  C   UNL     1      12.228  14.154  25.225  0.00  0.00     0.014 A 
HETATM   38  C   UNL     1      11.820  13.598  27.686  0.00  0.00     0.048 C 
ENDBRANCH  31  32
ENDBRANCH  10  31
TORSDOF 6
ENDMDL
MODEL 4
REMARK VINA RESULT:    -9.218      5.521      7.625
REMARK INTER + INTRA:         -13.314
REMARK INTER:                 -11.983
REMARK INTRA:                  -1.331
REMARK UNBOUND:                -1.132
REMARK  6 active torsions:
REMARK  status: ('A' for Active; 'I' for Inactive)
REMARK    1  A    between atoms: N_8  and  C_9 
REMARK    2  A    between atoms: C_14  and  N_15 
REMARK       I    between atoms: N_15  and  C_17 
REMARK    3  A    between atoms: C_17  and  C_19 
REMARK    4  A    between atoms: C_21  and  O_22 
REMARK    5  A    between atoms: C_29  and  C_30 
REMARK    6  A    between atoms: C_30  and  C_31 
ROOT
HETATM    1  C   UNL     1       9.459  13.844  25.588  0.00  0.00     0.066 C 
HETATM    2  C   UNL     1      10.322  13.001  24.853  0.00  0.00     0.035 C 
HETATM    3  C   UNL     1       9.998  14.500  26.718  0.00  0.00     0.083 C 
HETATM    4  C   UNL     1      11.301  14.261  27.173  0.00  0.00     0.069 C 
HETATM    5  C   UNL     1      12.036  13.271  26.511  0.00  0.00     0.065 A 
HETATM    6  C   UNL     1      11.575  12.608  25.385  0.00  0.00     0.020 A 
HETATM    7  N   UNL     1      13.283  12.759  26.739  0.00  0.00    -0.277 N 
HETATM    8  H   UNL     1      13.945  13.052  27.449  0.00  0.00     0.189 HD
HETATM    9  N   UNL     1      13.608  11.731  25.939  0.00  0.00    -0.178 NA
HETATM   10  C   UNL     1      12.568  11.605  25.103  0.00  0.00     0.071 A 
ENDROOT
BRANCH   1  11
HETATM   11  C   UNL     1       7.988  14.038  25.251  0.00  0.00     0.260 C 
HETATM   12  N   UNL     1       7.090  12.930  25.148  0.00  0.00    -0.318 N 
HETATM   13  C   UNL     1       7.543  11.563  25.435  0.00  0.00     0.159 C 
HETATM   14  O   UNL     1       7.648  15.216  25.146  0.00  0.00    -0.267 OA
BRANCH  12  15
HETATM   15  C   UNL     1       5.657  13.073  24.885  0.00  0.00     0.037 C 
HETATM   16  C   UNL     1       4.725  12.839  25.907  0.00  0.00     0.032 C 
HETATM   17  C   UNL     1       3.364  13.165  25.784  0.00  0.00     0.031 C 
HETATM   18  C   UNL     1       2.828  13.710  24.617  0.00  0.00     0.030 C 
HETATM   19  C   UNL     1       3.717  13.783  23.538  0.00  0.00     0.031 C 
HETATM   20  C   UNL     1       5.101  13.480  23.669  0.00  0.00     0.032 C 
BRANCH  18  21
HETATM   21  N   UNL     1       1.488  14.085  24.574  0.00  0.00    -0.378 N 
HETATM   22  C   UNL     1       0.540  13.703  25.633  0.00  0.00     0.150 C 
HETATM   23  C   UNL     1      -0.250  12.431  25.255  0.00  0.00     0.254 C 
HETATM   24  N   UNL     1      -0.917  12.589  23.883  0.00  0.00    -0.072 N 
HETATM   25  H   UNL     1      -1.584  13.366  23.961  0.00  0.00     0.279 HD
HETATM   26  C   UNL     1      -1.687  11.365  23.488  0.00  0.00     0.269 C 
HETATM   27  C   UNL     1       0.106  12.985  22.818  0.00  0.00     0.254 C 
HETATM   28  C   UNL     1       0.858  14.264  23.245  0.00  0.00     0.150 C 
ENDBRANCH  18  21
ENDBRANCH  12  15
ENDBRANCH   1  11
BRANCH   3  29
HETATM   29  O   UNL     1       9.289  15.416  27.461  0.00  0.00    -0.360 OA
HETATM   30  H   UNL     1       8.783  14.921  28.142  0.00  0.00     0.217 HD
ENDBRANCH   3  29
BRANCH  10  31
HETATM   31  C   UNL     1      12.598  10.495  24.074  0.00  0.00     0.100 C 
BRANCH  31  32
HETATM   32  C   UNL     1      12.567  11.030  22.642  0.00  0.00    -0.052 A 
HETATM   33  C   UNL     1      13.669  11.621  22.013  0.00  0.00     0.007 A 
HETATM   34  C   UNL     1      13.589  12.107  20.706  0.00  0.00     0.001 A 
HETATM   35  C   UNL     1      12.376  12.100  20.025  0.00  0.00     0.007 A 
HETATM   36  C   UNL     1      11.219  11.643  20.662  0.00  0.00    -0.061 A 
HETATM   37  C   UNL     1      11.327  11.073  21.946  0.00  0.00     0.014 A 
HETATM   38  C   UNL     1       9.897  11.793  19.954  0.00  0.00     0.048 C 
ENDBRANCH  31  32
ENDBRANCH  10  31
TORSDOF 6
ENDMDL
MODEL 5
REMARK VINA RESULT:    -9.121      4.987      7.083
REMARK INTER + INTRA:         -13.186
REMARK INTER:                 -11.927
REMARK INTRA:                  -1.260
REMARK UNBOUND:                -1.132
REMARK  6 active torsions:
REMARK  status: ('A' for Active; 'I' for Inactive)
REMARK    1  A    between atoms: N_8  and  C_9 
REMARK    2  A    between atoms: C_14  and  N_15 
REMARK       I    between atoms: N_15  and  C_17 
REMARK    3  A    between atoms: C_17  and  C_19 
REMARK    4  A    between atoms: C_21  and  O_22 
REMARK    5  A    between atoms: C_29  and  C_30 
REMARK    6  A    between atoms: C_30  and  C_31 
ROOT
HETATM    1  C   UNL     1       7.178  14.557  24.687  0.00  0.00     0.066 C 
HETATM    2  C   UNL     1       7.839  15.051  23.541  0.00  0.00     0.035 C 
HETATM    3  C   UNL     1       7.877  14.611  25.916  0.00  0.00     0.083 C 
HETATM    4  C   UNL     1       9.209  15.034  26.002  0.00  0.00     0.069 C 
HETATM    5  C   UNL     1       9.863  15.328  24.801  0.00  0.00     0.065 A 
HETATM    6  C   UNL     1       9.231  15.317  23.568  0.00  0.00     0.020 A 
HETATM    7  N   UNL     1      11.153  15.697  24.534  0.00  0.00    -0.277 N 
HETATM    8  H   UNL     1      11.893  15.867  25.207  0.00  0.00     0.189 HD
HETATM    9  N   UNL     1      11.437  15.793  23.226  0.00  0.00    -0.178 NA
HETATM   10  C   UNL     1      10.274  15.550  22.604  0.00  0.00     0.071 A 
ENDROOT
BRANCH   1  11
HETATM   11  C   UNL     1       5.788  13.938  24.653  0.00  0.00     0.260 C 
HETATM   12  N   UNL     1       4.647  14.681  24.219  0.00  0.00    -0.318 N 
HETATM   13  C   UNL     1       4.787  16.054  23.720  0.00  0.00     0.159 C 
HETATM   14  O   UNL     1       5.761  12.748  24.964  0.00  0.00    -0.267 OA
BRANCH  12  15
HETATM   15  C   UNL     1       3.304  14.110  24.112  0.00  0.00     0.037 C 
HETATM   16  C   UNL     1       3.084  12.963  23.336  0.00  0.00     0.032 C 
HETATM   17  C   UNL     1       1.876  12.245  23.364  0.00  0.00     0.031 C 
HETATM   18  C   UNL     1       0.786  12.645  24.138  0.00  0.00     0.030 C 
HETATM   19  C   UNL     1       0.940  13.880  24.777  0.00  0.00     0.031 C 
HETATM   20  C   UNL     1       2.171  14.594  24.773  0.00  0.00     0.032 C 
BRANCH  18  21
HETATM   21  N   UNL     1      -0.360  11.856  24.189  0.00  0.00    -0.378 N 
HETATM   22  C   UNL     1      -1.600  12.328  24.826  0.00  0.00     0.150 C 
HETATM   23  C   UNL     1      -1.713  11.829  26.284  0.00  0.00     0.254 C 
HETATM   24  N   UNL     1      -1.545  10.306  26.355  0.00  0.00    -0.072 N 
HETATM   25  H   UNL     1      -2.317   9.893  25.816  0.00  0.00     0.279 HD
HETATM   26  C   UNL     1      -1.645   9.794  27.760  0.00  0.00     0.269 C 
HETATM   27  C   UNL     1      -0.245   9.865  25.680  0.00  0.00     0.254 C 
HETATM   28  C   UNL     1      -0.191  10.385  24.227  0.00  0.00     0.150 C 
ENDBRANCH  18  21
ENDBRANCH  12  15
ENDBRANCH   1  11
BRANCH   3  29
HETATM   29  O   UNL     1       7.310  14.247  27.115  0.00  0.00    -0.360 OA
HETATM   30  H   UNL     1       8.039  14.034  27.739  0.00  0.00     0.217 HD
ENDBRANCH   3  29
BRANCH  10  31
HETATM   31  C   UNL     1      10.250  15.547  21.090  0.00  0.00     0.100 C 
BRANCH  31  32
HETATM   32  C   UNL     1       9.835  14.191  20.519  0.00  0.00    -0.052 A 
HETATM   33  C   UNL     1       8.697  14.000  19.726  0.00  0.00     0.007 A 
HETATM   34  C   UNL     1       8.352  12.738  19.237  0.00  0.00     0.001 A 
HETATM   35  C   UNL     1       9.084  11.615  19.607  0.00  0.00     0.007 A 
HETATM   36  C   UNL     1      10.148  11.738  20.505  0.00  0.00    -0.061 A 
HETATM   37  C   UNL     1      10.544  13.025  20.922  0.00  0.00     0.014 A 
HETATM   38  C   UNL     1      10.821  10.486  21.005  0.00  0.00     0.048 C 
ENDBRANCH  31  32
ENDBRANCH  10  31
TORSDOF 6
ENDMDL
MODEL 6
REMARK VINA RESULT:    -9.089      4.160      8.513
REMARK INTER + INTRA:         -13.144
REMARK INTER:                 -11.673
REMARK INTRA:                  -1.471
REMARK UNBOUND:                -1.132
REMARK  6 active torsions:
REMARK  status: ('A' for Active; 'I' for Inactive)
REMARK    1  A    between atoms: N_8  and  C_9 
REMARK    2  A    between atoms: C_14  and  N_15 
REMARK       I    between atoms: N_15  and  C_17 
REMARK    3  A    between atoms: C_17  and  C_19 
REMARK    4  A    between atoms: C_21  and  O_22 
REMARK    5  A    between atoms: C_29  and  C_30 
REMARK    6  A    between atoms: C_30  and  C_31 
ROOT
HETATM    1  C   UNL     1       4.105  10.377  24.150  0.00  0.00     0.066 C 
HETATM    2  C   UNL     1       3.118  11.370  23.966  0.00  0.00     0.035 C 
HETATM    3  C   UNL     1       3.671   9.091  24.548  0.00  0.00     0.083 C 
HETATM    4  C   UNL     1       2.333   8.815  24.855  0.00  0.00     0.069 C 
HETATM    5  C   UNL     1       1.439   9.891  24.837  0.00  0.00     0.065 A 
HETATM    6  C   UNL     1       1.795  11.169  24.435  0.00  0.00     0.020 A 
HETATM    7  N   UNL     1       0.109   9.974  25.142  0.00  0.00    -0.277 N 
HETATM    8  H   UNL     1      -0.505   9.215  25.418  0.00  0.00     0.189 HD
HETATM    9  N   UNL     1      -0.387  11.221  25.101  0.00  0.00    -0.178 NA
HETATM   10  C   UNL     1       0.634  11.982  24.682  0.00  0.00     0.071 A 
ENDROOT
BRANCH   1  11
HETATM   11  C   UNL     1       5.596  10.636  23.987  0.00  0.00     0.260 C 
HETATM   12  N   UNL     1       6.294  11.553  24.833  0.00  0.00    -0.318 N 
HETATM   13  C   UNL     1       5.609  12.227  25.943  0.00  0.00     0.159 C 
HETATM   14  O   UNL     1       6.134   9.947  23.121  0.00  0.00    -0.267 OA
BRANCH  12  15
HETATM   15  C   UNL     1       7.737  11.789  24.752  0.00  0.00     0.037 C 
HETATM   16  C   UNL     1       8.635  10.879  25.328  0.00  0.00     0.032 C 
HETATM   17  C   UNL     1      10.020  10.931  25.102  0.00  0.00     0.031 C 
HETATM   18  C   UNL     1      10.614  11.921  24.319  0.00  0.00     0.030 C 
HETATM   19  C   UNL     1       9.745  12.930  23.887  0.00  0.00     0.031 C 
HETATM   20  C   UNL     1       8.338  12.863  24.090  0.00  0.00     0.032 C 
BRANCH  18  21
HETATM   21  N   UNL     1      11.982  11.883  24.065  0.00  0.00    -0.378 N 
HETATM   22  C   UNL     1      12.702  13.043  23.513  0.00  0.00     0.150 C 
HETATM   23  C   UNL     1      12.852  12.940  21.979  0.00  0.00     0.254 C 
HETATM   24  N   UNL     1      13.479  11.599  21.579  0.00  0.00    -0.072 N 
HETATM   25  H   UNL     1      14.419  11.572  21.992  0.00  0.00     0.279 HD
HETATM   26  C   UNL     1      13.630  11.471  20.093  0.00  0.00     0.269 C 
HETATM   27  C   UNL     1      12.697  10.428  22.174  0.00  0.00     0.254 C 
HETATM   28  C   UNL     1      12.587  10.578  23.707  0.00  0.00     0.150 C 
ENDBRANCH  18  21
ENDBRANCH  12  15
ENDBRANCH   1  11
BRANCH   3  29
HETATM   29  O   UNL     1       4.522   8.018  24.671  0.00  0.00    -0.360 OA
HETATM   30  H   UNL     1       4.053   7.320  25.178  0.00  0.00     0.217 HD
ENDBRANCH   3  29
BRANCH  10  31
HETATM   31  C   UNL     1       0.419  13.475  24.556  0.00  0.00     0.100 C 
BRANCH  31  32
HETATM   32  C   UNL     1       1.616  14.279  25.065  0.00  0.00    -0.052 A 
HETATM   33  C   UNL     1       1.751  14.711  26.389  0.00  0.00     0.007 A 
HETATM   34  C   UNL     1       2.858  15.454  26.804  0.00  0.00     0.001 A 
HETATM   35  C   UNL     1       3.817  15.866  25.883  0.00  0.00     0.007 A 
HETATM   36  C   UNL     1       3.654  15.571  24.527  0.00  0.00    -0.061 A 
HETATM   37  C   UNL     1       2.582  14.746  24.131  0.00  0.00     0.014 A 
HETATM   38  C   UNL     1       4.626  16.162  23.538  0.00  0.00     0.048 C 
ENDBRANCH  31  32
ENDBRANCH  10  31
TORSDOF 6
ENDMDL
MODEL 7
REMARK VINA RESULT:    -9.006      1.656      2.599
REMARK INTER + INTRA:         -13.035
REMARK INTER:                 -12.203
REMARK INTRA:                  -0.832
REMARK UNBOUND:                -1.132
REMARK  6 active torsions:
REMARK  status: ('A' for Active; 'I' for Inactive)
REMARK    1  A    between atoms: N_8  and  C_9 
REMARK    2  A    between atoms: C_14  and  N_15 
REMARK       I    between atoms: N_15  and  C_17 
REMARK    3  A    between atoms: C_17  and  C_19 
REMARK    4  A    between atoms: C_21  and  O_22 
REMARK    5  A    between atoms: C_29  and  C_30 
REMARK    6  A    between atoms: C_30  and  C_31 
ROOT
HETATM    1  C   UNL     1       6.667  11.177  21.768  0.00  0.00     0.066 C 
HETATM    2  C   UNL     1       6.104  12.372  22.268  0.00  0.00     0.035 C 
HETATM    3  C   UNL     1       8.021  10.915  22.077  0.00  0.00     0.083 C 
HETATM    4  C   UNL     1       8.825  11.837  22.759  0.00  0.00     0.069 C 
HETATM    5  C   UNL     1       8.258  13.080  23.058  0.00  0.00     0.065 A 
HETATM    6  C   UNL     1       6.931  13.391  22.803  0.00  0.00     0.020 A 
HETATM    7  N   UNL     1       8.777  14.200  23.645  0.00  0.00    -0.277 N 
HETATM    8  H   UNL     1       9.712  14.317  24.021  0.00  0.00     0.189 HD
HETATM    9  N   UNL     1       7.939  15.248  23.667  0.00  0.00    -0.178 NA
HETATM   10  C   UNL     1       6.796  14.783  23.141  0.00  0.00     0.071 A 
ENDROOT
BRANCH   1  11
HETATM   11  C   UNL     1       5.906  10.196  20.887  0.00  0.00     0.260 C 
HETATM   12  N   UNL     1       5.271   9.036  21.433  0.00  0.00    -0.318 N 
HETATM   13  C   UNL     1       5.270   8.787  22.879  0.00  0.00     0.159 C 
HETATM   14  O   UNL     1       5.839  10.529  19.705  0.00  0.00    -0.267 OA
BRANCH  12  15
HETATM   15  C   UNL     1       4.479   8.099  20.634  0.00  0.00     0.037 C 
HETATM   16  C   UNL     1       4.761   7.917  19.273  0.00  0.00     0.032 C 
HETATM   17  C   UNL     1       4.189   6.887  18.508  0.00  0.00     0.031 C 
HETATM   18  C   UNL     1       3.261   5.989  19.038  0.00  0.00     0.030 C 
HETATM   19  C   UNL     1       2.847   6.273  20.344  0.00  0.00     0.031 C 
HETATM   20  C   UNL     1       3.446   7.298  21.129  0.00  0.00     0.032 C 
BRANCH  18  21
HETATM   21  N   UNL     1       2.782   4.940  18.258  0.00  0.00    -0.378 N 
HETATM   22  C   UNL     1       1.600   5.092  17.394  0.00  0.00     0.150 C 
HETATM   23  C   UNL     1       0.318   4.587  18.093  0.00  0.00     0.254 C 
HETATM   24  N   UNL     1       0.504   3.155  18.609  0.00  0.00    -0.072 N 
HETATM   25  H   UNL     1       0.674   2.560  17.789  0.00  0.00     0.279 HD
HETATM   26  C   UNL     1      -0.724   2.642  19.298  0.00  0.00     0.269 C 
HETATM   27  C   UNL     1       1.743   3.049  19.500  0.00  0.00     0.254 C 
HETATM   28  C   UNL     1       2.991   3.558  18.748  0.00  0.00     0.150 C 
ENDBRANCH  18  21
ENDBRANCH  12  15
ENDBRANCH   1  11
BRANCH   3  29
HETATM   29  O   UNL     1       8.657   9.746  21.727  0.00  0.00    -0.360 OA
HETATM   30  H   UNL     1       7.973   9.046  21.648  0.00  0.00     0.217 HD
ENDBRANCH   3  29
BRANCH  10  31
HETATM   31  C   UNL     1       5.631  15.737  22.986  0.00  0.00     0.100 C 
BRANCH  31  32
HETATM   32  C   UNL     1       4.557  15.519  24.052  0.00  0.00    -0.052 A 
HETATM   33  C   UNL     1       4.767  15.738  25.419  0.00  0.00     0.007 A 
HETATM   34  C   UNL     1       3.758  15.512  26.357  0.00  0.00     0.001 A 
HETATM   35  C   UNL     1       2.538  14.970  25.964  0.00  0.00     0.007 A 
HETATM   36  C   UNL     1       2.331  14.611  24.630  0.00  0.00    -0.061 A 
HETATM   37  C   UNL     1       3.320  14.924  23.676  0.00  0.00     0.014 A 
HETATM   38  C   UNL     1       1.061  13.886  24.266  0.00  0.00     0.048 C 
ENDBRANCH  31  32
ENDBRANCH  10  31
TORSDOF 6
ENDMDL
MODEL 8
REMARK VINA RESULT:    -8.952      5.032      6.551
REMARK INTER + INTRA:         -12.963
REMARK INTER:                 -11.467
REMARK INTRA:                  -1.496
REMARK UNBOUND:                -1.132
REMARK  6 active torsions:
REMARK  status: ('A' for Active; 'I' for Inactive)
REMARK    1  A    between atoms: N_8  and  C_9 
REMARK    2  A    between atoms: C_14  and  N_15 
REMARK       I    between atoms: N_15  and  C_17 
REMARK    3  A    between atoms: C_17  and  C_19 
REMARK    4  A    between atoms: C_21  and  O_22 
REMARK    5  A    between atoms: C_29  and  C_30 
REMARK    6  A    between atoms: C_30  and  C_31 
ROOT
HETATM    1  C   UNL     1       8.675  11.821  24.737  0.00  0.00     0.066 C 
HETATM    2  C   UNL     1       9.815  12.655  24.745  0.00  0.00     0.035 C 
HETATM    3  C   UNL     1       8.889  10.425  24.674  0.00  0.00     0.083 C 
HETATM    4  C   UNL     1      10.166   9.870  24.520  0.00  0.00     0.069 C 
HETATM    5  C   UNL     1      11.231  10.760  24.343  0.00  0.00     0.065 A 
HETATM    6  C   UNL     1      11.092  12.136  24.416  0.00  0.00     0.020 A 
HETATM    7  N   UNL     1      12.562  10.550  24.108  0.00  0.00    -0.277 N 
HETATM    8  H   UNL     1      13.042   9.658  24.054  0.00  0.00     0.189 HD
HETATM    9  N   UNL     1      13.264  11.673  23.890  0.00  0.00    -0.178 NA
HETATM   10  C   UNL     1      12.381  12.668  24.059  0.00  0.00     0.071 A 
ENDROOT
BRANCH   1  11
HETATM   11  C   UNL     1       7.248  12.351  24.745  0.00  0.00     0.260 C 
HETATM   12  N   UNL     1       6.589  12.748  23.539  0.00  0.00    -0.318 N 
HETATM   13  C   UNL     1       7.244  12.591  22.235  0.00  0.00     0.159 C 
HETATM   14  O   UNL     1       6.714  12.339  25.853  0.00  0.00    -0.267 OA
BRANCH  12  15
HETATM   15  C   UNL     1       5.199  13.206  23.492  0.00  0.00     0.037 C 
HETATM   16  C   UNL     1       4.170  12.307  23.177  0.00  0.00     0.032 C 
HETATM   17  C   UNL     1       2.810  12.626  23.323  0.00  0.00     0.031 C 
HETATM   18  C   UNL     1       2.379  13.880  23.757  0.00  0.00     0.030 C 
HETATM   19  C   UNL     1       3.393  14.833  23.905  0.00  0.00     0.031 C 
HETATM   20  C   UNL     1       4.773  14.504  23.784  0.00  0.00     0.032 C 
BRANCH  18  21
HETATM   21  N   UNL     1       1.022  14.120  23.958  0.00  0.00    -0.378 N 
HETATM   22  C   UNL     1       0.358  13.802  25.232  0.00  0.00     0.150 C 
HETATM   23  C   UNL     1      -0.335  12.422  25.182  0.00  0.00     0.254 C 
HETATM   24  N   UNL     1      -1.276  12.327  23.975  0.00  0.00    -0.072 N 
HETATM   25  H   UNL     1      -2.003  13.042  24.103  0.00  0.00     0.279 HD
HETATM   26  C   UNL     1      -1.958  10.994  23.898  0.00  0.00     0.269 C 
HETATM   27  C   UNL     1      -0.541  12.665  22.677  0.00  0.00     0.254 C 
HETATM   28  C   UNL     1       0.122  14.055  22.782  0.00  0.00     0.150 C 
ENDBRANCH  18  21
ENDBRANCH  12  15
ENDBRANCH   1  11
BRANCH   3  29
HETATM   29  O   UNL     1       7.869   9.507  24.752  0.00  0.00    -0.360 OA
HETATM   30  H   UNL     1       7.600   9.279  23.834  0.00  0.00     0.217 HD
ENDBRANCH   3  29
BRANCH  10  31
HETATM   31  C   UNL     1      12.847  14.093  23.849  0.00  0.00     0.100 C 
BRANCH  31  32
HETATM   32  C   UNL     1      11.797  14.948  23.139  0.00  0.00    -0.052 A 
HETATM   33  C   UNL     1      11.253  16.117  23.684  0.00  0.00     0.007 A 
HETATM   34  C   UNL     1      10.286  16.859  23.002  0.00  0.00     0.001 A 
HETATM   35  C   UNL     1       9.768  16.400  21.795  0.00  0.00     0.007 A 
HETATM   36  C   UNL     1      10.184  15.170  21.279  0.00  0.00    -0.061 A 
HETATM   37  C   UNL     1      11.223  14.473  21.927  0.00  0.00     0.014 A 
HETATM   38  C   UNL     1       9.492  14.629  20.054  0.00  0.00     0.048 C 
ENDBRANCH  31  32
ENDBRANCH  10  31
TORSDOF 6
ENDMDL
MODEL 9
REMARK VINA RESULT:    -8.950      5.410     10.167
REMARK INTER + INTRA:         -12.960
REMARK INTER:                 -11.827
REMARK INTRA:                  -1.132
REMARK UNBOUND:                -1.132
REMARK  6 active torsions:
REMARK  status: ('A' for Active; 'I' for Inactive)
REMARK    1  A    between atoms: N_8  and  C_9 
REMARK    2  A    between atoms: C_14  and  N_15 
REMARK       I    between atoms: N_15  and  C_17 
REMARK    3  A    between atoms: C_17  and  C_19 
REMARK    4  A    between atoms: C_21  and  O_22 
REMARK    5  A    between atoms: C_29  and  C_30 
REMARK    6  A    between atoms: C_30  and  C_31 
ROOT
HETATM    1  C   UNL     1       0.753  12.893  23.911  0.00  0.00     0.066 C 
HETATM    2  C   UNL     1       0.235  12.577  25.186  0.00  0.00     0.035 C 
HETATM    3  C   UNL     1      -0.165  12.982  22.839  0.00  0.00     0.083 C 
HETATM    4  C   UNL     1      -1.523  12.672  22.987  0.00  0.00     0.069 C 
HETATM    5  C   UNL     1      -1.932  12.182  24.232  0.00  0.00     0.065 A 
HETATM    6  C   UNL     1      -1.089  12.091  25.328  0.00  0.00     0.020 A 
HETATM    7  N   UNL     1      -3.145  11.735  24.680  0.00  0.00    -0.277 N 
HETATM    8  H   UNL     1      -4.018  11.715  24.164  0.00  0.00     0.189 HD
HETATM    9  N   UNL     1      -3.121  11.240  25.927  0.00  0.00    -0.178 NA
HETATM   10  C   UNL     1      -1.862  11.433  26.348  0.00  0.00     0.071 A 
ENDROOT
BRANCH   1  11
HETATM   11  C   UNL     1       2.236  13.093  23.634  0.00  0.00     0.260 C 
HETATM   12  N   UNL     1       2.997  14.093  24.315  0.00  0.00    -0.318 N 
HETATM   13  C   UNL     1       2.389  14.919  25.365  0.00  0.00     0.159 C 
HETATM   14  O   UNL     1       2.711  12.285  22.836  0.00  0.00    -0.267 OA
BRANCH  12  15
HETATM   15  C   UNL     1       4.437  14.280  24.125  0.00  0.00     0.037 C 
HETATM   16  C   UNL     1       5.348  13.388  24.707  0.00  0.00     0.032 C 
HETATM   17  C   UNL     1       6.717  13.384  24.390  0.00  0.00     0.031 C 
HETATM   18  C   UNL     1       7.281  14.299  23.500  0.00  0.00     0.030 C 
HETATM   19  C   UNL     1       6.410  15.299  23.052  0.00  0.00     0.031 C 
HETATM   20  C   UNL     1       5.018  15.287  23.350  0.00  0.00     0.032 C 
BRANCH  18  21
HETATM   21  N   UNL     1       8.629  14.204  23.162  0.00  0.00    -0.378 N 
HETATM   22  C   UNL     1       9.238  15.076  22.145  0.00  0.00     0.150 C 
HETATM   23  C   UNL     1       9.287  14.388  20.763  0.00  0.00     0.254 C 
HETATM   24  N   UNL     1       9.964  13.015  20.859  0.00  0.00    -0.072 N 
HETATM   25  H   UNL     1      10.931  13.178  21.167  0.00  0.00     0.279 HD
HETATM   26  C   UNL     1      10.020  12.322  19.532  0.00  0.00     0.269 C 
HETATM   27  C   UNL     1       9.297  12.147  21.927  0.00  0.00     0.254 C 
HETATM   28  C   UNL     1       9.284  12.880  23.285  0.00  0.00     0.150 C 
ENDBRANCH  18  21
ENDBRANCH  12  15
ENDBRANCH   1  11
BRANCH   3  29
HETATM   29  O   UNL     1       0.200  13.371  21.571  0.00  0.00    -0.360 OA
HETATM   30  H   UNL     1       0.214  12.569  21.004  0.00  0.00     0.217 HD
ENDBRANCH   3  29
BRANCH  10  31
HETATM   31  C   UNL     1      -1.480  10.949  27.731  0.00  0.00     0.100 C 
BRANCH  31  32
HETATM   32  C   UNL     1      -1.358   9.426  27.798  0.00  0.00    -0.052 A 
HETATM   33  C   UNL     1      -1.854   8.656  28.857  0.00  0.00     0.007 A 
HETATM   34  C   UNL     1      -1.707   7.267  28.879  0.00  0.00     0.001 A 
HETATM   35  C   UNL     1      -0.977   6.619  27.888  0.00  0.00     0.007 A 
HETATM   36  C   UNL     1      -0.351   7.361  26.883  0.00  0.00    -0.061 A 
HETATM   37  C   UNL     1      -0.578   8.751  26.818  0.00  0.00     0.014 A 
HETATM   38  C   UNL     1       0.558   6.647  25.916  0.00  0.00     0.048 C 
ENDBRANCH  31  32
ENDBRANCH  10  31
TORSDOF 6
ENDMDL
