MODEL 1
REMARK VINA RESULT:    -8.429      0.000      0.000
REMARK INTER + INTRA:         -13.553
REMARK INTER:                 -11.156
REMARK INTRA:                  -2.398
REMARK UNBOUND:                -2.168
REMARK  7 active torsions:
REMARK  status: ('A' for Active; 'I' for Inactive)
REMARK    1  A    between atoms: C_7  and  N_8 
REMARK    2  A    between atoms: C_14  and  C_15 
REMARK    3  A    between atoms: C_16  and  O_17 
REMARK    4  A    between atoms: C_19  and  O_20 
REMARK    5  A    between atoms: C_22  and  C_23 
REMARK       I    between atoms: C_23  and  N_25 
REMARK    6  A    between atoms: N_25  and  C_27 
REMARK    7  A    between atoms: C_27  and  C_28 
ROOT
HETATM    1  C   UNL     1      -0.518  14.590  24.575  0.00  0.00     0.046 A 
HETATM    2  C   UNL     1      -0.081  15.188  25.782  0.00  0.00     0.082 A 
HETATM    3  C   UNL     1      -0.827  15.116  26.955  0.00  0.00     0.075 A 
HETATM    4  C   UNL     1      -2.032  14.422  26.964  0.00  0.00     0.084 A 
HETATM    5  C   UNL     1      -1.751  13.914  24.604  0.00  0.00     0.038 A 
HETATM    6  C   UNL     1      -2.510  13.804  25.795  0.00  0.00     0.066 A 
ENDROOT
BRANCH   1   7
HETATM    7  C   UNL     1       0.480  14.544  23.451  0.00  0.00     0.172 A 
HETATM    8  N   UNL     1       0.352  14.931  22.137  0.00  0.00    -0.241 N 
HETATM    9  C   UNL     1       1.614  14.771  21.585  0.00  0.00     0.349 A 
HETATM   10  O   UNL     1       1.983  14.880  20.422  0.00  0.00    -0.245 OA
HETATM   11  N   UNL     1       2.422  14.335  22.615  0.00  0.00    -0.226 N 
HETATM   12  H   UNL     1       3.389  14.051  22.517  0.00  0.00     0.194 HD
HETATM   13  N   UNL     1       1.709  14.183  23.752  0.00  0.00    -0.151 NA
BRANCH   8  14
HETATM   14  C   UNL     1      -0.725  15.319  21.322  0.00  0.00     0.084 A 
HETATM   15  C   UNL     1      -1.744  14.397  21.027  0.00  0.00     0.143 A 
HETATM   16  F   UNL     1      -1.593  13.100  21.334  0.00  0.00    -0.204 F 
HETATM   17  C   UNL     1      -2.928  14.786  20.404  0.00  0.00     0.044 A 
HETATM   18  C   UNL     1      -3.098  16.113  20.020  0.00  0.00     0.003 A 
HETATM   19  C   UNL     1      -2.099  17.043  20.298  0.00  0.00     0.002 A 
HETATM   20  C   UNL     1      -0.942  16.654  20.985  0.00  0.00     0.033 A 
ENDBRANCH   8  14
ENDBRANCH   1   7
BRANCH   2  21
HETATM   21  O   UNL     1       1.117  15.849  25.919  0.00  0.00    -0.360 OA
HETATM   22  H   UNL     1       1.353  15.871  26.872  0.00  0.00     0.217 HD
ENDBRANCH   2  21
BRANCH   6  23
HETATM   23  C   UNL     1      -3.553  12.735  25.929  0.00  0.00     0.256 C 
HETATM   24  O   UNL     1      -4.688  13.053  25.564  0.00  0.00    -0.267 OA
HETATM   25  N   UNL     1      -3.317  11.488  26.524  0.00  0.00    -0.346 N 
HETATM   26  C   UNL     1      -4.478  10.619  26.721  0.00  0.00     0.153 C 
BRANCH  25  27
HETATM   27  C   UNL     1      -2.021  10.875  26.807  0.00  0.00     0.190 C 
BRANCH  27  28
HETATM   28  C   UNL     1      -1.287  10.617  25.539  0.00  0.00     0.070 A 
HETATM   29  O   UNL     1       0.009  11.047  25.480  0.00  0.00    -0.325 OA
HETATM   30  C   UNL     1       0.467  10.758  24.234  0.00  0.00     0.142 A 
HETATM   31  C   UNL     1      -0.514  10.147  23.490  0.00  0.00     0.027 A 
HETATM   32  C   UNL     1      -1.640  10.032  24.339  0.00  0.00     0.036 A 
ENDBRANCH  27  28
ENDBRANCH  25  27
ENDBRANCH   6  23
BRANCH   4  33
HETATM   33  O   UNL     1      -2.716  14.334  28.148  0.00  0.00    -0.360 OA
HETATM   34  H   UNL     1      -3.304  13.559  28.108  0.00  0.00     0.217 HD
ENDBRANCH   4  33
TORSDOF 7
ENDMDL
MODEL 2
REMARK VINA RESULT:    -8.059      2.321      6.381
REMARK INTER + INTRA:         -13.053
REMARK INTER:                 -10.346
REMARK INTRA:                  -2.708
REMARK UNBOUND:                -2.168
REMARK  7 active torsions:
REMARK  status: ('A' for Active; 'I' for Inactive)
REMARK    1  A    between atoms: C_7  and  N_8 
REMARK    2  A    between atoms: C_14  and  C_15 
REMARK    3  A    between atoms: C_16  and  O_17 
REMARK    4  A    between atoms: C_19  and  O_20 
REMARK    5  A    between atoms: C_22  and  C_23 
REMARK       I    between atoms: C_23  and  N_25 
REMARK    6  A    between atoms: N_25  and  C_27 
REMARK    7  A    between atoms: C_27  and  C_28 
ROOT
HETATM    1  C   UNL     1      -3.205  13.944  23.464  0.00  0.00     0.046 A 
HETATM    2  C   UNL     1      -4.069  13.831  22.347  0.00  0.00     0.082 A 
HETATM    3  C   UNL     1      -3.829  14.510  21.155  0.00  0.00     0.075 A 
HETATM    4  C   UNL     1      -2.699  15.312  21.034  0.00  0.00     0.084 A 
HETATM    5  C   UNL     1      -2.083  14.780  23.323  0.00  0.00     0.038 A 
HETATM    6  C   UNL     1      -1.804  15.455  22.109  0.00  0.00     0.066 A 
ENDROOT
BRANCH   1   7
HETATM    7  C   UNL     1      -3.451  12.990  24.599  0.00  0.00     0.172 A 
HETATM    8  N   UNL     1      -2.656  11.984  25.098  0.00  0.00    -0.241 N 
HETATM    9  C   UNL     1      -3.328  11.506  26.212  0.00  0.00     0.349 A 
HETATM   10  O   UNL     1      -3.078  10.544  26.927  0.00  0.00    -0.245 OA
HETATM   11  N   UNL     1      -4.462  12.283  26.328  0.00  0.00    -0.226 N 
HETATM   12  H   UNL     1      -5.205  12.133  27.000  0.00  0.00     0.194 HD
HETATM   13  N   UNL     1      -4.535  13.179  25.321  0.00  0.00    -0.151 NA
BRANCH   8  14
HETATM   14  C   UNL     1      -1.470  11.359  24.673  0.00  0.00     0.084 A 
HETATM   15  C   UNL     1      -0.227  11.914  25.022  0.00  0.00     0.143 A 
HETATM   16  F   UNL     1      -0.161  13.139  25.566  0.00  0.00    -0.204 F 
HETATM   17  C   UNL     1       0.968  11.230  24.809  0.00  0.00     0.044 A 
HETATM   18  C   UNL     1       0.944   9.981  24.195  0.00  0.00     0.003 A 
HETATM   19  C   UNL     1      -0.277   9.414  23.837  0.00  0.00     0.002 A 
HETATM   20  C   UNL     1      -1.476  10.081  24.117  0.00  0.00     0.033 A 
ENDBRANCH   8  14
ENDBRANCH   1   7
BRANCH   2  21
HETATM   21  O   UNL     1      -5.183  13.026  22.320  0.00  0.00    -0.360 OA
HETATM   22  H   UNL     1      -5.018  12.247  22.896  0.00  0.00     0.217 HD
ENDBRANCH   2  21
BRANCH   6  23
HETATM   23  C   UNL     1      -0.421  15.955  21.823  0.00  0.00     0.256 C 
HETATM   24  O   UNL     1      -0.344  17.141  21.492  0.00  0.00    -0.267 OA
HETATM   25  N   UNL     1       0.717  15.136  21.815  0.00  0.00    -0.346 N 
HETATM   26  C   UNL     1       1.967  15.746  21.361  0.00  0.00     0.153 C 
BRANCH  25  27
HETATM   27  C   UNL     1       0.844  13.794  22.379  0.00  0.00     0.190 C 
BRANCH  27  28
HETATM   28  C   UNL     1       0.409  12.775  21.386  0.00  0.00     0.070 A 
HETATM   29  O   UNL     1       1.312  12.439  20.415  0.00  0.00    -0.325 OA
HETATM   30  C   UNL     1       0.698  11.543  19.598  0.00  0.00     0.142 A 
HETATM   31  C   UNL     1      -0.583  11.297  20.028  0.00  0.00     0.027 A 
HETATM   32  C   UNL     1      -0.763  12.072  21.197  0.00  0.00     0.036 A 
ENDBRANCH  27  28
ENDBRANCH  25  27
ENDBRANCH   6  23
BRANCH   4  33
HETATM   33  O   UNL     1      -2.473  15.927  19.830  0.00  0.00    -0.360 OA
HETATM   34  H   UNL     1      -1.992  16.758  19.994  0.00  0.00     0.217 HD
ENDBRANCH   4  33
TORSDOF 7
ENDMDL
MODEL 3
REMARK VINA RESULT:    -7.951      3.132      7.279
REMARK INTER + INTRA:         -12.908
REMARK INTER:                 -10.997
REMARK INTRA:                  -1.910
REMARK UNBOUND:                -2.168
REMARK  7 active torsions:
REMARK  status: ('A' for Active; 'I' for Inactive)
REMARK    1  A    between atoms: C_7  and  N_8 
REMARK    2  A    between atoms: C_14  and  C_15 
REMARK    3  A    between atoms: C_16  and  O_17 
REMARK    4  A    between atoms: C_19  and  O_20 
REMARK    5  A    between atoms: C_22  and  C_23 
REMARK       I    between atoms: C_23  and  N_25 
REMARK    6  A    between atoms: N_25  and  C_27 
REMARK    7  A    between atoms: C_27  and  C_28 
ROOT
HETATM    1  C   UNL     1      -2.450  10.944  26.222  0.00  0.00     0.046 A 
HETATM    2  C   UNL     1      -3.834  11.163  26.426  0.00  0.00     0.082 A 
HETATM    3  C   UNL     1      -4.650  11.709  25.438  0.00  0.00     0.075 A 
HETATM    4  C   UNL     1      -4.108  12.033  24.199  0.00  0.00     0.084 A 
HETATM    5  C   UNL     1      -1.923  11.303  24.968  0.00  0.00     0.038 A 
HETATM    6  C   UNL     1      -2.741  11.830  23.940  0.00  0.00     0.066 A 
ENDROOT
BRANCH   1   7
HETATM    7  C   UNL     1      -1.736  10.145  27.277  0.00  0.00     0.172 A 
HETATM    8  N   UNL     1      -0.749   9.195  27.151  0.00  0.00    -0.241 N 
HETATM    9  C   UNL     1      -0.384   8.875  28.450  0.00  0.00     0.349 A 
HETATM   10  O   UNL     1       0.375   8.006  28.861  0.00  0.00    -0.245 OA
HETATM   11  N   UNL     1      -1.151   9.681  29.265  0.00  0.00    -0.226 N 
HETATM   12  H   UNL     1      -1.176   9.631  30.277  0.00  0.00     0.194 HD
HETATM   13  N   UNL     1      -1.990  10.444  28.533  0.00  0.00    -0.151 NA
BRANCH   8  14
HETATM   14  C   UNL     1      -0.178   8.500  26.071  0.00  0.00     0.084 A 
HETATM   15  C   UNL     1       0.936   9.040  25.406  0.00  0.00     0.143 A 
HETATM   16  F   UNL     1       1.325  10.301  25.649  0.00  0.00    -0.204 F 
HETATM   17  C   UNL     1       1.663   8.302  24.474  0.00  0.00     0.044 A 
HETATM   18  C   UNL     1       1.258   7.009  24.155  0.00  0.00     0.003 A 
HETATM   19  C   UNL     1       0.153   6.456  24.799  0.00  0.00     0.002 A 
HETATM   20  C   UNL     1      -0.530   7.183  25.782  0.00  0.00     0.033 A 
ENDBRANCH   8  14
ENDBRANCH   1   7
BRANCH   2  21
HETATM   21  O   UNL     1      -4.499  10.830  27.582  0.00  0.00    -0.360 OA
HETATM   22  H   UNL     1      -4.430   9.858  27.712  0.00  0.00     0.217 HD
ENDBRANCH   2  21
BRANCH   6  23
HETATM   23  C   UNL     1      -2.286  11.781  22.512  0.00  0.00     0.256 C 
HETATM   24  O   UNL     1      -2.516  10.724  21.919  0.00  0.00    -0.267 OA
HETATM   25  N   UNL     1      -1.550  12.801  21.895  0.00  0.00    -0.346 N 
HETATM   26  C   UNL     1      -1.045  12.530  20.548  0.00  0.00     0.153 C 
BRANCH  25  27
HETATM   27  C   UNL     1      -1.380  14.175  22.362  0.00  0.00     0.190 C 
BRANCH  27  28
HETATM   28  C   UNL     1      -2.227  15.099  21.561  0.00  0.00     0.070 A 
HETATM   29  O   UNL     1      -3.579  14.906  21.627  0.00  0.00    -0.325 OA
HETATM   30  C   UNL     1      -4.150  15.815  20.792  0.00  0.00     0.142 A 
HETATM   31  C   UNL     1      -3.187  16.589  20.191  0.00  0.00     0.027 A 
HETATM   32  C   UNL     1      -1.946  16.146  20.706  0.00  0.00     0.036 A 
ENDBRANCH  27  28
ENDBRANCH  25  27
ENDBRANCH   6  23
BRANCH   4  33
HETATM   33  O   UNL     1      -4.952  12.524  23.237  0.00  0.00    -0.360 OA
HETATM   34  H   UNL     1      -5.844  12.166  23.396  0.00  0.00     0.217 HD
ENDBRANCH   4  33
TORSDOF 7
ENDMDL
MODEL 4
REMARK VINA RESULT:    -7.917      2.388      6.624
REMARK INTER + INTRA:         -12.861
REMARK INTER:                 -11.608
REMARK INTRA:                  -1.253
REMARK UNBOUND:                -2.168
REMARK  7 active torsions:
REMARK  status: ('A' for Active; 'I' for Inactive)
REMARK    1  A    between atoms: C_7  and  N_8 
REMARK    2  A    between atoms: C_14  and  C_15 
REMARK    3  A    between atoms: C_16  and  O_17 
REMARK    4  A    between atoms: C_19  and  O_20 
REMARK    5  A    between atoms: C_22  and  C_23 
REMARK       I    between atoms: C_23  and  N_25 
REMARK    6  A    between atoms: N_25  and  C_27 
REMARK    7  A    between atoms: C_27  and  C_28 
ROOT
HETATM    1  C   UNL     1      -2.969  14.016  22.464  0.00  0.00     0.046 A 
HETATM    2  C   UNL     1      -4.262  14.207  21.917  0.00  0.00     0.082 A 
HETATM    3  C   UNL     1      -4.544  15.243  21.029  0.00  0.00     0.075 A 
HETATM    4  C   UNL     1      -3.530  16.113  20.642  0.00  0.00     0.084 A 
HETATM    5  C   UNL     1      -1.968  14.924  22.074  0.00  0.00     0.038 A 
HETATM    6  C   UNL     1      -2.227  15.966  21.149  0.00  0.00     0.066 A 
ENDROOT
BRANCH   1   7
HETATM    7  C   UNL     1      -2.745  12.738  23.222  0.00  0.00     0.172 A 
HETATM    8  N   UNL     1      -2.299  12.537  24.507  0.00  0.00    -0.241 N 
HETATM    9  C   UNL     1      -2.394  11.170  24.717  0.00  0.00     0.349 A 
HETATM   10  O   UNL     1      -2.015  10.492  25.665  0.00  0.00    -0.245 OA
HETATM   11  N   UNL     1      -2.926  10.647  23.557  0.00  0.00    -0.226 N 
HETATM   12  H   UNL     1      -3.046   9.661  23.363  0.00  0.00     0.194 HD
HETATM   13  N   UNL     1      -3.120  11.619  22.639  0.00  0.00    -0.151 NA
BRANCH   8  14
HETATM   14  C   UNL     1      -1.736  13.360  25.498  0.00  0.00     0.084 A 
HETATM   15  C   UNL     1      -0.530  14.035  25.240  0.00  0.00     0.143 A 
HETATM   16  F   UNL     1       0.194  13.736  24.151  0.00  0.00    -0.204 F 
HETATM   17  C   UNL     1      -0.041  15.018  26.098  0.00  0.00     0.044 A 
HETATM   18  C   UNL     1      -0.736  15.317  27.267  0.00  0.00     0.003 A 
HETATM   19  C   UNL     1      -1.931  14.656  27.544  0.00  0.00     0.002 A 
HETATM   20  C   UNL     1      -2.448  13.719  26.641  0.00  0.00     0.033 A 
ENDBRANCH   8  14
ENDBRANCH   1   7
BRANCH   2  21
HETATM   21  O   UNL     1      -5.331  13.382  22.173  0.00  0.00    -0.360 OA
HETATM   22  H   UNL     1      -5.183  12.941  23.039  0.00  0.00     0.217 HD
ENDBRANCH   2  21
BRANCH   6  23
HETATM   23  C   UNL     1      -1.097  16.619  20.412  0.00  0.00     0.256 C 
HETATM   24  O   UNL     1      -1.391  17.111  19.320  0.00  0.00    -0.267 OA
HETATM   25  N   UNL     1       0.234  16.596  20.850  0.00  0.00    -0.346 N 
HETATM   26  C   UNL     1       1.240  17.141  19.937  0.00  0.00     0.153 C 
BRANCH  25  27
HETATM   27  C   UNL     1       0.719  16.259  22.186  0.00  0.00     0.190 C 
BRANCH  27  28
HETATM   28  C   UNL     1       2.041  15.582  22.098  0.00  0.00     0.070 A 
HETATM   29  O   UNL     1       3.146  16.360  22.306  0.00  0.00    -0.325 OA
HETATM   30  C   UNL     1       4.231  15.561  22.132  0.00  0.00     0.142 A 
HETATM   31  C   UNL     1       3.843  14.282  21.815  0.00  0.00     0.027 A 
HETATM   32  C   UNL     1       2.428  14.287  21.819  0.00  0.00     0.036 A 
ENDBRANCH  27  28
ENDBRANCH  25  27
ENDBRANCH   6  23
BRANCH   4  33
HETATM   33  O   UNL     1      -3.835  17.091  19.731  0.00  0.00    -0.360 OA
HETATM   34  H   UNL     1      -3.304  16.942  18.929  0.00  0.00     0.217 HD
ENDBRANCH   4  33
TORSDOF 7
ENDMDL
MODEL 5
REMARK VINA RESULT:    -7.863      1.805      6.877
REMARK INTER + INTRA:         -12.789
REMARK INTER:                 -10.869
REMARK INTRA:                  -1.920
REMARK UNBOUND:                -2.168
REMARK  7 active torsions:
REMARK  status: ('A' for Active; 'I' for Inactive)
REMARK    1  A    between atoms: C_7  and  N_8 
REMARK    2  A    between atoms: C_14  and  C_15 
REMARK    3  A    between atoms: C_16  and  O_17 
REMARK    4  A    between atoms: C_19  and  O_20 
REMARK    5  A    between atoms: C_22  and  C_23 
REMARK       I    between atoms: C_23  and  N_25 
REMARK    6  A    between atoms: N_25  and  C_27 
REMARK    7  A    between atoms: C_27  and  C_28 
ROOT
HETATM    1  C   UNL     1      -1.539  13.500  25.125  0.00  0.00     0.046 A 
HETATM    2  C   UNL     1      -1.149  14.449  26.102  0.00  0.00     0.082 A 
HETATM    3  C   UNL     1      -0.103  15.343  25.888  0.00  0.00     0.075 A 
HETATM    4  C   UNL     1       0.576  15.331  24.674  0.00  0.00     0.084 A 
HETATM    5  C   UNL     1      -0.820  13.493  23.916  0.00  0.00     0.038 A 
HETATM    6  C   UNL     1       0.226  14.415  23.667  0.00  0.00     0.066 A 
ENDROOT
BRANCH   1   7
HETATM    7  C   UNL     1      -2.818  12.756  25.388  0.00  0.00     0.172 A 
HETATM    8  N   UNL     1      -3.019  11.484  25.872  0.00  0.00    -0.241 N 
HETATM    9  C   UNL     1      -4.392  11.361  26.019  0.00  0.00     0.349 A 
HETATM   10  O   UNL     1      -5.067  10.383  26.314  0.00  0.00    -0.245 OA
HETATM   11  N   UNL     1      -4.919  12.581  25.649  0.00  0.00    -0.226 N 
HETATM   12  H   UNL     1      -5.907  12.790  25.571  0.00  0.00     0.194 HD
HETATM   13  N   UNL     1      -3.943  13.423  25.246  0.00  0.00    -0.151 NA
BRANCH   8  14
HETATM   14  C   UNL     1      -2.187  10.379  26.122  0.00  0.00     0.084 A 
HETATM   15  C   UNL     1      -1.532   9.744  25.052  0.00  0.00     0.143 A 
HETATM   16  F   UNL     1      -1.859  10.042  23.786  0.00  0.00    -0.204 F 
HETATM   17  C   UNL     1      -0.542   8.786  25.262  0.00  0.00     0.044 A 
HETATM   18  C   UNL     1      -0.214   8.411  26.562  0.00  0.00     0.003 A 
HETATM   19  C   UNL     1      -0.854   9.024  27.637  0.00  0.00     0.002 A 
HETATM   20  C   UNL     1      -1.800  10.033  27.415  0.00  0.00     0.033 A 
ENDBRANCH   8  14
ENDBRANCH   1   7
BRANCH   2  21
HETATM   21  O   UNL     1      -1.778  14.602  27.314  0.00  0.00    -0.360 OA
HETATM   22  H   UNL     1      -1.947  13.710  27.692  0.00  0.00     0.217 HD
ENDBRANCH   2  21
BRANCH   6  23
HETATM   23  C   UNL     1       0.664  14.698  22.262  0.00  0.00     0.256 C 
HETATM   24  O   UNL     1       1.485  13.905  21.792  0.00  0.00    -0.267 OA
HETATM   25  N   UNL     1       0.277  15.835  21.540  0.00  0.00    -0.346 N 
HETATM   26  C   UNL     1       0.918  16.045  20.241  0.00  0.00     0.153 C 
BRANCH  25  27
HETATM   27  C   UNL     1      -0.827  16.743  21.847  0.00  0.00     0.190 C 
BRANCH  27  28
HETATM   28  C   UNL     1      -2.045  16.344  21.092  0.00  0.00     0.070 A 
HETATM   29  O   UNL     1      -2.744  15.272  21.574  0.00  0.00    -0.325 OA
HETATM   30  C   UNL     1      -3.775  15.053  20.716  0.00  0.00     0.142 A 
HETATM   31  C   UNL     1      -3.752  15.968  19.691  0.00  0.00     0.027 A 
HETATM   32  C   UNL     1      -2.651  16.818  19.946  0.00  0.00     0.036 A 
ENDBRANCH  27  28
ENDBRANCH  25  27
ENDBRANCH   6  23
BRANCH   4  33
HETATM   33  O   UNL     1       1.569  16.257  24.484  0.00  0.00    -0.360 OA
HETATM   34  H   UNL     1       2.407  15.784  24.335  0.00  0.00     0.217 HD
ENDBRANCH   4  33
TORSDOF 7
ENDMDL
MODEL 6
REMARK VINA RESULT:    -7.816      2.203      4.272
REMARK INTER + INTRA:         -12.725
REMARK INTER:                 -10.753
REMARK INTRA:                  -1.972
REMARK UNBOUND:                -2.168
REMARK  7 active torsions:
REMARK  status: ('A' for Active; 'I' for Inactive)
REMARK    1  A    between atoms: C_7  and  N_8 
REMARK    2  A    between atoms: C_14  and  C_15 
REMARK    3  A    between atoms: C_16  and  O_17 
REMARK    4  A    between atoms: C_19  and  O_20 
REMARK    5  A    between atoms: C_22  and  C_23 
REMARK       I    between atoms: C_23  and  N_25 
REMARK    6  A    between atoms: N_25  and  C_27 
REMARK    7  A    between atoms: C_27  and  C_28 
ROOT
HETATM    1  C   UNL     1      -1.791  15.122  21.180  0.00  0.00     0.046 A 
HETATM    2  C   UNL     1      -2.913  15.515  20.409  0.00  0.00     0.082 A 
HETATM    3  C   UNL     1      -4.192  15.024  20.662  0.00  0.00     0.075 A 
HETATM    4  C   UNL     1      -4.394  14.136  21.713  0.00  0.00     0.084 A 
HETATM    5  C   UNL     1      -2.019  14.205  22.222  0.00  0.00     0.038 A 
HETATM    6  C   UNL     1      -3.317  13.718  22.514  0.00  0.00     0.066 A 
ENDROOT
BRANCH   1   7
HETATM    7  C   UNL     1      -0.520  15.893  20.953  0.00  0.00     0.172 A 
HETATM    8  N   UNL     1       0.675  15.848  21.632  0.00  0.00    -0.241 N 
HETATM    9  C   UNL     1       1.527  16.683  20.925  0.00  0.00     0.349 A 
HETATM   10  O   UNL     1       2.663  17.055  21.192  0.00  0.00    -0.245 OA
HETATM   11  N   UNL     1       0.796  17.141  19.849  0.00  0.00    -0.226 N 
HETATM   12  H   UNL     1       1.113  17.835  19.182  0.00  0.00     0.194 HD
HETATM   13  N   UNL     1      -0.466  16.663  19.888  0.00  0.00    -0.151 NA
BRANCH   8  14
HETATM   14  C   UNL     1       1.109  15.256  22.830  0.00  0.00     0.084 A 
HETATM   15  C   UNL     1       2.125  14.285  22.800  0.00  0.00     0.143 A 
HETATM   16  F   UNL     1       2.530  13.766  21.631  0.00  0.00    -0.204 F 
HETATM   17  C   UNL     1       2.733  13.823  23.964  0.00  0.00     0.044 A 
HETATM   18  C   UNL     1       2.302  14.297  25.200  0.00  0.00     0.003 A 
HETATM   19  C   UNL     1       1.293  15.256  25.254  0.00  0.00     0.002 A 
HETATM   20  C   UNL     1       0.735  15.764  24.074  0.00  0.00     0.033 A 
ENDBRANCH   8  14
ENDBRANCH   1   7
BRANCH   2  21
HETATM   21  O   UNL     1      -2.855  16.430  19.385  0.00  0.00    -0.360 OA
HETATM   22  H   UNL     1      -3.653  17.002  19.433  0.00  0.00     0.217 HD
ENDBRANCH   2  21
BRANCH   6  23
HETATM   23  C   UNL     1      -3.615  13.125  23.858  0.00  0.00     0.256 C 
HETATM   24  O   UNL     1      -4.216  13.865  24.642  0.00  0.00    -0.267 OA
HETATM   25  N   UNL     1      -3.163  11.865  24.271  0.00  0.00    -0.346 N 
HETATM   26  C   UNL     1      -3.405  11.501  25.668  0.00  0.00     0.153 C 
BRANCH  25  27
HETATM   27  C   UNL     1      -2.641  10.793  23.427  0.00  0.00     0.190 C 
BRANCH  27  28
HETATM   28  C   UNL     1      -1.199  10.567  23.716  0.00  0.00     0.070 A 
HETATM   29  O   UNL     1      -0.832   9.293  24.051  0.00  0.00    -0.325 OA
HETATM   30  C   UNL     1       0.501   9.323  24.319  0.00  0.00     0.142 A 
HETATM   31  C   UNL     1       0.996  10.595  24.161  0.00  0.00     0.027 A 
HETATM   32  C   UNL     1      -0.095  11.395  23.747  0.00  0.00     0.036 A 
ENDBRANCH  27  28
ENDBRANCH  25  27
ENDBRANCH   6  23
BRANCH   4  33
HETATM   33  O   UNL     1      -5.673  13.712  21.960  0.00  0.00    -0.360 OA
HETATM   34  H   UNL     1      -5.641  13.009  22.633  0.00  0.00     0.217 HD
ENDBRANCH   4  33
TORSDOF 7
ENDMDL
MODEL 7
REMARK VINA RESULT:    -7.800      2.848      4.313
REMARK INTER + INTRA:         -12.704
REMARK INTER:                 -10.536
REMARK INTRA:                  -2.168
REMARK UNBOUND:                -2.168
REMARK  7 active torsions:
REMARK  status: ('A' for Active; 'I' for Inactive)
REMARK    1  A    between atoms: C_7  and  N_8 
REMARK    2  A    between atoms: C_14  and  C_15 
REMARK    3  A    between atoms: C_16  and  O_17 
REMARK    4  A    between atoms: C_19  and  O_20 
REMARK    5  A    between atoms: C_22  and  C_23 
REMARK       I    between atoms: C_23  and  N_25 
REMARK    6  A    between atoms: N_25  and  C_27 
REMARK    7  A    between atoms: C_27  and  C_28 
ROOT
HETATM    1  C   UNL     1      -2.820  11.234  23.991  0.00  0.00     0.046 A 
HETATM    2  C   UNL     1      -4.161  11.649  24.178  0.00  0.00     0.082 A 
HETATM    3  C   UNL     1      -4.830  11.464  25.386  0.00  0.00     0.075 A 
HETATM    4  C   UNL     1      -4.168  10.874  26.457  0.00  0.00     0.084 A 
HETATM    5  C   UNL     1      -2.181  10.620  25.082  0.00  0.00     0.038 A 
HETATM    6  C   UNL     1      -2.834  10.450  26.328  0.00  0.00     0.066 A 
ENDROOT
BRANCH   1   7
HETATM    7  C   UNL     1      -2.147  11.695  22.727  0.00  0.00     0.172 A 
HETATM    8  N   UNL     1      -1.139  12.614  22.546  0.00  0.00    -0.241 N 
HETATM    9  C   UNL     1      -0.836  12.559  21.194  0.00  0.00     0.349 A 
HETATM   10  O   UNL     1      -0.084  13.261  20.529  0.00  0.00    -0.245 OA
HETATM   11  N   UNL     1      -1.656  11.585  20.664  0.00  0.00    -0.226 N 
HETATM   12  H   UNL     1      -1.733  11.360  19.679  0.00  0.00     0.194 HD
HETATM   13  N   UNL     1      -2.470  11.075  21.613  0.00  0.00    -0.151 NA
BRANCH   8  14
HETATM   14  C   UNL     1      -0.503  13.558  23.369  0.00  0.00     0.084 A 
HETATM   15  C   UNL     1      -1.267  14.545  24.017  0.00  0.00     0.143 A 
HETATM   16  F   UNL     1      -2.556  14.725  23.691  0.00  0.00    -0.204 F 
HETATM   17  C   UNL     1      -0.721  15.368  24.999  0.00  0.00     0.044 A 
HETATM   18  C   UNL     1       0.627  15.247  25.326  0.00  0.00     0.003 A 
HETATM   19  C   UNL     1       1.404  14.280  24.692  0.00  0.00     0.002 A 
HETATM   20  C   UNL     1       0.829  13.413  23.755  0.00  0.00     0.033 A 
ENDBRANCH   8  14
ENDBRANCH   1   7
BRANCH   2  21
HETATM   21  O   UNL     1      -4.903  12.296  23.219  0.00  0.00    -0.360 OA
HETATM   22  H   UNL     1      -5.232  13.141  23.598  0.00  0.00     0.217 HD
ENDBRANCH   2  21
BRANCH   6  23
HETATM   23  C   UNL     1      -2.033  10.224  27.575  0.00  0.00     0.256 C 
HETATM   24  O   UNL     1      -2.146  11.095  28.442  0.00  0.00    -0.267 OA
HETATM   25  N   UNL     1      -1.125   9.169  27.737  0.00  0.00    -0.346 N 
HETATM   26  C   UNL     1      -0.307   9.181  28.950  0.00  0.00     0.153 C 
BRANCH  25  27
HETATM   27  C   UNL     1      -1.026   7.957  26.927  0.00  0.00     0.190 C 
BRANCH  27  28
HETATM   28  C   UNL     1      -0.021   8.142  25.846  0.00  0.00     0.070 A 
HETATM   29  O   UNL     1      -0.204   7.411  24.705  0.00  0.00    -0.325 OA
HETATM   30  C   UNL     1       0.841   7.693  23.883  0.00  0.00     0.142 A 
HETATM   31  C   UNL     1       1.692   8.594  24.476  0.00  0.00     0.027 A 
HETATM   32  C   UNL     1       1.124   8.905  25.733  0.00  0.00     0.036 A 
ENDBRANCH  27  28
ENDBRANCH  25  27
ENDBRANCH   6  23
BRANCH   4  33
HETATM   33  O   UNL     1      -4.844  10.751  27.643  0.00  0.00    -0.360 OA
HETATM   34  H   UNL     1      -4.330  10.171  28.233  0.00  0.00     0.217 HD
ENDBRANCH   4  33
TORSDOF 7
ENDMDL
MODEL 8
REMARK VINA RESULT:    -7.739      2.692      6.747
REMARK INTER + INTRA:         -12.621
REMARK INTER:                 -10.892
REMARK INTRA:                  -1.729
REMARK UNBOUND:                -2.168
REMARK  7 active torsions:
REMARK  status: ('A' for Active; 'I' for Inactive)
REMARK    1  A    between atoms: C_7  and  N_8 
REMARK    2  A    between atoms: C_14  and  C_15 
REMARK    3  A    between atoms: C_16  and  O_17 
REMARK    4  A    between atoms: C_19  and  O_20 
REMARK    5  A    between atoms: C_22  and  C_23 
REMARK       I    between atoms: C_23  and  N_25 
REMARK    6  A    between atoms: N_25  and  C_27 
REMARK    7  A    between atoms: C_27  and  C_28 
ROOT
HETATM    1  C   UNL     1      -1.380  12.581  22.528  0.00  0.00     0.046 A 
HETATM    2  C   UNL     1      -2.362  12.411  21.522  0.00  0.00     0.082 A 
HETATM    3  C   UNL     1      -2.708  13.436  20.646  0.00  0.00     0.075 A 
HETATM    4  C   UNL     1      -2.063  14.665  20.734  0.00  0.00     0.084 A 
HETATM    5  C   UNL     1      -0.759  13.840  22.611  0.00  0.00     0.038 A 
HETATM    6  C   UNL     1      -1.075  14.886  21.710  0.00  0.00     0.066 A 
ENDROOT
BRANCH   1   7
HETATM    7  C   UNL     1      -0.940  11.338  23.252  0.00  0.00     0.172 A 
HETATM    8  N   UNL     1      -1.475  10.723  24.360  0.00  0.00    -0.241 N 
HETATM    9  C   UNL     1      -0.741   9.558  24.521  0.00  0.00     0.349 A 
HETATM   10  O   UNL     1      -0.765   8.732  25.425  0.00  0.00    -0.245 OA
HETATM   11  N   UNL     1       0.160   9.535  23.476  0.00  0.00    -0.226 N 
HETATM   12  H   UNL     1       0.895   8.848  23.355  0.00  0.00     0.194 HD
HETATM   13  N   UNL     1       0.039  10.643  22.714  0.00  0.00    -0.151 NA
BRANCH   8  14
HETATM   14  C   UNL     1      -2.453  11.071  25.307  0.00  0.00     0.084 A 
HETATM   15  C   UNL     1      -3.804  10.777  25.054  0.00  0.00     0.143 A 
HETATM   16  F   UNL     1      -4.191  10.367  23.837  0.00  0.00    -0.204 F 
HETATM   17  C   UNL     1      -4.780  10.908  26.039  0.00  0.00     0.044 A 
HETATM   18  C   UNL     1      -4.426  11.383  27.299  0.00  0.00     0.003 A 
HETATM   19  C   UNL     1      -3.094  11.686  27.570  0.00  0.00     0.002 A 
HETATM   20  C   UNL     1      -2.110  11.486  26.593  0.00  0.00     0.033 A 
ENDBRANCH   8  14
ENDBRANCH   1   7
BRANCH   2  21
HETATM   21  O   UNL     1      -3.027  11.229  21.294  0.00  0.00    -0.360 OA
HETATM   22  H   UNL     1      -3.533  10.995  22.102  0.00  0.00     0.217 HD
ENDBRANCH   2  21
BRANCH   6  23
HETATM   23  C   UNL     1      -0.123  16.027  21.514  0.00  0.00     0.256 C 
HETATM   24  O   UNL     1      -0.545  17.135  21.857  0.00  0.00    -0.267 OA
HETATM   25  N   UNL     1       1.124  15.902  20.888  0.00  0.00    -0.346 N 
HETATM   26  C   UNL     1       1.864  17.139  20.632  0.00  0.00     0.153 C 
BRANCH  25  27
HETATM   27  C   UNL     1       1.860  14.668  20.622  0.00  0.00     0.190 C 
BRANCH  27  28
HETATM   28  C   UNL     1       3.073  14.598  21.480  0.00  0.00     0.070 A 
HETATM   29  O   UNL     1       2.871  14.580  22.832  0.00  0.00    -0.325 OA
HETATM   30  C   UNL     1       4.098  14.565  23.416  0.00  0.00     0.142 A 
HETATM   31  C   UNL     1       5.087  14.572  22.461  0.00  0.00     0.027 A 
HETATM   32  C   UNL     1       4.427  14.567  21.210  0.00  0.00     0.036 A 
ENDBRANCH  27  28
ENDBRANCH  25  27
ENDBRANCH   6  23
BRANCH   4  33
HETATM   33  O   UNL     1      -2.397  15.634  19.825  0.00  0.00    -0.360 OA
HETATM   34  H   UNL     1      -1.947  15.436  18.984  0.00  0.00     0.217 HD
ENDBRANCH   4  33
TORSDOF 7
ENDMDL
MODEL 9
REMARK VINA RESULT:    -7.722      3.190      6.919
REMARK INTER + INTRA:         -12.599
REMARK INTER:                 -10.509
REMARK INTRA:                  -2.090
REMARK UNBOUND:                -2.168
REMARK  7 active torsions:
REMARK  status: ('A' for Active; 'I' for Inactive)
REMARK    1  A    between atoms: C_7  and  N_8 
REMARK    2  A    between atoms: C_14  and  C_15 
REMARK    3  A    between atoms: C_16  and  O_17 
REMARK    4  A    between atoms: C_19  and  O_20 
REMARK    5  A    between atoms: C_22  and  C_23 
REMARK       I    between atoms: C_23  and  N_25 
REMARK    6  A    between atoms: N_25  and  C_27 
REMARK    7  A    between atoms: C_27  and  C_28 
ROOT
HETATM    1  C   UNL     1      -2.413  10.846  26.358  0.00  0.00     0.046 A 
HETATM    2  C   UNL     1      -3.814  10.957  26.536  0.00  0.00     0.082 A 
HETATM    3  C   UNL     1      -4.649  11.455  25.538  0.00  0.00     0.075 A 
HETATM    4  C   UNL     1      -4.108  11.841  24.316  0.00  0.00     0.084 A 
HETATM    5  C   UNL     1      -1.889  11.265  25.122  0.00  0.00     0.038 A 
HETATM    6  C   UNL     1      -2.724  11.746  24.084  0.00  0.00     0.066 A 
ENDROOT
BRANCH   1   7
HETATM    7  C   UNL     1      -1.662  10.086  27.416  0.00  0.00     0.172 A 
HETATM    8  N   UNL     1      -0.621   9.196  27.295  0.00  0.00    -0.241 N 
HETATM    9  C   UNL     1      -0.248   8.892  28.596  0.00  0.00     0.349 A 
HETATM   10  O   UNL     1       0.557   8.067  29.010  0.00  0.00    -0.245 OA
HETATM   11  N   UNL     1      -1.066   9.650  29.408  0.00  0.00    -0.226 N 
HETATM   12  H   UNL     1      -1.096   9.595  30.419  0.00  0.00     0.194 HD
HETATM   13  N   UNL     1      -1.943  10.366  28.671  0.00  0.00    -0.151 NA
BRANCH   8  14
HETATM   14  C   UNL     1      -0.004   8.538  26.218  0.00  0.00     0.084 A 
HETATM   15  C   UNL     1      -0.372   7.218  25.903  0.00  0.00     0.143 A 
HETATM   16  F   UNL     1      -1.143   6.512  26.744  0.00  0.00    -0.204 F 
HETATM   17  C   UNL     1       0.051   6.598  24.730  0.00  0.00     0.044 A 
HETATM   18  C   UNL     1       0.897   7.279  23.859  0.00  0.00     0.003 A 
HETATM   19  C   UNL     1       1.279   8.586  24.154  0.00  0.00     0.002 A 
HETATM   20  C   UNL     1       0.793   9.224  25.302  0.00  0.00     0.033 A 
ENDBRANCH   8  14
ENDBRANCH   1   7
BRANCH   2  21
HETATM   21  O   UNL     1      -4.476  10.554  27.671  0.00  0.00    -0.360 OA
HETATM   22  H   UNL     1      -4.372   9.581  27.764  0.00  0.00     0.217 HD
ENDBRANCH   2  21
BRANCH   6  23
HETATM   23  C   UNL     1      -2.237  11.756  22.667  0.00  0.00     0.256 C 
HETATM   24  O   UNL     1      -2.633  10.823  21.964  0.00  0.00    -0.267 OA
HETATM   25  N   UNL     1      -1.309  12.680  22.169  0.00  0.00    -0.346 N 
HETATM   26  C   UNL     1      -0.816  12.456  20.809  0.00  0.00     0.153 C 
BRANCH  25  27
HETATM   27  C   UNL     1      -0.910  13.947  22.778  0.00  0.00     0.190 C 
BRANCH  27  28
HETATM   28  C   UNL     1       0.460  13.836  23.346  0.00  0.00     0.070 A 
HETATM   29  O   UNL     1       1.273  14.927  23.209  0.00  0.00    -0.325 OA
HETATM   30  C   UNL     1       2.477  14.594  23.747  0.00  0.00     0.142 A 
HETATM   31  C   UNL     1       2.450  13.307  24.228  0.00  0.00     0.027 A 
HETATM   32  C   UNL     1       1.141  12.825  23.993  0.00  0.00     0.036 A 
ENDBRANCH  27  28
ENDBRANCH  25  27
ENDBRANCH   6  23
BRANCH   4  33
HETATM   33  O   UNL     1      -4.966  12.282  23.344  0.00  0.00    -0.360 OA
HETATM   34  H   UNL     1      -4.506  12.952  22.806  0.00  0.00     0.217 HD
ENDBRANCH   4  33
TORSDOF 7
ENDMDL
