MODEL 1
REMARK VINA RESULT:    -8.150      0.000      0.000
REMARK INTER + INTRA:         -12.714
REMARK INTER:                 -11.810
REMARK INTRA:                  -0.903
REMARK UNBOUND:                -1.466
REMARK  7 active torsions:
REMARK  status: ('A' for Active; 'I' for Inactive)
REMARK    1  A    between atoms: N_6  and  C_7 
REMARK    2  A    between atoms: C_12  and  N_13 
REMARK       I    between atoms: N_13  and  C_15 
REMARK    3  A    between atoms: C_15  and  C_17 
REMARK    4  A    between atoms: C_18  and  O_20 
REMARK    5  A    between atoms: C_24  and  C_28 
REMARK    6  A    between atoms: C_28  and  C_29 
REMARK    7  A    between atoms: C_33  and  O_35 
ROOT
HETATM    1  C   UNL     1       8.842  10.885  23.319  0.00  0.00     0.066 C 
HETATM    2  C   UNL     1      10.187  10.514  23.122  0.00  0.00     0.083 C 
HETATM    3  C   UNL     1      11.237  11.175  23.767  0.00  0.00     0.069 C 
HETATM    4  C   UNL     1       8.548  11.883  24.271  0.00  0.00     0.035 C 
HETATM    5  C   UNL     1       9.590  12.665  24.817  0.00  0.00     0.020 A 
HETATM    6  C   UNL     1      10.901  12.273  24.573  0.00  0.00     0.065 A 
HETATM    7  C   UNL     1       9.705  13.872  25.583  0.00  0.00     0.071 A 
HETATM    8  N   UNL     1      10.993  14.130  25.874  0.00  0.00    -0.178 NA
HETATM    9  N   UNL     1      11.679  13.141  25.280  0.00  0.00    -0.277 N 
HETATM   10  H   UNL     1      12.687  13.126  25.377  0.00  0.00     0.189 HD
ENDROOT
BRANCH   1  11
HETATM   11  C   UNL     1       7.782  10.224  22.473  0.00  0.00     0.260 C 
HETATM   12  N   UNL     1       7.273  10.857  21.295  0.00  0.00    -0.318 N 
HETATM   13  C   UNL     1       7.777  12.161  20.865  0.00  0.00     0.159 C 
HETATM   14  O   UNL     1       7.504   9.079  22.830  0.00  0.00    -0.267 OA
BRANCH  12  15
HETATM   15  C   UNL     1       6.292  10.205  20.437  0.00  0.00     0.037 A 
HETATM   16  C   UNL     1       6.089  10.601  19.103  0.00  0.00     0.032 A 
HETATM   17  C   UNL     1       5.223   9.914  18.231  0.00  0.00     0.031 A 
HETATM   18  C   UNL     1       4.506   8.793  18.634  0.00  0.00     0.030 A 
HETATM   19  C   UNL     1       4.635   8.456  19.987  0.00  0.00     0.031 A 
HETATM   20  C   UNL     1       5.502   9.137  20.866  0.00  0.00     0.032 A 
BRANCH  18  21
HETATM   21  N   UNL     1       3.700   8.076  17.781  0.00  0.00    -0.377 N 
HETATM   22  C   UNL     1       2.517   7.308  18.198  0.00  0.00     0.149 C 
HETATM   23  C   UNL     1       2.520   5.967  17.436  0.00  0.00     0.187 C 
HETATM   24  O   UNL     1       2.581   6.151  16.010  0.00  0.00    -0.388 OA
HETATM   25  C   UNL     1       3.746   6.914  15.645  0.00  0.00     0.187 C 
HETATM   26  C   UNL     1       3.738   8.289  16.324  0.00  0.00     0.149 C 
ENDBRANCH  18  21
ENDBRANCH  12  15
ENDBRANCH   1  11
BRANCH   2  27
HETATM   27  O   UNL     1      10.574   9.493  22.288  0.00  0.00    -0.360 OA
HETATM   28  H   UNL     1       9.910   9.428  21.565  0.00  0.00     0.217 HD
ENDBRANCH   2  27
BRANCH   7  29
HETATM   29  C   UNL     1       8.644  14.827  26.079  0.00  0.00     0.100 C 
BRANCH  29  30
HETATM   30  C   UNL     1       7.561  15.082  25.032  0.00  0.00    -0.050 A 
HETATM   31  C   UNL     1       7.843  15.323  23.677  0.00  0.00     0.007 A 
HETATM   32  C   UNL     1       6.824  15.593  22.762  0.00  0.00     0.003 A 
HETATM   33  C   UNL     1       5.510  15.703  23.196  0.00  0.00     0.037 A 
HETATM   34  C   UNL     1       5.194  15.544  24.543  0.00  0.00     0.068 A 
HETATM   35  C   UNL     1       6.209  15.215  25.454  0.00  0.00     0.044 A 
BRANCH  34  36
HETATM   36  O   UNL     1       3.881  15.808  24.819  0.00  0.00    -0.356 OA
HETATM   37  C   UNL     1       2.984  14.716  24.930  0.00  0.00     0.210 C 
ENDBRANCH  34  36
ENDBRANCH  29  30
ENDBRANCH   7  29
TORSDOF 7
ENDMDL
MODEL 2
REMARK VINA RESULT:    -7.865      2.624      3.672
REMARK INTER + INTRA:         -12.319
REMARK INTER:                 -11.322
REMARK INTRA:                  -0.997
REMARK UNBOUND:                -1.466
REMARK  7 active torsions:
REMARK  status: ('A' for Active; 'I' for Inactive)
REMARK    1  A    between atoms: N_6  and  C_7 
REMARK    2  A    between atoms: C_12  and  N_13 
REMARK       I    between atoms: N_13  and  C_15 
REMARK    3  A    between atoms: C_15  and  C_17 
REMARK    4  A    between atoms: C_18  and  O_20 
REMARK    5  A    between atoms: C_24  and  C_28 
REMARK    6  A    between atoms: C_28  and  C_29 
REMARK    7  A    between atoms: C_33  and  O_35 
ROOT
HETATM    1  C   UNL     1       7.252  12.197  20.848  0.00  0.00     0.066 C 
HETATM    2  C   UNL     1       8.630  12.487  20.901  0.00  0.00     0.083 C 
HETATM    3  C   UNL     1       9.137  13.524  21.691  0.00  0.00     0.069 C 
HETATM    4  C   UNL     1       6.378  12.910  21.695  0.00  0.00     0.035 C 
HETATM    5  C   UNL     1       6.840  14.054  22.381  0.00  0.00     0.020 A 
HETATM    6  C   UNL     1       8.206  14.312  22.383  0.00  0.00     0.065 A 
HETATM    7  C   UNL     1       6.260  15.148  23.107  0.00  0.00     0.071 A 
HETATM    8  N   UNL     1       7.219  15.950  23.605  0.00  0.00    -0.178 NA
HETATM    9  N   UNL     1       8.369  15.407  23.178  0.00  0.00    -0.277 N 
HETATM   10  H   UNL     1       9.240  15.848  23.448  0.00  0.00     0.189 HD
ENDROOT
BRANCH   1  11
HETATM   11  C   UNL     1       6.771  11.165  19.858  0.00  0.00     0.260 C 
HETATM   12  N   UNL     1       5.912  10.095  20.262  0.00  0.00    -0.318 N 
HETATM   13  C   UNL     1       5.459   9.977  21.647  0.00  0.00     0.159 C 
HETATM   14  O   UNL     1       7.092  11.406  18.694  0.00  0.00    -0.267 OA
BRANCH  12  15
HETATM   15  C   UNL     1       5.394   9.125  19.305  0.00  0.00     0.037 A 
HETATM   16  C   UNL     1       5.713   7.758  19.384  0.00  0.00     0.032 A 
HETATM   17  C   UNL     1       5.138   6.794  18.533  0.00  0.00     0.031 A 
HETATM   18  C   UNL     1       4.212   7.133  17.553  0.00  0.00     0.030 A 
HETATM   19  C   UNL     1       3.966   8.504  17.412  0.00  0.00     0.031 A 
HETATM   20  C   UNL     1       4.536   9.476  18.261  0.00  0.00     0.032 A 
BRANCH  18  21
HETATM   21  N   UNL     1       3.598   6.199  16.753  0.00  0.00    -0.377 N 
HETATM   22  C   UNL     1       3.250   4.834  17.179  0.00  0.00     0.149 C 
HETATM   23  C   UNL     1       3.599   3.867  16.029  0.00  0.00     0.187 C 
HETATM   24  O   UNL     1       2.959   4.237  14.793  0.00  0.00    -0.388 OA
HETATM   25  C   UNL     1       3.318   5.580  14.418  0.00  0.00     0.187 C 
HETATM   26  C   UNL     1       2.914   6.582  15.506  0.00  0.00     0.149 C 
ENDBRANCH  18  21
ENDBRANCH  12  15
ENDBRANCH   1  11
BRANCH   2  27
HETATM   27  O   UNL     1       9.576  11.790  20.187  0.00  0.00    -0.360 OA
HETATM   28  H   UNL     1      10.003  11.151  20.800  0.00  0.00     0.217 HD
ENDBRANCH   2  27
BRANCH   7  29
HETATM   29  C   UNL     1       4.814  15.493  23.375  0.00  0.00     0.100 C 
BRANCH  29  30
HETATM   30  C   UNL     1       3.940  14.248  23.518  0.00  0.00    -0.050 A 
HETATM   31  C   UNL     1       4.220  13.212  24.424  0.00  0.00     0.007 A 
HETATM   32  C   UNL     1       3.416  12.072  24.492  0.00  0.00     0.003 A 
HETATM   33  C   UNL     1       2.361  11.910  23.605  0.00  0.00     0.037 A 
HETATM   34  C   UNL     1       2.091  12.879  22.642  0.00  0.00     0.068 A 
HETATM   35  C   UNL     1       2.862  14.051  22.610  0.00  0.00     0.044 A 
BRANCH  34  36
HETATM   36  O   UNL     1       1.104  12.508  21.772  0.00  0.00    -0.356 OA
HETATM   37  C   UNL     1       0.319  13.525  21.173  0.00  0.00     0.210 C 
ENDBRANCH  34  36
ENDBRANCH  29  30
ENDBRANCH   7  29
TORSDOF 7
ENDMDL
MODEL 3
REMARK VINA RESULT:    -7.864      2.883      5.127
REMARK INTER + INTRA:         -12.318
REMARK INTER:                 -11.471
REMARK INTRA:                  -0.847
REMARK UNBOUND:                -1.466
REMARK  7 active torsions:
REMARK  status: ('A' for Active; 'I' for Inactive)
REMARK    1  A    between atoms: N_6  and  C_7 
REMARK    2  A    between atoms: C_12  and  N_13 
REMARK       I    between atoms: N_13  and  C_15 
REMARK    3  A    between atoms: C_15  and  C_17 
REMARK    4  A    between atoms: C_18  and  O_20 
REMARK    5  A    between atoms: C_24  and  C_28 
REMARK    6  A    between atoms: C_28  and  C_29 
REMARK    7  A    between atoms: C_33  and  O_35 
ROOT
HETATM    1  C   UNL     1       5.892  11.516  20.469  0.00  0.00     0.066 C 
HETATM    2  C   UNL     1       4.831  12.214  21.078  0.00  0.00     0.083 C 
HETATM    3  C   UNL     1       5.028  13.028  22.199  0.00  0.00     0.069 C 
HETATM    4  C   UNL     1       7.202  11.727  20.947  0.00  0.00     0.035 C 
HETATM    5  C   UNL     1       7.407  12.416  22.162  0.00  0.00     0.020 A 
HETATM    6  C   UNL     1       6.322  13.068  22.737  0.00  0.00     0.065 A 
HETATM    7  C   UNL     1       8.489  12.626  23.080  0.00  0.00     0.071 A 
HETATM    8  N   UNL     1       8.112  13.441  24.082  0.00  0.00    -0.178 NA
HETATM    9  N   UNL     1       6.821  13.709  23.832  0.00  0.00    -0.277 N 
HETATM   10  H   UNL     1       6.325  14.324  24.465  0.00  0.00     0.189 HD
ENDROOT
BRANCH   1  11
HETATM   11  C   UNL     1       5.572  10.543  19.361  0.00  0.00     0.260 C 
HETATM   12  N   UNL     1       5.112   9.219  19.647  0.00  0.00    -0.318 N 
HETATM   13  C   UNL     1       4.925   8.771  21.026  0.00  0.00     0.159 C 
HETATM   14  O   UNL     1       5.634  11.036  18.234  0.00  0.00    -0.267 OA
BRANCH  12  15
HETATM   15  C   UNL     1       4.744   8.290  18.587  0.00  0.00     0.037 A 
HETATM   16  C   UNL     1       5.367   7.037  18.445  0.00  0.00     0.032 A 
HETATM   17  C   UNL     1       4.952   6.085  17.494  0.00  0.00     0.031 A 
HETATM   18  C   UNL     1       3.892   6.324  16.625  0.00  0.00     0.030 A 
HETATM   19  C   UNL     1       3.335   7.607  16.701  0.00  0.00     0.031 A 
HETATM   20  C   UNL     1       3.743   8.564  17.653  0.00  0.00     0.032 A 
BRANCH  18  21
HETATM   21  N   UNL     1       3.436   5.386  15.730  0.00  0.00    -0.377 N 
HETATM   22  C   UNL     1       3.296   3.951  16.023  0.00  0.00     0.149 C 
HETATM   23  C   UNL     1       3.800   3.158  14.800  0.00  0.00     0.187 C 
HETATM   24  O   UNL     1       3.125   3.539  13.587  0.00  0.00    -0.388 OA
HETATM   25  C   UNL     1       3.278   4.950  13.343  0.00  0.00     0.187 C 
HETATM   26  C   UNL     1       2.715   5.775  14.507  0.00  0.00     0.149 C 
ENDBRANCH  18  21
ENDBRANCH  12  15
ENDBRANCH   1  11
BRANCH   2  27
HETATM   27  O   UNL     1       3.532  12.152  20.633  0.00  0.00    -0.360 OA
HETATM   28  H   UNL     1       3.389  11.256  20.251  0.00  0.00     0.217 HD
ENDBRANCH   2  27
BRANCH   7  29
HETATM   29  C   UNL     1       9.904  12.097  23.069  0.00  0.00     0.100 C 
BRANCH  29  30
HETATM   30  C   UNL     1      10.924  13.162  23.470  0.00  0.00    -0.050 A 
HETATM   31  C   UNL     1      11.287  14.232  22.637  0.00  0.00     0.007 A 
HETATM   32  C   UNL     1      12.254  15.160  23.028  0.00  0.00     0.003 A 
HETATM   33  C   UNL     1      12.932  14.994  24.228  0.00  0.00     0.037 A 
HETATM   34  C   UNL     1      12.656  13.906  25.052  0.00  0.00     0.068 A 
HETATM   35  C   UNL     1      11.644  13.005  24.688  0.00  0.00     0.044 A 
BRANCH  34  36
HETATM   36  O   UNL     1      13.496  13.823  26.127  0.00  0.00    -0.356 OA
HETATM   37  C   UNL     1      13.178  12.907  27.161  0.00  0.00     0.210 C 
ENDBRANCH  34  36
ENDBRANCH  29  30
ENDBRANCH   7  29
TORSDOF 7
ENDMDL
MODEL 4
REMARK VINA RESULT:    -7.842      2.387      4.774
REMARK INTER + INTRA:         -12.289
REMARK INTER:                 -10.679
REMARK INTRA:                  -1.610
REMARK UNBOUND:                -1.466
REMARK  7 active torsions:
REMARK  status: ('A' for Active; 'I' for Inactive)
REMARK    1  A    between atoms: N_6  and  C_7 
REMARK    2  A    between atoms: C_12  and  N_13 
REMARK       I    between atoms: N_13  and  C_15 
REMARK    3  A    between atoms: C_15  and  C_17 
REMARK    4  A    between atoms: C_18  and  O_20 
REMARK    5  A    between atoms: C_24  and  C_28 
REMARK    6  A    between atoms: C_28  and  C_29 
REMARK    7  A    between atoms: C_33  and  O_35 
ROOT
HETATM    1  C   UNL     1       4.875  12.581  21.888  0.00  0.00     0.066 C 
HETATM    2  C   UNL     1       3.987  12.637  22.980  0.00  0.00     0.083 C 
HETATM    3  C   UNL     1       4.206  13.489  24.068  0.00  0.00     0.069 C 
HETATM    4  C   UNL     1       5.957  13.485  21.850  0.00  0.00     0.035 C 
HETATM    5  C   UNL     1       6.284  14.242  22.996  0.00  0.00     0.020 A 
HETATM    6  C   UNL     1       5.388  14.244  24.058  0.00  0.00     0.065 A 
HETATM    7  C   UNL     1       7.384  15.048  23.443  0.00  0.00     0.071 A 
HETATM    8  N   UNL     1       7.120  15.587  24.647  0.00  0.00    -0.178 NA
HETATM    9  N   UNL     1       5.908  15.110  24.973  0.00  0.00    -0.277 N 
HETATM   10  H   UNL     1       5.497  15.398  25.852  0.00  0.00     0.189 HD
ENDROOT
BRANCH   1  11
HETATM   11  C   UNL     1       4.650  11.530  20.829  0.00  0.00     0.260 C 
HETATM   12  N   UNL     1       5.361  10.289  20.855  0.00  0.00    -0.318 N 
HETATM   13  C   UNL     1       6.321   9.994  21.918  0.00  0.00     0.159 C 
HETATM   14  O   UNL     1       3.739  11.801  20.046  0.00  0.00    -0.267 OA
BRANCH  12  15
HETATM   15  C   UNL     1       5.110   9.242  19.873  0.00  0.00     0.037 A 
HETATM   16  C   UNL     1       4.512   8.019  20.224  0.00  0.00     0.032 A 
HETATM   17  C   UNL     1       4.167   7.040  19.272  0.00  0.00     0.031 A 
HETATM   18  C   UNL     1       4.398   7.220  17.913  0.00  0.00     0.030 A 
HETATM   19  C   UNL     1       5.080   8.395  17.573  0.00  0.00     0.031 A 
HETATM   20  C   UNL     1       5.426   9.381  18.520  0.00  0.00     0.032 A 
BRANCH  18  21
HETATM   21  N   UNL     1       4.016   6.302  16.963  0.00  0.00    -0.377 N 
HETATM   22  C   UNL     1       3.746   6.623  15.553  0.00  0.00     0.149 C 
HETATM   23  C   UNL     1       2.487   5.848  15.115  0.00  0.00     0.187 C 
HETATM   24  O   UNL     1       2.611   4.432  15.342  0.00  0.00    -0.388 OA
HETATM   25  C   UNL     1       2.883   4.163  16.730  0.00  0.00     0.187 C 
HETATM   26  C   UNL     1       4.175   4.855  17.182  0.00  0.00     0.149 C 
ENDBRANCH  18  21
ENDBRANCH  12  15
ENDBRANCH   1  11
BRANCH   2  27
HETATM   27  O   UNL     1       2.853  11.866  23.071  0.00  0.00    -0.360 OA
HETATM   28  H   UNL     1       2.759  11.580  24.007  0.00  0.00     0.217 HD
ENDBRANCH   2  27
BRANCH   7  29
HETATM   29  C   UNL     1       8.708  15.356  22.784  0.00  0.00     0.100 C 
BRANCH  29  30
HETATM   30  C   UNL     1       9.387  14.101  22.236  0.00  0.00    -0.050 A 
HETATM   31  C   UNL     1       9.392  13.763  20.873  0.00  0.00     0.007 A 
HETATM   32  C   UNL     1       9.989  12.585  20.421  0.00  0.00     0.003 A 
HETATM   33  C   UNL     1      10.526  11.683  21.330  0.00  0.00     0.037 A 
HETATM   34  C   UNL     1      10.477  11.943  22.697  0.00  0.00     0.068 A 
HETATM   35  C   UNL     1       9.930  13.154  23.149  0.00  0.00     0.044 A 
BRANCH  34  36
HETATM   36  O   UNL     1      10.933  10.902  23.456  0.00  0.00    -0.356 OA
HETATM   37  C   UNL     1      10.927   9.603  22.888  0.00  0.00     0.210 C 
ENDBRANCH  34  36
ENDBRANCH  29  30
ENDBRANCH   7  29
TORSDOF 7
ENDMDL
MODEL 5
REMARK VINA RESULT:    -7.834      3.161      4.742
REMARK INTER + INTRA:         -12.277
REMARK INTER:                 -11.371
REMARK INTRA:                  -0.906
REMARK UNBOUND:                -1.466
REMARK  7 active torsions:
REMARK  status: ('A' for Active; 'I' for Inactive)
REMARK    1  A    between atoms: N_6  and  C_7 
REMARK    2  A    between atoms: C_12  and  N_13 
REMARK       I    between atoms: N_13  and  C_15 
REMARK    3  A    between atoms: C_15  and  C_17 
REMARK    4  A    between atoms: C_18  and  O_20 
REMARK    5  A    between atoms: C_24  and  C_28 
REMARK    6  A    between atoms: C_28  and  C_29 
REMARK    7  A    between atoms: C_33  and  O_35 
ROOT
HETATM    1  C   UNL     1       5.413  12.458  21.563  0.00  0.00     0.066 C 
HETATM    2  C   UNL     1       6.667  13.097  21.475  0.00  0.00     0.083 C 
HETATM    3  C   UNL     1       7.002  14.183  22.291  0.00  0.00     0.069 C 
HETATM    4  C   UNL     1       4.517  12.867  22.572  0.00  0.00     0.035 C 
HETATM    5  C   UNL     1       4.766  14.050  23.300  0.00  0.00     0.020 A 
HETATM    6  C   UNL     1       6.009  14.657  23.160  0.00  0.00     0.065 A 
HETATM    7  C   UNL     1       4.038  14.909  24.189  0.00  0.00     0.071 A 
HETATM    8  N   UNL     1       4.823  15.904  24.640  0.00  0.00    -0.178 NA
HETATM    9  N   UNL     1       6.002  15.708  24.028  0.00  0.00    -0.277 N 
HETATM   10  H   UNL     1       6.762  16.346  24.230  0.00  0.00     0.189 HD
ENDROOT
BRANCH   1  11
HETATM   11  C   UNL     1       5.074  11.395  20.547  0.00  0.00     0.260 C 
HETATM   12  N   UNL     1       5.603  10.071  20.656  0.00  0.00    -0.318 N 
HETATM   13  C   UNL     1       6.480   9.701  21.767  0.00  0.00     0.159 C 
HETATM   14  O   UNL     1       4.234  11.750  19.720  0.00  0.00    -0.267 OA
BRANCH  12  15
HETATM   15  C   UNL     1       5.237   9.020  19.716  0.00  0.00     0.037 A 
HETATM   16  C   UNL     1       4.450   7.919  20.098  0.00  0.00     0.032 A 
HETATM   17  C   UNL     1       4.001   6.951  19.179  0.00  0.00     0.031 A 
HETATM   18  C   UNL     1       4.308   7.020  17.825  0.00  0.00     0.030 A 
HETATM   19  C   UNL     1       5.170   8.062  17.460  0.00  0.00     0.031 A 
HETATM   20  C   UNL     1       5.622   9.037  18.374  0.00  0.00     0.032 A 
BRANCH  18  21
HETATM   21  N   UNL     1       3.830   6.118  16.904  0.00  0.00    -0.377 N 
HETATM   22  C   UNL     1       3.632   6.409  15.475  0.00  0.00     0.149 C 
HETATM   23  C   UNL     1       2.293   5.782  15.038  0.00  0.00     0.187 C 
HETATM   24  O   UNL     1       2.231   4.372  15.326  0.00  0.00    -0.388 OA
HETATM   25  C   UNL     1       2.439   4.131  16.730  0.00  0.00     0.187 C 
HETATM   26  C   UNL     1       3.799   4.673  17.185  0.00  0.00     0.149 C 
ENDBRANCH  18  21
ENDBRANCH  12  15
ENDBRANCH   1  11
BRANCH   2  27
HETATM   27  O   UNL     1       7.647  12.715  20.591  0.00  0.00    -0.360 OA
HETATM   28  H   UNL     1       7.479  11.779  20.342  0.00  0.00     0.217 HD
ENDBRANCH   2  27
BRANCH   7  29
HETATM   29  C   UNL     1       2.604  14.846  24.661  0.00  0.00     0.100 C 
BRANCH  29  30
HETATM   30  C   UNL     1       1.671  14.264  23.599  0.00  0.00    -0.050 A 
HETATM   31  C   UNL     1       1.661  14.697  22.264  0.00  0.00     0.007 A 
HETATM   32  C   UNL     1       0.763  14.166  21.336  0.00  0.00     0.003 A 
HETATM   33  C   UNL     1      -0.195  13.246  21.743  0.00  0.00     0.037 A 
HETATM   34  C   UNL     1      -0.268  12.843  23.074  0.00  0.00     0.068 A 
HETATM   35  C   UNL     1       0.671  13.332  23.995  0.00  0.00     0.044 A 
BRANCH  34  36
HETATM   36  O   UNL     1      -1.341  12.035  23.329  0.00  0.00    -0.356 OA
HETATM   37  C   UNL     1      -2.642  12.554  23.110  0.00  0.00     0.210 C 
ENDBRANCH  34  36
ENDBRANCH  29  30
ENDBRANCH   7  29
TORSDOF 7
ENDMDL
MODEL 6
REMARK VINA RESULT:    -7.822      2.714      4.972
REMARK INTER + INTRA:         -12.261
REMARK INTER:                 -11.373
REMARK INTRA:                  -0.888
REMARK UNBOUND:                -1.466
REMARK  7 active torsions:
REMARK  status: ('A' for Active; 'I' for Inactive)
REMARK    1  A    between atoms: N_6  and  C_7 
REMARK    2  A    between atoms: C_12  and  N_13 
REMARK       I    between atoms: N_13  and  C_15 
REMARK    3  A    between atoms: C_15  and  C_17 
REMARK    4  A    between atoms: C_18  and  O_20 
REMARK    5  A    between atoms: C_24  and  C_28 
REMARK    6  A    between atoms: C_28  and  C_29 
REMARK    7  A    between atoms: C_33  and  O_35 
ROOT
HETATM    1  C   UNL     1       5.277  12.222  21.123  0.00  0.00     0.066 C 
HETATM    2  C   UNL     1       4.271  12.607  22.032  0.00  0.00     0.083 C 
HETATM    3  C   UNL     1       4.525  13.496  23.082  0.00  0.00     0.069 C 
HETATM    4  C   UNL     1       6.545  12.832  21.221  0.00  0.00     0.035 C 
HETATM    5  C   UNL     1       6.868  13.608  22.354  0.00  0.00     0.020 A 
HETATM    6  C   UNL     1       5.846  13.941  23.235  0.00  0.00     0.065 A 
HETATM    7  C   UNL     1       8.052  14.171  22.938  0.00  0.00     0.071 A 
HETATM    8  N   UNL     1       7.748  14.886  24.036  0.00  0.00    -0.178 NA
HETATM    9  N   UNL     1       6.419  14.752  24.169  0.00  0.00    -0.277 N 
HETATM   10  H   UNL     1       5.961  15.224  24.940  0.00  0.00     0.189 HD
ENDROOT
BRANCH   1  11
HETATM   11  C   UNL     1       4.961  11.146  20.114  0.00  0.00     0.260 C 
HETATM   12  N   UNL     1       5.474   9.819  20.261  0.00  0.00    -0.318 N 
HETATM   13  C   UNL     1       6.311   9.459  21.405  0.00  0.00     0.159 C 
HETATM   14  O   UNL     1       4.151  11.494  19.254  0.00  0.00    -0.267 OA
BRANCH  12  15
HETATM   15  C   UNL     1       5.129   8.756  19.325  0.00  0.00     0.037 A 
HETATM   16  C   UNL     1       4.273   7.699  19.682  0.00  0.00     0.032 A 
HETATM   17  C   UNL     1       3.847   6.723  18.760  0.00  0.00     0.031 A 
HETATM   18  C   UNL     1       4.248   6.741  17.429  0.00  0.00     0.030 A 
HETATM   19  C   UNL     1       5.175   7.736  17.097  0.00  0.00     0.031 A 
HETATM   20  C   UNL     1       5.605   8.718  18.014  0.00  0.00     0.032 A 
BRANCH  18  21
HETATM   21  N   UNL     1       3.797   5.831  16.502  0.00  0.00    -0.377 N 
HETATM   22  C   UNL     1       3.528   6.143  15.089  0.00  0.00     0.149 C 
HETATM   23  C   UNL     1       2.217   5.440  14.682  0.00  0.00     0.187 C 
HETATM   24  O   UNL     1       2.257   4.023  14.934  0.00  0.00    -0.388 OA
HETATM   25  C   UNL     1       2.531   3.762  16.323  0.00  0.00     0.187 C 
HETATM   26  C   UNL     1       3.870   4.381  16.745  0.00  0.00     0.149 C 
ENDBRANCH  18  21
ENDBRANCH  12  15
ENDBRANCH   1  11
BRANCH   2  27
HETATM   27  O   UNL     1       2.978  12.145  21.968  0.00  0.00    -0.360 OA
HETATM   28  H   UNL     1       2.993  11.185  22.182  0.00  0.00     0.217 HD
ENDBRANCH   2  27
BRANCH   7  29
HETATM   29  C   UNL     1       9.498  14.080  22.510  0.00  0.00     0.100 C 
BRANCH  29  30
HETATM   30  C   UNL     1      10.461  14.387  23.656  0.00  0.00    -0.050 A 
HETATM   31  C   UNL     1      10.881  15.687  23.981  0.00  0.00     0.007 A 
HETATM   32  C   UNL     1      11.794  15.917  25.011  0.00  0.00     0.003 A 
HETATM   33  C   UNL     1      12.366  14.847  25.687  0.00  0.00     0.037 A 
HETATM   34  C   UNL     1      12.034  13.538  25.348  0.00  0.00     0.068 A 
HETATM   35  C   UNL     1      11.072  13.307  24.353  0.00  0.00     0.044 A 
BRANCH  34  36
HETATM   36  O   UNL     1      12.776  12.608  26.020  0.00  0.00    -0.356 OA
HETATM   37  C   UNL     1      13.275  12.944  27.304  0.00  0.00     0.210 C 
ENDBRANCH  34  36
ENDBRANCH  29  30
ENDBRANCH   7  29
TORSDOF 7
ENDMDL
MODEL 7
REMARK VINA RESULT:    -7.812      1.890      3.056
REMARK INTER + INTRA:         -12.247
REMARK INTER:                 -10.994
REMARK INTRA:                  -1.253
REMARK UNBOUND:                -1.466
REMARK  7 active torsions:
REMARK  status: ('A' for Active; 'I' for Inactive)
REMARK    1  A    between atoms: N_6  and  C_7 
REMARK    2  A    between atoms: C_12  and  N_13 
REMARK       I    between atoms: N_13  and  C_15 
REMARK    3  A    between atoms: C_15  and  C_17 
REMARK    4  A    between atoms: C_18  and  O_20 
REMARK    5  A    between atoms: C_24  and  C_28 
REMARK    6  A    between atoms: C_28  and  C_29 
REMARK    7  A    between atoms: C_33  and  O_35 
ROOT
HETATM    1  C   UNL     1       7.361  11.552  21.704  0.00  0.00     0.066 C 
HETATM    2  C   UNL     1       8.596  11.222  22.295  0.00  0.00     0.083 C 
HETATM    3  C   UNL     1       9.206  12.049  23.245  0.00  0.00     0.069 C 
HETATM    4  C   UNL     1       6.678  12.698  22.161  0.00  0.00     0.035 C 
HETATM    5  C   UNL     1       7.337  13.623  23.000  0.00  0.00     0.020 A 
HETATM    6  C   UNL     1       8.566  13.261  23.539  0.00  0.00     0.065 A 
HETATM    7  C   UNL     1       7.111  14.960  23.469  0.00  0.00     0.071 A 
HETATM    8  N   UNL     1       8.083  15.337  24.320  0.00  0.00    -0.178 NA
HETATM    9  N   UNL     1       8.920  14.288  24.362  0.00  0.00    -0.277 N 
HETATM   10  H   UNL     1       9.736  14.346  24.959  0.00  0.00     0.189 HD
ENDROOT
BRANCH   1  11
HETATM   11  C   UNL     1       6.846  10.686  20.580  0.00  0.00     0.260 C 
HETATM   12  N   UNL     1       6.039   9.535  20.843  0.00  0.00    -0.318 N 
HETATM   13  C   UNL     1       5.675   9.169  22.211  0.00  0.00     0.159 C 
HETATM   14  O   UNL     1       7.090  11.132  19.459  0.00  0.00    -0.267 OA
BRANCH  12  15
HETATM   15  C   UNL     1       5.488   8.724  19.765  0.00  0.00     0.037 A 
HETATM   16  C   UNL     1       5.880   7.389  19.562  0.00  0.00     0.032 A 
HETATM   17  C   UNL     1       5.281   6.560  18.594  0.00  0.00     0.031 A 
HETATM   18  C   UNL     1       4.257   7.011  17.768  0.00  0.00     0.030 A 
HETATM   19  C   UNL     1       3.932   8.366  17.905  0.00  0.00     0.031 A 
HETATM   20  C   UNL     1       4.526   9.202  18.874  0.00  0.00     0.032 A 
BRANCH  18  21
HETATM   21  N   UNL     1       3.621   6.200  16.857  0.00  0.00    -0.377 N 
HETATM   22  C   UNL     1       3.332   6.576  15.464  0.00  0.00     0.149 C 
HETATM   23  C   UNL     1       1.908   6.094  15.122  0.00  0.00     0.187 C 
HETATM   24  O   UNL     1       1.739   4.683  15.357  0.00  0.00    -0.388 OA
HETATM   25  C   UNL     1       2.040   4.358  16.727  0.00  0.00     0.187 C 
HETATM   26  C   UNL     1       3.479   4.752  17.082  0.00  0.00     0.149 C 
ENDBRANCH  18  21
ENDBRANCH  12  15
ENDBRANCH   1  11
BRANCH   2  27
HETATM   27  O   UNL     1       9.298  10.080  21.989  0.00  0.00    -0.360 OA
HETATM   28  H   UNL     1       8.891   9.684  21.186  0.00  0.00     0.217 HD
ENDBRANCH   2  27
BRANCH   7  29
HETATM   29  C   UNL     1       5.998  15.935  23.162  0.00  0.00     0.100 C 
BRANCH  29  30
HETATM   30  C   UNL     1       4.660  15.490  23.751  0.00  0.00    -0.050 A 
HETATM   31  C   UNL     1       4.248  15.813  25.054  0.00  0.00     0.007 A 
HETATM   32  C   UNL     1       3.035  15.350  25.566  0.00  0.00     0.003 A 
HETATM   33  C   UNL     1       2.244  14.491  24.814  0.00  0.00     0.037 A 
HETATM   34  C   UNL     1       2.649  14.087  23.544  0.00  0.00     0.068 A 
HETATM   35  C   UNL     1       3.839  14.598  23.005  0.00  0.00     0.044 A 
BRANCH  34  36
HETATM   36  O   UNL     1       1.822  13.148  22.994  0.00  0.00    -0.356 OA
HETATM   37  C   UNL     1       0.431  13.245  23.247  0.00  0.00     0.210 C 
ENDBRANCH  34  36
ENDBRANCH  29  30
ENDBRANCH   7  29
TORSDOF 7
ENDMDL
MODEL 8
REMARK VINA RESULT:    -7.769      4.642      6.465
REMARK INTER + INTRA:         -12.188
REMARK INTER:                 -10.722
REMARK INTRA:                  -1.466
REMARK UNBOUND:                -1.466
REMARK  7 active torsions:
REMARK  status: ('A' for Active; 'I' for Inactive)
REMARK    1  A    between atoms: N_6  and  C_7 
REMARK    2  A    between atoms: C_12  and  N_13 
REMARK       I    between atoms: N_13  and  C_15 
REMARK    3  A    between atoms: C_15  and  C_17 
REMARK    4  A    between atoms: C_18  and  O_20 
REMARK    5  A    between atoms: C_24  and  C_28 
REMARK    6  A    between atoms: C_28  and  C_29 
REMARK    7  A    between atoms: C_33  and  O_35 
ROOT
HETATM    1  C   UNL     1       6.929  10.464  21.935  0.00  0.00     0.066 C 
HETATM    2  C   UNL     1       6.611  10.991  20.667  0.00  0.00     0.083 C 
HETATM    3  C   UNL     1       7.494  11.822  19.970  0.00  0.00     0.069 C 
HETATM    4  C   UNL     1       8.215  10.703  22.462  0.00  0.00     0.035 C 
HETATM    5  C   UNL     1       9.060  11.657  21.854  0.00  0.00     0.020 A 
HETATM    6  C   UNL     1       8.690  12.167  20.616  0.00  0.00     0.065 A 
HETATM    7  C   UNL     1      10.275  12.346  22.185  0.00  0.00     0.071 A 
HETATM    8  N   UNL     1      10.667  13.134  21.169  0.00  0.00    -0.178 NA
HETATM    9  N   UNL     1       9.714  12.982  20.236  0.00  0.00    -0.277 N 
HETATM   10  H   UNL     1       9.809  13.485  19.362  0.00  0.00     0.189 HD
ENDROOT
BRANCH   1  11
HETATM   11  C   UNL     1       5.865   9.702  22.685  0.00  0.00     0.260 C 
HETATM   12  N   UNL     1       5.139  10.307  23.759  0.00  0.00    -0.318 N 
HETATM   13  C   UNL     1       5.397  11.691  24.154  0.00  0.00     0.159 C 
HETATM   14  O   UNL     1       5.621   8.592  22.211  0.00  0.00    -0.267 OA
BRANCH  12  15
HETATM   15  C   UNL     1       4.069   9.602  24.454  0.00  0.00     0.037 A 
HETATM   16  C   UNL     1       4.331   8.673  25.476  0.00  0.00     0.032 A 
HETATM   17  C   UNL     1       3.309   8.063  26.228  0.00  0.00     0.031 A 
HETATM   18  C   UNL     1       1.964   8.340  26.007  0.00  0.00     0.030 A 
HETATM   19  C   UNL     1       1.700   9.192  24.927  0.00  0.00     0.031 A 
HETATM   20  C   UNL     1       2.718   9.808  24.171  0.00  0.00     0.032 A 
BRANCH  18  21
HETATM   21  N   UNL     1       0.956   7.799  26.769  0.00  0.00    -0.377 N 
HETATM   22  C   UNL     1      -0.426   8.306  26.806  0.00  0.00     0.149 C 
HETATM   23  C   UNL     1      -0.905   8.290  28.272  0.00  0.00     0.187 C 
HETATM   24  O   UNL     1      -0.781   6.987  28.872  0.00  0.00    -0.388 OA
HETATM   25  C   UNL     1       0.582   6.526  28.806  0.00  0.00     0.187 C 
HETATM   26  C   UNL     1       1.069   6.453  27.354  0.00  0.00     0.149 C 
ENDBRANCH  18  21
ENDBRANCH  12  15
ENDBRANCH   1  11
BRANCH   2  27
HETATM   27  O   UNL     1       5.423  10.741  20.023  0.00  0.00    -0.360 OA
HETATM   28  H   UNL     1       4.787  11.446  20.282  0.00  0.00     0.217 HD
ENDBRANCH   2  27
BRANCH   7  29
HETATM   29  C   UNL     1      11.119  12.302  23.437  0.00  0.00     0.100 C 
BRANCH  29  30
HETATM   30  C   UNL     1      10.885  13.516  24.336  0.00  0.00    -0.050 A 
HETATM   31  C   UNL     1      11.926  14.241  24.936  0.00  0.00     0.007 A 
HETATM   32  C   UNL     1      11.664  15.319  25.784  0.00  0.00     0.003 A 
HETATM   33  C   UNL     1      10.354  15.647  26.108  0.00  0.00     0.037 A 
HETATM   34  C   UNL     1       9.292  14.909  25.593  0.00  0.00     0.068 A 
HETATM   35  C   UNL     1       9.552  13.862  24.695  0.00  0.00     0.044 A 
BRANCH  34  36
HETATM   36  O   UNL     1       8.082  15.282  26.109  0.00  0.00    -0.356 OA
HETATM   37  C   UNL     1       6.925  15.100  25.310  0.00  0.00     0.210 C 
ENDBRANCH  34  36
ENDBRANCH  29  30
ENDBRANCH   7  29
TORSDOF 7
ENDMDL
MODEL 9
REMARK VINA RESULT:    -7.763      5.704      7.860
REMARK INTER + INTRA:         -12.180
REMARK INTER:                 -10.868
REMARK INTRA:                  -1.312
REMARK UNBOUND:                -1.466
REMARK  7 active torsions:
REMARK  status: ('A' for Active; 'I' for Inactive)
REMARK    1  A    between atoms: N_6  and  C_7 
REMARK    2  A    between atoms: C_12  and  N_13 
REMARK       I    between atoms: N_13  and  C_15 
REMARK    3  A    between atoms: C_15  and  C_17 
REMARK    4  A    between atoms: C_18  and  O_20 
REMARK    5  A    between atoms: C_24  and  C_28 
REMARK    6  A    between atoms: C_28  and  C_29 
REMARK    7  A    between atoms: C_33  and  O_35 
ROOT
HETATM    1  C   UNL     1       5.401   8.817  22.830  0.00  0.00     0.066 C 
HETATM    2  C   UNL     1       5.009   8.209  21.621  0.00  0.00     0.083 C 
HETATM    3  C   UNL     1       5.405   8.714  20.378  0.00  0.00     0.069 C 
HETATM    4  C   UNL     1       6.299   9.903  22.781  0.00  0.00     0.035 C 
HETATM    5  C   UNL     1       6.589  10.522  21.545  0.00  0.00     0.020 A 
HETATM    6  C   UNL     1       6.158   9.897  20.381  0.00  0.00     0.065 A 
HETATM    7  C   UNL     1       7.216  11.733  21.100  0.00  0.00     0.071 A 
HETATM    8  N   UNL     1       7.258  11.781  19.756  0.00  0.00    -0.178 NA
HETATM    9  N   UNL     1       6.644  10.656  19.359  0.00  0.00    -0.277 N 
HETATM   10  H   UNL     1       6.567  10.474  18.365  0.00  0.00     0.189 HD
ENDROOT
BRANCH   1  11
HETATM   11  C   UNL     1       4.810   8.302  24.119  0.00  0.00     0.260 C 
HETATM   12  N   UNL     1       3.730   8.984  24.763  0.00  0.00    -0.318 N 
HETATM   13  C   UNL     1       3.155  10.196  24.183  0.00  0.00     0.159 C 
HETATM   14  O   UNL     1       5.263   7.213  24.473  0.00  0.00    -0.267 OA
BRANCH  12  15
HETATM   15  C   UNL     1       3.111   8.466  25.977  0.00  0.00     0.037 A 
HETATM   16  C   UNL     1       1.796   7.968  25.988  0.00  0.00     0.032 A 
HETATM   17  C   UNL     1       1.221   7.368  27.125  0.00  0.00     0.031 A 
HETATM   18  C   UNL     1       1.920   7.229  28.319  0.00  0.00     0.030 A 
HETATM   19  C   UNL     1       3.194   7.809  28.337  0.00  0.00     0.031 A 
HETATM   20  C   UNL     1       3.778   8.409  27.202  0.00  0.00     0.032 A 
BRANCH  18  21
HETATM   21  N   UNL     1       1.395   6.594  29.421  0.00  0.00    -0.377 N 
HETATM   22  C   UNL     1       0.756   7.281  30.554  0.00  0.00     0.149 C 
HETATM   23  C   UNL     1       1.236   6.610  31.856  0.00  0.00     0.187 C 
HETATM   24  O   UNL     1       0.989   5.192  31.863  0.00  0.00    -0.388 OA
HETATM   25  C   UNL     1       1.623   4.561  30.735  0.00  0.00     0.187 C 
HETATM   26  C   UNL     1       1.110   5.150  29.415  0.00  0.00     0.149 C 
ENDBRANCH  18  21
ENDBRANCH  12  15
ENDBRANCH   1  11
BRANCH   2  27
HETATM   27  O   UNL     1       4.213   7.090  21.562  0.00  0.00    -0.360 OA
HETATM   28  H   UNL     1       3.301   7.357  21.819  0.00  0.00     0.217 HD
ENDBRANCH   2  27
BRANCH   7  29
HETATM   29  C   UNL     1       7.803  12.883  21.886  0.00  0.00     0.100 C 
BRANCH  29  30
HETATM   30  C   UNL     1       6.728  13.847  22.389  0.00  0.00    -0.050 A 
HETATM   31  C   UNL     1       7.021  15.103  22.945  0.00  0.00     0.007 A 
HETATM   32  C   UNL     1       6.010  15.934  23.430  0.00  0.00     0.003 A 
HETATM   33  C   UNL     1       4.693  15.495  23.440  0.00  0.00     0.037 A 
HETATM   34  C   UNL     1       4.366  14.227  22.966  0.00  0.00     0.068 A 
HETATM   35  C   UNL     1       5.373  13.413  22.424  0.00  0.00     0.044 A 
BRANCH  34  36
HETATM   36  O   UNL     1       3.052  13.905  23.163  0.00  0.00    -0.356 OA
HETATM   37  C   UNL     1       2.443  14.284  24.386  0.00  0.00     0.210 C 
ENDBRANCH  34  36
ENDBRANCH  29  30
ENDBRANCH   7  29
TORSDOF 7
ENDMDL
