REMARK  7 active torsions:
REMARK  status: ('A' for Active; 'I' for Inactive)
REMARK    1  A    between atoms: N_6  and  C_7 
REMARK    2  A    between atoms: C_12  and  N_13 
REMARK       I    between atoms: N_13  and  C_15 
REMARK    3  A    between atoms: C_15  and  C_17 
REMARK    4  A    between atoms: C_18  and  O_20 
REMARK    5  A    between atoms: C_24  and  C_28 
REMARK    6  A    between atoms: C_28  and  C_29 
REMARK    7  A    between atoms: C_33  and  O_35 
ROOT
HETATM    1  C   UNL     1       8.514  -1.299   3.820  0.00  0.00     0.066 C 
HETATM    2  C   UNL     1       9.324  -2.450   3.891  0.00  0.00     0.083 C 
HETATM    3  C   UNL     1      10.656  -2.391   4.314  0.00  0.00     0.069 C 
HETATM    4  C   UNL     1       9.037  -0.075   4.286  0.00  0.00     0.035 C 
HETATM    5  C   UNL     1      10.415   0.040   4.571  0.00  0.00     0.020 A 
HETATM    6  C   UNL     1      11.177  -1.122   4.604  0.00  0.00     0.065 A 
HETATM    7  C   UNL     1      11.351   1.099   4.818  0.00  0.00     0.071 A 
HETATM    8  N   UNL     1      12.571   0.602   5.090  0.00  0.00    -0.178 NA
HETATM    9  N   UNL     1      12.426  -0.728   4.982  0.00  0.00    -0.277 N 
HETATM   10  H   UNL     1      13.231  -1.317   5.158  0.00  0.00     0.189 HD
ENDROOT
BRANCH   1  11
HETATM   11  C   UNL     1       7.139  -1.423   3.211  0.00  0.00     0.260 C 
HETATM   12  N   UNL     1       6.604  -0.394   2.374  0.00  0.00    -0.318 N 
HETATM   13  C   UNL     1       7.381   0.807   2.070  0.00  0.00     0.159 C 
HETATM   14  O   UNL     1       6.604  -2.514   3.411  0.00  0.00    -0.267 OA
BRANCH  12  15
HETATM   15  C   UNL     1       5.302  -0.527   1.733  0.00  0.00     0.037 A 
HETATM   16  C   UNL     1       4.937   0.251   0.620  0.00  0.00     0.032 A 
HETATM   17  C   UNL     1       3.727   0.062  -0.075  0.00  0.00     0.031 A 
HETATM   18  C   UNL     1       2.807  -0.912   0.297  0.00  0.00     0.030 A 
HETATM   19  C   UNL     1       3.126  -1.622   1.461  0.00  0.00     0.031 A 
HETATM   20  C   UNL     1       4.337  -1.440   2.161  0.00  0.00     0.032 A 
BRANCH  18  21
HETATM   21  N   UNL     1       1.648  -1.150  -0.404  0.00  0.00    -0.377 N 
HETATM   22  C   UNL     1       1.058  -0.221  -1.381  0.00  0.00     0.149 C 
HETATM   23  C   UNL     1      -0.468  -0.197  -1.161  0.00  0.00     0.187 C 
HETATM   24  O   UNL     1      -1.050  -1.512  -1.232  0.00  0.00    -0.388 OA
HETATM   25  C   UNL     1      -0.439  -2.390  -0.268  0.00  0.00     0.187 C 
HETATM   26  C   UNL     1       1.072  -2.501  -0.505  0.00  0.00     0.149 C 
ENDBRANCH  18  21
ENDBRANCH  12  15
ENDBRANCH   1  11
BRANCH   2  27
HETATM   27  O   UNL     1       8.882  -3.706   3.550  0.00  0.00    -0.360 OA
HETATM   28  H   UNL     1       7.907  -3.658   3.429  0.00  0.00     0.217 HD
ENDBRANCH   2  27
BRANCH   7  29
HETATM   29  C   UNL     1      11.161   2.598   4.820  0.00  0.00     0.100 C 
BRANCH  29  30
HETATM   30  C   UNL     1      11.032   3.166   3.407  0.00  0.00    -0.050 A 
HETATM   31  C   UNL     1      11.509   2.503   2.265  0.00  0.00     0.007 A 
HETATM   32  C   UNL     1      11.407   3.078   0.997  0.00  0.00     0.003 A 
HETATM   33  C   UNL     1      10.895   4.361   0.854  0.00  0.00     0.037 A 
HETATM   34  C   UNL     1      10.477   5.084   1.968  0.00  0.00     0.068 A 
HETATM   35  C   UNL     1      10.525   4.485   3.236  0.00  0.00     0.044 A 
BRANCH  34  36
HETATM   36  O   UNL     1      10.120   6.369   1.668  0.00  0.00    -0.356 OA
HETATM   37  C   UNL     1       9.297   7.070   2.585  0.00  0.00     0.210 C 
ENDBRANCH  34  36
ENDBRANCH  29  30
ENDBRANCH   7  29
TORSDOF 7
