MODEL 1
REMARK VINA RESULT:    -9.662      0.000      0.000
REMARK INTER + INTRA:         -13.732
REMARK INTER:                 -12.525
REMARK INTRA:                  -1.207
REMARK UNBOUND:                -0.963
REMARK  6 active torsions:
REMARK  status: ('A' for Active; 'I' for Inactive)
REMARK    1  A    between atoms: C_7  and  C_8 
REMARK    2  A    between atoms: C_8  and  N_9 
REMARK       I    between atoms: N_9  and  C_11 
REMARK    3  A    between atoms: C_11  and  C_13 
REMARK    4  A    between atoms: C_15  and  O_16 
REMARK    5  A    between atoms: C_23  and  C_24 
REMARK    6  A    between atoms: C_24  and  C_25 
ROOT
HETATM    1  C   UNL     1      -3.163  13.599  21.226  0.00  0.00     0.066 C 
HETATM    2  C   UNL     1      -2.037  14.443  21.456  0.00  0.00     0.035 C 
HETATM    3  C   UNL     1      -4.154  14.106  20.377  0.00  0.00     0.083 C 
HETATM    4  C   UNL     1      -3.990  15.279  19.620  0.00  0.00     0.069 C 
HETATM    5  C   UNL     1      -2.855  16.048  19.866  0.00  0.00     0.065 A 
HETATM    6  C   UNL     1      -1.900  15.696  20.808  0.00  0.00     0.020 A 
HETATM    7  N   UNL     1      -2.447  17.250  19.358  0.00  0.00    -0.277 N 
HETATM    8  H   UNL     1      -2.888  17.794  18.626  0.00  0.00     0.189 HD
HETATM    9  N   UNL     1      -1.400  17.778  19.991  0.00  0.00    -0.178 NA
HETATM   10  C   UNL     1      -1.049  16.846  20.895  0.00  0.00     0.071 A 
ENDROOT
BRANCH   1  11
HETATM   11  C   UNL     1      -3.186  12.317  22.043  0.00  0.00     0.256 C 
HETATM   12  N   UNL     1      -3.596  12.194  23.387  0.00  0.00    -0.348 N 
HETATM   13  C   UNL     1      -3.882  13.286  24.297  0.00  0.00     0.153 C 
HETATM   14  O   UNL     1      -2.845  11.302  21.427  0.00  0.00    -0.267 OA
BRANCH  12  15
HETATM   15  C   UNL     1      -3.485  10.876  24.029  0.00  0.00     0.164 C 
BRANCH  15  16
HETATM   16  C   UNL     1      -2.179  10.607  24.765  0.00  0.00    -0.040 A 
HETATM   17  C   UNL     1      -1.033  10.199  24.056  0.00  0.00     0.010 A 
HETATM   18  C   UNL     1       0.106   9.742  24.733  0.00  0.00     0.024 A 
HETATM   19  C   UNL     1       0.106   9.686  26.125  0.00  0.00     0.034 A 
HETATM   20 CL   UNL     1       1.460   9.018  26.955  0.00  0.00    -0.084 Cl
HETATM   21  C   UNL     1      -1.000  10.134  26.843  0.00  0.00     0.024 A 
HETATM   22  C   UNL     1      -2.136  10.593  26.166  0.00  0.00     0.010 A 
ENDBRANCH  15  16
ENDBRANCH  12  15
ENDBRANCH   1  11
BRANCH   3  23
HETATM   23  O   UNL     1      -5.412  13.580  20.304  0.00  0.00    -0.360 OA
HETATM   24  H   UNL     1      -5.494  12.974  21.064  0.00  0.00     0.217 HD
ENDBRANCH   3  23
BRANCH  10  25
HETATM   25  C   UNL     1      -0.032  17.175  21.939  0.00  0.00     0.100 C 
BRANCH  25  26
HETATM   26  C   UNL     1       1.274  16.523  21.571  0.00  0.00    -0.052 A 
HETATM   27  C   UNL     1       1.857  16.734  20.312  0.00  0.00     0.007 A 
HETATM   28  C   UNL     1       3.124  16.225  20.022  0.00  0.00     0.001 A 
HETATM   29  C   UNL     1       3.811  15.476  20.977  0.00  0.00     0.007 A 
HETATM   30  C   UNL     1       3.228  15.214  22.221  0.00  0.00    -0.061 A 
HETATM   31  C   UNL     1       1.966  15.748  22.513  0.00  0.00     0.014 A 
HETATM   32  C   UNL     1       3.917  14.356  23.239  0.00  0.00     0.048 C 
ENDBRANCH  25  26
ENDBRANCH  10  25
TORSDOF 6
ENDMDL
MODEL 2
REMARK VINA RESULT:    -9.203      2.960      5.220
REMARK INTER + INTRA:         -13.126
REMARK INTER:                 -12.463
REMARK INTRA:                  -0.663
REMARK UNBOUND:                -0.963
REMARK  6 active torsions:
REMARK  status: ('A' for Active; 'I' for Inactive)
REMARK    1  A    between atoms: C_7  and  C_8 
REMARK    2  A    between atoms: C_8  and  N_9 
REMARK       I    between atoms: N_9  and  C_11 
REMARK    3  A    between atoms: C_11  and  C_13 
REMARK    4  A    between atoms: C_15  and  O_16 
REMARK    5  A    between atoms: C_23  and  C_24 
REMARK    6  A    between atoms: C_24  and  C_25 
ROOT
HETATM    1  C   UNL     1      -0.053  15.655  23.755  0.00  0.00     0.066 C 
HETATM    2  C   UNL     1      -0.828  16.251  22.717  0.00  0.00     0.035 C 
HETATM    3  C   UNL     1       1.332  15.623  23.553  0.00  0.00     0.083 C 
HETATM    4  C   UNL     1       1.971  16.307  22.504  0.00  0.00     0.069 C 
HETATM    5  C   UNL     1       1.162  16.897  21.535  0.00  0.00     0.065 A 
HETATM    6  C   UNL     1      -0.223  16.838  21.577  0.00  0.00     0.020 A 
HETATM    7  N   UNL     1       1.469  17.562  20.380  0.00  0.00    -0.277 N 
HETATM    8  H   UNL     1       2.388  17.813  20.037  0.00  0.00     0.189 HD
HETATM    9  N   UNL     1       0.416  17.803  19.600  0.00  0.00    -0.178 NA
HETATM   10  C   UNL     1      -0.636  17.359  20.308  0.00  0.00     0.071 A 
ENDROOT
BRANCH   1  11
HETATM   11  C   UNL     1      -0.857  15.020  24.877  0.00  0.00     0.256 C 
HETATM   12  N   UNL     1      -0.872  13.652  25.221  0.00  0.00    -0.348 N 
HETATM   13  C   UNL     1      -0.283  12.573  24.453  0.00  0.00     0.153 C 
HETATM   14  O   UNL     1      -1.518  15.814  25.556  0.00  0.00    -0.267 OA
BRANCH  12  15
HETATM   15  C   UNL     1      -1.768  13.217  26.302  0.00  0.00     0.164 C 
BRANCH  15  16
HETATM   16  C   UNL     1      -3.037  12.499  25.859  0.00  0.00    -0.040 A 
HETATM   17  C   UNL     1      -3.748  11.685  26.762  0.00  0.00     0.010 A 
HETATM   18  C   UNL     1      -4.785  10.854  26.317  0.00  0.00     0.024 A 
HETATM   19  C   UNL     1      -5.115  10.826  24.965  0.00  0.00     0.034 A 
HETATM   20 CL   UNL     1      -6.310   9.722  24.399  0.00  0.00    -0.084 Cl
HETATM   21  C   UNL     1      -4.458  11.663  24.066  0.00  0.00     0.024 A 
HETATM   22  C   UNL     1      -3.425  12.495  24.511  0.00  0.00     0.010 A 
ENDBRANCH  15  16
ENDBRANCH  12  15
ENDBRANCH   1  11
BRANCH   3  23
HETATM   23  O   UNL     1       2.171  14.826  24.276  0.00  0.00    -0.360 OA
HETATM   24  H   UNL     1       2.073  15.105  25.206  0.00  0.00     0.217 HD
ENDBRANCH   3  23
BRANCH  10  25
HETATM   25  C   UNL     1      -1.980  17.274  19.660  0.00  0.00     0.100 C 
BRANCH  25  26
HETATM   26  C   UNL     1      -2.737  16.117  20.257  0.00  0.00    -0.052 A 
HETATM   27  C   UNL     1      -4.051  16.277  20.723  0.00  0.00     0.007 A 
HETATM   28  C   UNL     1      -4.788  15.176  21.161  0.00  0.00     0.001 A 
HETATM   29  C   UNL     1      -4.211  13.906  21.165  0.00  0.00     0.007 A 
HETATM   30  C   UNL     1      -2.887  13.732  20.750  0.00  0.00    -0.061 A 
HETATM   31  C   UNL     1      -2.162  14.839  20.288  0.00  0.00     0.014 A 
HETATM   32  C   UNL     1      -2.223  12.390  20.807  0.00  0.00     0.048 C 
ENDBRANCH  25  26
ENDBRANCH  10  25
TORSDOF 6
ENDMDL
MODEL 3
REMARK VINA RESULT:    -9.184      1.308      1.624
REMARK INTER + INTRA:         -13.100
REMARK INTER:                 -11.473
REMARK INTRA:                  -1.627
REMARK UNBOUND:                -0.963
REMARK  6 active torsions:
REMARK  status: ('A' for Active; 'I' for Inactive)
REMARK    1  A    between atoms: C_7  and  C_8 
REMARK    2  A    between atoms: C_8  and  N_9 
REMARK       I    between atoms: N_9  and  C_11 
REMARK    3  A    between atoms: C_11  and  C_13 
REMARK    4  A    between atoms: C_15  and  O_16 
REMARK    5  A    between atoms: C_23  and  C_24 
REMARK    6  A    between atoms: C_24  and  C_25 
ROOT
HETATM    1  C   UNL     1      -3.103  13.793  22.176  0.00  0.00     0.066 C 
HETATM    2  C   UNL     1      -1.956  14.626  22.019  0.00  0.00     0.035 C 
HETATM    3  C   UNL     1      -4.246  14.174  21.465  0.00  0.00     0.083 C 
HETATM    4  C   UNL     1      -4.243  15.187  20.489  0.00  0.00     0.069 C 
HETATM    5  C   UNL     1      -3.083  15.948  20.359  0.00  0.00     0.065 A 
HETATM    6  C   UNL     1      -1.956  15.738  21.139  0.00  0.00     0.020 A 
HETATM    7  N   UNL     1      -2.790  17.026  19.569  0.00  0.00    -0.277 N 
HETATM    8  H   UNL     1      -3.371  17.445  18.854  0.00  0.00     0.189 HD
HETATM    9  N   UNL     1      -1.638  17.621  19.874  0.00  0.00    -0.178 NA
HETATM   10  C   UNL     1      -1.109  16.855  20.843  0.00  0.00     0.071 A 
ENDROOT
BRANCH   1  11
HETATM   11  C   UNL     1      -2.956  12.681  23.200  0.00  0.00     0.256 C 
HETATM   12  N   UNL     1      -2.220  11.489  23.036  0.00  0.00    -0.348 N 
HETATM   13  C   UNL     1      -1.631  11.012  21.800  0.00  0.00     0.153 C 
HETATM   14  O   UNL     1      -3.516  12.893  24.282  0.00  0.00    -0.267 OA
BRANCH  12  15
HETATM   15  C   UNL     1      -2.250  10.498  24.122  0.00  0.00     0.164 C 
BRANCH  15  16
HETATM   16  C   UNL     1      -0.893  10.071  24.666  0.00  0.00    -0.040 A 
HETATM   17  C   UNL     1       0.145  11.011  24.810  0.00  0.00     0.010 A 
HETATM   18  C   UNL     1       1.453  10.599  25.100  0.00  0.00     0.024 A 
HETATM   19  C   UNL     1       1.733   9.242  25.245  0.00  0.00     0.034 A 
HETATM   20 CL   UNL     1       3.358   8.726  25.489  0.00  0.00    -0.084 Cl
HETATM   21  C   UNL     1       0.709   8.303  25.157  0.00  0.00     0.024 A 
HETATM   22  C   UNL     1      -0.597   8.715  24.870  0.00  0.00     0.010 A 
ENDBRANCH  15  16
ENDBRANCH  12  15
ENDBRANCH   1  11
BRANCH   3  23
HETATM   23  O   UNL     1      -5.491  13.688  21.741  0.00  0.00    -0.360 OA
HETATM   24  H   UNL     1      -5.354  12.805  22.133  0.00  0.00     0.217 HD
ENDBRANCH   3  23
BRANCH  10  25
HETATM   25  C   UNL     1       0.098  17.330  21.585  0.00  0.00     0.100 C 
BRANCH  25  26
HETATM   26  C   UNL     1       1.161  16.265  21.521  0.00  0.00    -0.052 A 
HETATM   27  C   UNL     1       1.781  15.937  20.306  0.00  0.00     0.007 A 
HETATM   28  C   UNL     1       2.849  15.038  20.273  0.00  0.00     0.001 A 
HETATM   29  C   UNL     1       3.290  14.436  21.451  0.00  0.00     0.007 A 
HETATM   30  C   UNL     1       2.655  14.713  22.666  0.00  0.00    -0.061 A 
HETATM   31  C   UNL     1       1.600  15.635  22.694  0.00  0.00     0.014 A 
HETATM   32  C   UNL     1       3.067  14.028  23.934  0.00  0.00     0.048 C 
ENDBRANCH  25  26
ENDBRANCH  10  25
TORSDOF 6
ENDMDL
MODEL 4
REMARK VINA RESULT:    -9.114      3.353      6.844
REMARK INTER + INTRA:         -13.007
REMARK INTER:                 -11.820
REMARK INTRA:                  -1.188
REMARK UNBOUND:                -0.963
REMARK  6 active torsions:
REMARK  status: ('A' for Active; 'I' for Inactive)
REMARK    1  A    between atoms: C_7  and  C_8 
REMARK    2  A    between atoms: C_8  and  N_9 
REMARK       I    between atoms: N_9  and  C_11 
REMARK    3  A    between atoms: C_11  and  C_13 
REMARK    4  A    between atoms: C_15  and  O_16 
REMARK    5  A    between atoms: C_23  and  C_24 
REMARK    6  A    between atoms: C_24  and  C_25 
ROOT
HETATM    1  C   UNL     1      -3.352  12.232  25.295  0.00  0.00     0.066 C 
HETATM    2  C   UNL     1      -2.051  11.743  24.975  0.00  0.00     0.035 C 
HETATM    3  C   UNL     1      -3.944  11.708  26.449  0.00  0.00     0.083 C 
HETATM    4  C   UNL     1      -3.251  10.903  27.371  0.00  0.00     0.069 C 
HETATM    5  C   UNL     1      -1.971  10.481  27.018  0.00  0.00     0.065 A 
HETATM    6  C   UNL     1      -1.371  10.827  25.817  0.00  0.00     0.020 A 
HETATM    7  N   UNL     1      -1.083   9.655  27.650  0.00  0.00    -0.277 N 
HETATM    8  H   UNL     1      -1.175   9.232  28.566  0.00  0.00     0.189 HD
HETATM    9  N   UNL     1      -0.033   9.316  26.903  0.00  0.00    -0.178 NA
HETATM   10  C   UNL     1      -0.191  10.016  25.766  0.00  0.00     0.071 A 
ENDROOT
BRANCH   1  11
HETATM   11  C   UNL     1      -3.964  13.161  24.259  0.00  0.00     0.256 C 
HETATM   12  N   UNL     1      -3.950  12.973  22.861  0.00  0.00    -0.348 N 
HETATM   13  C   UNL     1      -3.187  11.973  22.140  0.00  0.00     0.153 C 
HETATM   14  O   UNL     1      -4.555  14.141  24.725  0.00  0.00    -0.267 OA
BRANCH  12  15
HETATM   15  C   UNL     1      -4.542  14.020  22.014  0.00  0.00     0.164 C 
BRANCH  15  16
HETATM   16  C   UNL     1      -3.580  15.094  21.522  0.00  0.00    -0.040 A 
HETATM   17  C   UNL     1      -3.920  15.907  20.424  0.00  0.00     0.010 A 
HETATM   18  C   UNL     1      -2.968  16.745  19.828  0.00  0.00     0.024 A 
HETATM   19  C   UNL     1      -1.667  16.773  20.323  0.00  0.00     0.034 A 
HETATM   20 CL   UNL     1      -0.467  17.715  19.523  0.00  0.00    -0.084 Cl
HETATM   21  C   UNL     1      -1.327  16.015  21.440  0.00  0.00     0.024 A 
HETATM   22  C   UNL     1      -2.279  15.180  22.037  0.00  0.00     0.010 A 
ENDBRANCH  15  16
ENDBRANCH  12  15
ENDBRANCH   1  11
BRANCH   3  23
HETATM   23  O   UNL     1      -5.277  11.823  26.720  0.00  0.00    -0.360 OA
HETATM   24  H   UNL     1      -5.701  12.076  25.878  0.00  0.00     0.217 HD
ENDBRANCH   3  23
BRANCH  10  25
HETATM   25  C   UNL     1       0.694   9.733  24.595  0.00  0.00     0.100 C 
BRANCH  25  26
HETATM   26  C   UNL     1       0.911  11.010  23.827  0.00  0.00    -0.052 A 
HETATM   27  C   UNL     1       0.380  11.177  22.539  0.00  0.00     0.007 A 
HETATM   28  C   UNL     1       0.481  12.406  21.883  0.00  0.00     0.001 A 
HETATM   29  C   UNL     1       1.138  13.473  22.496  0.00  0.00     0.007 A 
HETATM   30  C   UNL     1       1.716  13.313  23.760  0.00  0.00    -0.061 A 
HETATM   31  C   UNL     1       1.589  12.084  24.422  0.00  0.00     0.014 A 
HETATM   32  C   UNL     1       2.484  14.423  24.410  0.00  0.00     0.048 C 
ENDBRANCH  25  26
ENDBRANCH  10  25
TORSDOF 6
ENDMDL
MODEL 5
REMARK VINA RESULT:    -8.995      1.356      2.059
REMARK INTER + INTRA:         -12.850
REMARK INTER:                 -11.385
REMARK INTRA:                  -1.465
REMARK UNBOUND:                -0.963
REMARK  6 active torsions:
REMARK  status: ('A' for Active; 'I' for Inactive)
REMARK    1  A    between atoms: C_7  and  C_8 
REMARK    2  A    between atoms: C_8  and  N_9 
REMARK       I    between atoms: N_9  and  C_11 
REMARK    3  A    between atoms: C_11  and  C_13 
REMARK    4  A    between atoms: C_15  and  O_16 
REMARK    5  A    between atoms: C_23  and  C_24 
REMARK    6  A    between atoms: C_24  and  C_25 
ROOT
HETATM    1  C   UNL     1      -3.113  13.608  21.298  0.00  0.00     0.066 C 
HETATM    2  C   UNL     1      -1.908  14.355  21.445  0.00  0.00     0.035 C 
HETATM    3  C   UNL     1      -4.137  14.223  20.568  0.00  0.00     0.083 C 
HETATM    4  C   UNL     1      -3.954  15.411  19.839  0.00  0.00     0.069 C 
HETATM    5  C   UNL     1      -2.743  16.082  19.999  0.00  0.00     0.065 A 
HETATM    6  C   UNL     1      -1.734  15.621  20.830  0.00  0.00     0.020 A 
HETATM    7  N   UNL     1      -2.293  17.271  19.495  0.00  0.00    -0.277 N 
HETATM    8  H   UNL     1      -2.757  17.876  18.828  0.00  0.00     0.189 HD
HETATM    9  N   UNL     1      -1.152  17.692  20.040  0.00  0.00    -0.178 NA
HETATM   10  C   UNL     1      -0.792  16.700  20.873  0.00  0.00     0.071 A 
ENDROOT
BRANCH   1  11
HETATM   11  C   UNL     1      -3.159  12.299  22.069  0.00  0.00     0.256 C 
HETATM   12  N   UNL     1      -3.630  12.125  23.386  0.00  0.00    -0.348 N 
HETATM   13  C   UNL     1      -3.973  13.182  24.318  0.00  0.00     0.153 C 
HETATM   14  O   UNL     1      -2.776  11.309  21.435  0.00  0.00    -0.267 OA
BRANCH  12  15
HETATM   15  C   UNL     1      -3.534  10.787  23.988  0.00  0.00     0.164 C 
BRANCH  15  16
HETATM   16  C   UNL     1      -2.296  10.532  24.839  0.00  0.00    -0.040 A 
HETATM   17  C   UNL     1      -1.114  10.044  24.251  0.00  0.00     0.010 A 
HETATM   18  C   UNL     1      -0.045   9.603  25.043  0.00  0.00     0.024 A 
HETATM   19  C   UNL     1      -0.153   9.643  26.431  0.00  0.00     0.034 A 
HETATM   20 CL   UNL     1       1.111   8.997  27.406  0.00  0.00    -0.084 Cl
HETATM   21  C   UNL     1      -1.294  10.171  27.029  0.00  0.00     0.024 A 
HETATM   22  C   UNL     1      -2.360  10.614  26.238  0.00  0.00     0.010 A 
ENDBRANCH  15  16
ENDBRANCH  12  15
ENDBRANCH   1  11
BRANCH   3  23
HETATM   23  O   UNL     1      -5.433  13.796  20.600  0.00  0.00    -0.360 OA
HETATM   24  H   UNL     1      -5.981  14.603  20.622  0.00  0.00     0.217 HD
ENDBRANCH   3  23
BRANCH  10  25
HETATM   25  C   UNL     1       0.343  16.908  21.823  0.00  0.00     0.100 C 
BRANCH  25  26
HETATM   26  C   UNL     1       0.165  15.990  23.004  0.00  0.00    -0.052 A 
HETATM   27  C   UNL     1      -0.845  16.220  23.951  0.00  0.00     0.007 A 
HETATM   28  C   UNL     1      -1.081  15.300  24.974  0.00  0.00     0.001 A 
HETATM   29  C   UNL     1      -0.294  14.154  25.078  0.00  0.00     0.007 A 
HETATM   30  C   UNL     1       0.748  13.929  24.173  0.00  0.00    -0.061 A 
HETATM   31  C   UNL     1       0.964  14.846  23.134  0.00  0.00     0.014 A 
HETATM   32  C   UNL     1       1.651  12.740  24.303  0.00  0.00     0.048 C 
ENDBRANCH  25  26
ENDBRANCH  10  25
TORSDOF 6
ENDMDL
MODEL 6
REMARK VINA RESULT:    -8.878      2.586      7.041
REMARK INTER + INTRA:         -12.695
REMARK INTER:                 -11.673
REMARK INTRA:                  -1.023
REMARK UNBOUND:                -0.963
REMARK  6 active torsions:
REMARK  status: ('A' for Active; 'I' for Inactive)
REMARK    1  A    between atoms: C_7  and  C_8 
REMARK    2  A    between atoms: C_8  and  N_9 
REMARK       I    between atoms: N_9  and  C_11 
REMARK    3  A    between atoms: C_11  and  C_13 
REMARK    4  A    between atoms: C_15  and  O_16 
REMARK    5  A    between atoms: C_23  and  C_24 
REMARK    6  A    between atoms: C_24  and  C_25 
ROOT
HETATM    1  C   UNL     1      -1.910  14.945  22.874  0.00  0.00     0.066 C 
HETATM    2  C   UNL     1      -1.702  14.353  24.155  0.00  0.00     0.035 C 
HETATM    3  C   UNL     1      -3.158  14.719  22.284  0.00  0.00     0.083 C 
HETATM    4  C   UNL     1      -4.235  14.125  22.965  0.00  0.00     0.069 C 
HETATM    5  C   UNL     1      -3.979  13.591  24.227  0.00  0.00     0.065 A 
HETATM    6  C   UNL     1      -2.727  13.633  24.819  0.00  0.00     0.020 A 
HETATM    7  N   UNL     1      -4.778  12.903  25.098  0.00  0.00    -0.277 N 
HETATM    8  H   UNL     1      -5.767  12.705  25.006  0.00  0.00     0.189 HD
HETATM    9  N   UNL     1      -4.120  12.368  26.126  0.00  0.00    -0.178 NA
HETATM   10  C   UNL     1      -2.854  12.793  25.973  0.00  0.00     0.071 A 
ENDROOT
BRANCH   1  11
HETATM   11  C   UNL     1      -0.693  15.631  22.276  0.00  0.00     0.256 C 
HETATM   12  N   UNL     1       0.282  15.028  21.453  0.00  0.00    -0.348 N 
HETATM   13  C   UNL     1       0.416  13.610  21.186  0.00  0.00     0.153 C 
HETATM   14  O   UNL     1      -0.604  16.839  22.522  0.00  0.00    -0.267 OA
BRANCH  12  15
HETATM   15  C   UNL     1       1.427  15.843  21.022  0.00  0.00     0.164 C 
BRANCH  15  16
HETATM   16  C   UNL     1       2.796  15.355  21.480  0.00  0.00    -0.040 A 
HETATM   17  C   UNL     1       2.998  14.944  22.811  0.00  0.00     0.010 A 
HETATM   18  C   UNL     1       4.288  14.700  23.300  0.00  0.00     0.024 A 
HETATM   19  C   UNL     1       5.387  14.870  22.462  0.00  0.00     0.034 A 
HETATM   20 CL   UNL     1       6.980  14.682  23.091  0.00  0.00    -0.084 Cl
HETATM   21  C   UNL     1       5.202  15.225  21.128  0.00  0.00     0.024 A 
HETATM   22  C   UNL     1       3.913  15.466  20.640  0.00  0.00     0.010 A 
ENDBRANCH  15  16
ENDBRANCH  12  15
ENDBRANCH   1  11
BRANCH   3  23
HETATM   23  O   UNL     1      -3.405  14.937  20.959  0.00  0.00    -0.360 OA
HETATM   24  H   UNL     1      -4.161  14.365  20.728  0.00  0.00     0.217 HD
ENDBRANCH   3  23
BRANCH  10  25
HETATM   25  C   UNL     1      -1.774  12.220  26.832  0.00  0.00     0.100 C 
BRANCH  25  26
HETATM   26  C   UNL     1      -1.383  10.870  26.289  0.00  0.00    -0.052 A 
HETATM   27  C   UNL     1      -1.098  10.695  24.927  0.00  0.00     0.007 A 
HETATM   28  C   UNL     1      -0.620   9.472  24.453  0.00  0.00     0.001 A 
HETATM   29  C   UNL     1      -0.448   8.402  25.331  0.00  0.00     0.007 A 
HETATM   30  C   UNL     1      -0.771   8.541  26.684  0.00  0.00    -0.061 A 
HETATM   31  C   UNL     1      -1.228   9.780  27.156  0.00  0.00     0.014 A 
HETATM   32  C   UNL     1      -0.659   7.388  27.634  0.00  0.00     0.048 C 
ENDBRANCH  25  26
ENDBRANCH  10  25
TORSDOF 6
ENDMDL
MODEL 7
REMARK VINA RESULT:    -8.872      1.480      2.201
REMARK INTER + INTRA:         -12.688
REMARK INTER:                 -11.507
REMARK INTRA:                  -1.180
REMARK UNBOUND:                -0.963
REMARK  6 active torsions:
REMARK  status: ('A' for Active; 'I' for Inactive)
REMARK    1  A    between atoms: C_7  and  C_8 
REMARK    2  A    between atoms: C_8  and  N_9 
REMARK       I    between atoms: N_9  and  C_11 
REMARK    3  A    between atoms: C_11  and  C_13 
REMARK    4  A    between atoms: C_15  and  O_16 
REMARK    5  A    between atoms: C_23  and  C_24 
REMARK    6  A    between atoms: C_24  and  C_25 
ROOT
HETATM    1  C   UNL     1      -2.785  13.257  21.712  0.00  0.00     0.066 C 
HETATM    2  C   UNL     1      -2.011  14.185  20.956  0.00  0.00     0.035 C 
HETATM    3  C   UNL     1      -4.064  13.683  22.091  0.00  0.00     0.083 C 
HETATM    4  C   UNL     1      -4.659  14.859  21.602  0.00  0.00     0.069 C 
HETATM    5  C   UNL     1      -3.862  15.713  20.842  0.00  0.00     0.065 A 
HETATM    6  C   UNL     1      -2.533  15.440  20.554  0.00  0.00     0.020 A 
HETATM    7  N   UNL     1      -4.116  16.938  20.290  0.00  0.00    -0.277 N 
HETATM    8  H   UNL     1      -4.994  17.442  20.280  0.00  0.00     0.189 HD
HETATM    9  N   UNL     1      -3.035  17.547  19.805  0.00  0.00    -0.178 NA
HETATM   10  C   UNL     1      -2.045  16.651  19.963  0.00  0.00     0.071 A 
ENDROOT
BRANCH   1  11
HETATM   11  C   UNL     1      -2.058  11.984  22.112  0.00  0.00     0.256 C 
HETATM   12  N   UNL     1      -1.073  11.868  23.114  0.00  0.00    -0.348 N 
HETATM   13  C   UNL     1      -0.430  12.964  23.811  0.00  0.00     0.153 C 
HETATM   14  O   UNL     1      -2.419  10.968  21.507  0.00  0.00    -0.267 OA
BRANCH  12  15
HETATM   15  C   UNL     1      -0.434  10.558  23.312  0.00  0.00     0.164 C 
BRANCH  15  16
HETATM   16  C   UNL     1      -0.512   9.991  24.724  0.00  0.00    -0.040 A 
HETATM   17  C   UNL     1      -1.677  10.157  25.495  0.00  0.00     0.010 A 
HETATM   18  C   UNL     1      -1.689   9.835  26.859  0.00  0.00     0.024 A 
HETATM   19  C   UNL     1      -0.531   9.349  27.463  0.00  0.00     0.034 A 
HETATM   20 CL   UNL     1      -0.509   9.061  29.161  0.00  0.00    -0.084 Cl
HETATM   21  C   UNL     1       0.615   9.130  26.704  0.00  0.00     0.024 A 
HETATM   22  C   UNL     1       0.625   9.449  25.341  0.00  0.00     0.010 A 
ENDBRANCH  15  16
ENDBRANCH  12  15
ENDBRANCH   1  11
BRANCH   3  23
HETATM   23  O   UNL     1      -4.797  13.064  23.062  0.00  0.00    -0.360 OA
HETATM   24  H   UNL     1      -4.441  12.158  23.131  0.00  0.00     0.217 HD
ENDBRANCH   3  23
BRANCH  10  25
HETATM   25  C   UNL     1      -0.629  17.063  19.720  0.00  0.00     0.100 C 
BRANCH  25  26
HETATM   26  C   UNL     1       0.212  16.639  20.894  0.00  0.00    -0.052 A 
HETATM   27  C   UNL     1      -0.102  17.058  22.196  0.00  0.00     0.007 A 
HETATM   28  C   UNL     1       0.607  16.564  23.292  0.00  0.00     0.001 A 
HETATM   29  C   UNL     1       1.656  15.666  23.097  0.00  0.00     0.007 A 
HETATM   30  C   UNL     1       2.016  15.272  21.805  0.00  0.00    -0.061 A 
HETATM   31  C   UNL     1       1.284  15.753  20.711  0.00  0.00     0.014 A 
HETATM   32  C   UNL     1       3.182  14.361  21.565  0.00  0.00     0.048 C 
ENDBRANCH  25  26
ENDBRANCH  10  25
TORSDOF 6
ENDMDL
MODEL 8
REMARK VINA RESULT:    -8.516      3.478      8.153
REMARK INTER + INTRA:         -12.217
REMARK INTER:                 -11.088
REMARK INTRA:                  -1.128
REMARK UNBOUND:                -0.963
REMARK  6 active torsions:
REMARK  status: ('A' for Active; 'I' for Inactive)
REMARK    1  A    between atoms: C_7  and  C_8 
REMARK    2  A    between atoms: C_8  and  N_9 
REMARK       I    between atoms: N_9  and  C_11 
REMARK    3  A    between atoms: C_11  and  C_13 
REMARK    4  A    between atoms: C_15  and  O_16 
REMARK    5  A    between atoms: C_23  and  C_24 
REMARK    6  A    between atoms: C_24  and  C_25 
ROOT
HETATM    1  C   UNL     1      -3.073  11.530  24.509  0.00  0.00     0.066 C 
HETATM    2  C   UNL     1      -1.709  11.143  24.656  0.00  0.00     0.035 C 
HETATM    3  C   UNL     1      -3.936  11.166  25.549  0.00  0.00     0.083 C 
HETATM    4  C   UNL     1      -3.485  10.634  26.771  0.00  0.00     0.069 C 
HETATM    5  C   UNL     1      -2.135  10.303  26.867  0.00  0.00     0.065 A 
HETATM    6  C   UNL     1      -1.242  10.485  25.822  0.00  0.00     0.020 A 
HETATM    7  N   UNL     1      -1.415   9.718  27.872  0.00  0.00    -0.277 N 
HETATM    8  H   UNL     1      -1.737   9.466  28.798  0.00  0.00     0.189 HD
HETATM    9  N   UNL     1      -0.179   9.369  27.518  0.00  0.00    -0.178 NA
HETATM   10  C   UNL     1      -0.049   9.820  26.258  0.00  0.00     0.071 A 
ENDROOT
BRANCH   1  11
HETATM   11  C   UNL     1      -3.421  12.171  23.176  0.00  0.00     0.256 C 
HETATM   12  N   UNL     1      -3.878  13.491  22.980  0.00  0.00    -0.348 N 
HETATM   13  C   UNL     1      -4.288  14.416  24.019  0.00  0.00     0.153 C 
HETATM   14  O   UNL     1      -3.236  11.450  22.189  0.00  0.00    -0.267 OA
BRANCH  12  15
HETATM   15  C   UNL     1      -4.226  13.911  21.615  0.00  0.00     0.164 C 
BRANCH  15  16
HETATM   16  C   UNL     1      -3.251  14.875  20.951  0.00  0.00    -0.040 A 
HETATM   17  C   UNL     1      -1.886  14.857  21.294  0.00  0.00     0.010 A 
HETATM   18  C   UNL     1      -1.022  15.871  20.858  0.00  0.00     0.024 A 
HETATM   19  C   UNL     1      -1.519  16.914  20.080  0.00  0.00     0.034 A 
HETATM   20 CL   UNL     1      -0.486  18.220  19.639  0.00  0.00    -0.084 Cl
HETATM   21  C   UNL     1      -2.855  16.920  19.689  0.00  0.00     0.024 A 
HETATM   22  C   UNL     1      -3.717  15.906  20.121  0.00  0.00     0.010 A 
ENDBRANCH  15  16
ENDBRANCH  12  15
ENDBRANCH   1  11
BRANCH   3  23
HETATM   23  O   UNL     1      -5.295  11.176  25.427  0.00  0.00    -0.360 OA
HETATM   24  H   UNL     1      -5.635  10.636  26.165  0.00  0.00     0.217 HD
ENDBRANCH   3  23
BRANCH  10  25
HETATM   25  C   UNL     1       1.145   9.427  25.451  0.00  0.00     0.100 C 
BRANCH  25  26
HETATM   26  C   UNL     1       1.084   7.948  25.177  0.00  0.00    -0.052 A 
HETATM   27  C   UNL     1       0.036   7.396  24.425  0.00  0.00     0.007 A 
HETATM   28  C   UNL     1       0.049   6.045  24.073  0.00  0.00     0.001 A 
HETATM   29  C   UNL     1       1.096   5.225  24.491  0.00  0.00     0.007 A 
HETATM   30  C   UNL     1       2.126   5.744  25.282  0.00  0.00    -0.061 A 
HETATM   31  C   UNL     1       2.118   7.106  25.611  0.00  0.00     0.014 A 
HETATM   32  C   UNL     1       3.227   4.869  25.800  0.00  0.00     0.048 C 
ENDBRANCH  25  26
ENDBRANCH  10  25
TORSDOF 6
ENDMDL
MODEL 9
REMARK VINA RESULT:    -8.445      3.671      6.568
REMARK INTER + INTRA:         -12.124
REMARK INTER:                 -11.161
REMARK INTRA:                  -0.963
REMARK UNBOUND:                -0.963
REMARK  6 active torsions:
REMARK  status: ('A' for Active; 'I' for Inactive)
REMARK    1  A    between atoms: C_7  and  C_8 
REMARK    2  A    between atoms: C_8  and  N_9 
REMARK       I    between atoms: N_9  and  C_11 
REMARK    3  A    between atoms: C_11  and  C_13 
REMARK    4  A    between atoms: C_15  and  O_16 
REMARK    5  A    between atoms: C_23  and  C_24 
REMARK    6  A    between atoms: C_24  and  C_25 
ROOT
HETATM    1  C   UNL     1      -0.374   9.893  25.114  0.00  0.00     0.066 C 
HETATM    2  C   UNL     1      -0.625  10.326  23.779  0.00  0.00     0.035 C 
HETATM    3  C   UNL     1      -1.399  10.117  26.041  0.00  0.00     0.083 C 
HETATM    4  C   UNL     1      -2.685  10.550  25.674  0.00  0.00     0.069 C 
HETATM    5  C   UNL     1      -2.880  10.930  24.348  0.00  0.00     0.065 A 
HETATM    6  C   UNL     1      -1.869  10.889  23.399  0.00  0.00     0.020 A 
HETATM    7  N   UNL     1      -3.970  11.448  23.705  0.00  0.00    -0.277 N 
HETATM    8  H   UNL     1      -4.898  11.596  24.081  0.00  0.00     0.189 HD
HETATM    9  N   UNL     1      -3.713  11.885  22.472  0.00  0.00    -0.178 NA
HETATM   10  C   UNL     1      -2.425  11.562  22.263  0.00  0.00     0.071 A 
ENDROOT
BRANCH   1  11
HETATM   11  C   UNL     1       1.029   9.367  25.368  0.00  0.00     0.256 C 
HETATM   12  N   UNL     1       1.400   8.013  25.496  0.00  0.00    -0.348 N 
HETATM   13  C   UNL     1       0.495   6.885  25.605  0.00  0.00     0.153 C 
HETATM   14  O   UNL     1       1.908  10.235  25.423  0.00  0.00    -0.267 OA
BRANCH  12  15
HETATM   15  C   UNL     1       2.804   7.703  25.806  0.00  0.00     0.164 C 
BRANCH  15  16
HETATM   16  C   UNL     1       3.692   7.390  24.609  0.00  0.00    -0.040 A 
HETATM   17  C   UNL     1       5.092   7.346  24.751  0.00  0.00     0.010 A 
HETATM   18  C   UNL     1       5.927   7.274  23.628  0.00  0.00     0.024 A 
HETATM   19  C   UNL     1       5.368   7.251  22.353  0.00  0.00     0.034 A 
HETATM   20 CL   UNL     1       6.394   7.279  20.969  0.00  0.00    -0.084 Cl
HETATM   21  C   UNL     1       3.985   7.242  22.195  0.00  0.00     0.024 A 
HETATM   22  C   UNL     1       3.151   7.310  23.317  0.00  0.00     0.010 A 
ENDBRANCH  15  16
ENDBRANCH  12  15
ENDBRANCH   1  11
BRANCH   3  23
HETATM   23  O   UNL     1      -1.207  10.058  27.391  0.00  0.00    -0.360 OA
HETATM   24  H   UNL     1      -0.288   9.756  27.519  0.00  0.00     0.217 HD
ENDBRANCH   3  23
BRANCH  10  25
HETATM   25  C   UNL     1      -1.719  12.084  21.053  0.00  0.00     0.100 C 
BRANCH  25  26
HETATM   26  C   UNL     1      -1.663  13.587  21.132  0.00  0.00    -0.052 A 
HETATM   27  C   UNL     1      -0.608  14.236  21.790  0.00  0.00     0.007 A 
HETATM   28  C   UNL     1      -0.498  15.628  21.754  0.00  0.00     0.001 A 
HETATM   29  C   UNL     1      -1.457  16.387  21.083  0.00  0.00     0.007 A 
HETATM   30  C   UNL     1      -2.542  15.762  20.461  0.00  0.00    -0.061 A 
HETATM   31  C   UNL     1      -2.632  14.364  20.481  0.00  0.00     0.014 A 
HETATM   32  C   UNL     1      -3.621  16.559  19.792  0.00  0.00     0.048 C 
ENDBRANCH  25  26
ENDBRANCH  10  25
TORSDOF 6
ENDMDL
