REMARK  6 active torsions:
REMARK  status: ('A' for Active; 'I' for Inactive)
REMARK    1  A    between atoms: C_7  and  C_8 
REMARK    2  A    between atoms: C_8  and  N_9 
REMARK       I    between atoms: N_9  and  C_11 
REMARK    3  A    between atoms: C_11  and  C_13 
REMARK    4  A    between atoms: C_15  and  O_16 
REMARK    5  A    between atoms: C_23  and  C_24 
REMARK    6  A    between atoms: C_24  and  C_25 
ROOT
HETATM    1  C   UNL     1      -5.283   3.031   0.131  0.00  0.00     0.066 C 
HETATM    2  C   UNL     1      -6.698   3.079   0.300  0.00  0.00     0.035 C 
HETATM    3  C   UNL     1      -4.659   4.237  -0.208  0.00  0.00     0.083 C 
HETATM    4  C   UNL     1      -5.322   5.477  -0.191  0.00  0.00     0.069 C 
HETATM    5  C   UNL     1      -6.701   5.464   0.010  0.00  0.00     0.065 A 
HETATM    6  C   UNL     1      -7.421   4.294   0.196  0.00  0.00     0.020 A 
HETATM    7  N   UNL     1      -7.625   6.472   0.014  0.00  0.00    -0.277 N 
HETATM    8  H   UNL     1      -7.456   7.467  -0.068  0.00  0.00     0.189 HD
HETATM    9  N   UNL     1      -8.888   6.047   0.034  0.00  0.00    -0.178 NA
HETATM   10  C   UNL     1      -8.791   4.710   0.136  0.00  0.00     0.071 A 
ENDROOT
BRANCH   1  11
HETATM   11  C   UNL     1      -4.670   1.643   0.216  0.00  0.00     0.256 C 
HETATM   12  N   UNL     1      -3.329   1.343   0.533  0.00  0.00    -0.348 N 
HETATM   13  C   UNL     1      -2.243   2.297   0.643  0.00  0.00     0.153 C 
HETATM   14  O   UNL     1      -5.461   0.713   0.022  0.00  0.00    -0.267 OA
BRANCH  12  15
HETATM   15  C   UNL     1      -2.906  -0.065   0.502  0.00  0.00     0.164 C 
BRANCH  15  16
HETATM   16  C   UNL     1      -2.649  -0.708   1.859  0.00  0.00    -0.040 A 
HETATM   17  C   UNL     1      -1.425  -1.351   2.123  0.00  0.00     0.010 A 
HETATM   18  C   UNL     1      -1.255  -2.128   3.277  0.00  0.00     0.024 A 
HETATM   19  C   UNL     1      -2.311  -2.271   4.174  0.00  0.00     0.034 A 
HETATM   20 CL   UNL     1      -2.143  -3.316   5.533  0.00  0.00    -0.084 Cl
HETATM   21  C   UNL     1      -3.511  -1.600   3.955  0.00  0.00     0.024 A 
HETATM   22  C   UNL     1      -3.679  -0.822   2.804  0.00  0.00     0.010 A 
ENDBRANCH  15  16
ENDBRANCH  12  15
ENDBRANCH   1  11
BRANCH   3  23
HETATM   23  O   UNL     1      -3.390   4.304  -0.707  0.00  0.00    -0.360 OA
HETATM   24  H   UNL     1      -3.484   4.536  -1.650  0.00  0.00     0.217 HD
ENDBRANCH   3  23
BRANCH  10  25
HETATM   25  C   UNL     1     -10.014   3.866  -0.023  0.00  0.00     0.100 C 
BRANCH  25  26
HETATM   26  C   UNL     1     -10.680   3.714   1.319  0.00  0.00    -0.052 A 
HETATM   27  C   UNL     1     -11.711   4.579   1.715  0.00  0.00     0.007 A 
HETATM   28  C   UNL     1     -12.405   4.358   2.906  0.00  0.00     0.001 A 
HETATM   29  C   UNL     1     -12.058   3.286   3.728  0.00  0.00     0.007 A 
HETATM   30  C   UNL     1     -11.002   2.440   3.375  0.00  0.00    -0.061 A 
HETATM   31  C   UNL     1     -10.326   2.654   2.166  0.00  0.00     0.014 A 
HETATM   32  C   UNL     1     -10.566   1.322   4.273  0.00  0.00     0.048 C 
ENDBRANCH  25  26
ENDBRANCH  10  25
TORSDOF 6
