MODEL 1
REMARK VINA RESULT:    -7.725      0.000      0.000
REMARK INTER + INTRA:          -9.770
REMARK INTER:                  -9.024
REMARK INTRA:                  -0.746
REMARK UNBOUND:                -0.915
REMARK  3 active torsions:
REMARK  status: ('A' for Active; 'I' for Inactive)
REMARK    1  A    between atoms: C_9  and  C_13 
REMARK    2  A    between atoms: C_10  and  O_12 
REMARK    3  A    between atoms: N_17  and  C_18 
ROOT
HETATM    1  N   UNL     1       0.102   5.332  28.944  0.00  0.00    -0.277 N 
HETATM    2  H   UNL     1      -0.025   4.328  28.934  0.00  0.00     0.189 HD
HETATM    3  N   UNL     1       0.370   5.930  30.121  0.00  0.00    -0.179 NA
HETATM    4  C   UNL     1       0.474   7.226  29.802  0.00  0.00     0.063 A 
HETATM    5  C   UNL     1       0.664   8.257  30.855  0.00  0.00     0.073 C 
HETATM    6  C   UNL     1       0.289   7.446  28.411  0.00  0.00     0.019 A 
HETATM    7  C   UNL     1      -0.010   6.199  27.890  0.00  0.00     0.065 A 
HETATM    8  C   UNL     1       0.297   8.561  27.554  0.00  0.00     0.032 C 
HETATM    9  C   UNL     1      -0.178   8.450  26.235  0.00  0.00     0.026 C 
HETATM   10  C   UNL     1      -0.475   7.157  25.757  0.00  0.00     0.080 C 
HETATM   11  C   UNL     1      -0.348   6.007  26.550  0.00  0.00     0.069 C 
ENDROOT
BRANCH   9  12
HETATM   12  C   UNL     1      -0.366   9.674  25.424  0.00  0.00     0.068 A 
HETATM   13  C   UNL     1      -1.515  10.417  25.195  0.00  0.00     0.053 A 
HETATM   14  C   UNL     1      -1.124  11.513  24.413  0.00  0.00     0.141 A 
HETATM   15  N   UNL     1       0.174  11.494  24.131  0.00  0.00    -0.183 NA
HETATM   16  N   UNL     1       0.645  10.388  24.766  0.00  0.00    -0.257 N 
BRANCH  16  17
HETATM   17  C   UNL     1       2.106  10.149  24.824  0.00  0.00     0.155 A 
HETATM   18  C   UNL     1       2.550   8.785  24.322  0.00  0.00     0.000 A 
HETATM   19  C   UNL     1       3.568   8.612  23.461  0.00  0.00    -0.025 A 
HETATM   20  C   UNL     1       4.337   9.753  22.853  0.00  0.00     0.054 A 
HETATM   21  C   UNL     1       3.864  11.109  23.300  0.00  0.00    -0.025 A 
HETATM   22  C   UNL     1       2.868  11.288  24.180  0.00  0.00     0.000 A 
ENDBRANCH  16  17
ENDBRANCH   9  12
BRANCH  10  23
HETATM   23  O   UNL     1      -0.952   6.914  24.495  0.00  0.00    -0.360 OA
HETATM   24  H   UNL     1      -1.758   7.441  24.372  0.00  0.00     0.217 HD
ENDBRANCH  10  23
TORSDOF 3
ENDMDL
MODEL 2
REMARK VINA RESULT:    -7.289      4.424      6.858
REMARK INTER + INTRA:          -9.270
REMARK INTER:                  -8.416
REMARK INTRA:                  -0.854
REMARK UNBOUND:                -0.915
REMARK  3 active torsions:
REMARK  status: ('A' for Active; 'I' for Inactive)
REMARK    1  A    between atoms: C_9  and  C_13 
REMARK    2  A    between atoms: C_10  and  O_12 
REMARK    3  A    between atoms: N_17  and  C_18 
ROOT
HETATM    1  N   UNL     1       1.943   8.251  25.350  0.00  0.00    -0.277 N 
HETATM    2  H   UNL     1       1.473   7.587  25.952  0.00  0.00     0.189 HD
HETATM    3  N   UNL     1       1.726   9.565  25.554  0.00  0.00    -0.179 NA
HETATM    4  C   UNL     1       2.469  10.159  24.614  0.00  0.00     0.063 A 
HETATM    5  C   UNL     1       2.427  11.633  24.427  0.00  0.00     0.073 C 
HETATM    6  C   UNL     1       3.178   9.216  23.822  0.00  0.00     0.019 A 
HETATM    7  C   UNL     1       2.766   7.979  24.290  0.00  0.00     0.065 A 
HETATM    8  C   UNL     1       4.077   9.275  22.743  0.00  0.00     0.032 C 
HETATM    9  C   UNL     1       4.403   8.111  22.022  0.00  0.00     0.026 C 
HETATM   10  C   UNL     1       3.952   6.879  22.538  0.00  0.00     0.080 C 
HETATM   11  C   UNL     1       3.175   6.782  23.703  0.00  0.00     0.069 C 
ENDROOT
BRANCH   9  12
HETATM   12  C   UNL     1       5.172   8.227  20.763  0.00  0.00     0.068 A 
HETATM   13  C   UNL     1       6.529   8.440  20.571  0.00  0.00     0.053 A 
HETATM   14  C   UNL     1       6.741   8.398  19.186  0.00  0.00     0.141 A 
HETATM   15  N   UNL     1       5.617   8.189  18.511  0.00  0.00    -0.183 NA
HETATM   16  N   UNL     1       4.662   8.059  19.469  0.00  0.00    -0.257 N 
BRANCH  16  17
HETATM   17  C   UNL     1       3.298   7.631  19.083  0.00  0.00     0.155 A 
HETATM   18  C   UNL     1       2.476   8.687  18.362  0.00  0.00     0.000 A 
HETATM   19  C   UNL     1       1.788   8.442  17.234  0.00  0.00    -0.025 A 
HETATM   20  C   UNL     1       1.807   7.115  16.527  0.00  0.00     0.054 A 
HETATM   21  C   UNL     1       2.666   6.081  17.202  0.00  0.00    -0.025 A 
HETATM   22  C   UNL     1       3.332   6.310  18.344  0.00  0.00     0.000 A 
ENDBRANCH  16  17
ENDBRANCH   9  12
BRANCH  10  23
HETATM   23  O   UNL     1       4.196   5.675  21.929  0.00  0.00    -0.360 OA
HETATM   24  H   UNL     1       3.512   5.049  22.217  0.00  0.00     0.217 HD
ENDBRANCH  10  23
TORSDOF 3
ENDMDL
MODEL 3
REMARK VINA RESULT:    -7.223      5.102      8.181
REMARK INTER + INTRA:          -9.194
REMARK INTER:                  -8.263
REMARK INTRA:                  -0.931
REMARK UNBOUND:                -0.915
REMARK  3 active torsions:
REMARK  status: ('A' for Active; 'I' for Inactive)
REMARK    1  A    between atoms: C_9  and  C_13 
REMARK    2  A    between atoms: C_10  and  O_12 
REMARK    3  A    between atoms: N_17  and  C_18 
ROOT
HETATM    1  N   UNL     1       0.693   7.085  16.991  0.00  0.00    -0.277 N 
HETATM    2  H   UNL     1       0.515   7.669  16.183  0.00  0.00     0.189 HD
HETATM    3  N   UNL     1      -0.240   6.178  17.342  0.00  0.00    -0.179 NA
HETATM    4  C   UNL     1       0.281   5.589  18.423  0.00  0.00     0.063 A 
HETATM    5  C   UNL     1      -0.496   4.582  19.192  0.00  0.00     0.073 C 
HETATM    6  C   UNL     1       1.561   6.112  18.749  0.00  0.00     0.019 A 
HETATM    7  C   UNL     1       1.773   7.127  17.830  0.00  0.00     0.065 A 
HETATM    8  C   UNL     1       2.531   5.870  19.737  0.00  0.00     0.032 C 
HETATM    9  C   UNL     1       3.605   6.762  19.917  0.00  0.00     0.026 C 
HETATM   10  C   UNL     1       3.770   7.781  18.957  0.00  0.00     0.080 C 
HETATM   11  C   UNL     1       2.897   7.953  17.872  0.00  0.00     0.069 C 
ENDROOT
BRANCH   9  12
HETATM   12  C   UNL     1       4.486   6.611  21.096  0.00  0.00     0.068 A 
HETATM   13  C   UNL     1       5.613   5.819  21.263  0.00  0.00     0.053 A 
HETATM   14  C   UNL     1       6.106   6.104  22.544  0.00  0.00     0.141 A 
HETATM   15  N   UNL     1       5.362   7.000  23.183  0.00  0.00    -0.183 NA
HETATM   16  N   UNL     1       4.387   7.330  22.295  0.00  0.00    -0.257 N 
BRANCH  16  17
HETATM   17  C   UNL     1       3.472   8.452  22.603  0.00  0.00     0.155 A 
HETATM   18  C   UNL     1       2.880   8.428  24.003  0.00  0.00     0.000 A 
HETATM   19  C   UNL     1       2.854   9.502  24.810  0.00  0.00    -0.025 A 
HETATM   20  C   UNL     1       3.463  10.828  24.442  0.00  0.00     0.054 A 
HETATM   21  C   UNL     1       4.103  10.842  23.081  0.00  0.00    -0.025 A 
HETATM   22  C   UNL     1       4.107   9.782  22.257  0.00  0.00     0.000 A 
ENDBRANCH  16  17
ENDBRANCH   9  12
BRANCH  10  23
HETATM   23  O   UNL     1       4.770   8.717  19.020  0.00  0.00    -0.360 OA
HETATM   24  H   UNL     1       4.622   9.363  18.311  0.00  0.00     0.217 HD
ENDBRANCH  10  23
TORSDOF 3
ENDMDL
MODEL 4
REMARK VINA RESULT:    -7.218      6.663      9.275
REMARK INTER + INTRA:          -9.188
REMARK INTER:                  -7.965
REMARK INTRA:                  -1.223
REMARK UNBOUND:                -0.915
REMARK  3 active torsions:
REMARK  status: ('A' for Active; 'I' for Inactive)
REMARK    1  A    between atoms: C_9  and  C_13 
REMARK    2  A    between atoms: C_10  and  O_12 
REMARK    3  A    between atoms: N_17  and  C_18 
ROOT
HETATM    1  N   UNL     1       4.321   9.032  21.004  0.00  0.00    -0.277 N 
HETATM    2  H   UNL     1       4.631   9.957  20.734  0.00  0.00     0.189 HD
HETATM    3  N   UNL     1       3.969   8.826  22.287  0.00  0.00    -0.179 NA
HETATM    4  C   UNL     1       3.622   7.534  22.318  0.00  0.00     0.063 A 
HETATM    5  C   UNL     1       3.264   6.870  23.598  0.00  0.00     0.073 C 
HETATM    6  C   UNL     1       3.738   6.923  21.040  0.00  0.00     0.019 A 
HETATM    7  C   UNL     1       4.252   7.913  20.219  0.00  0.00     0.065 A 
HETATM    8  C   UNL     1       3.507   5.643  20.507  0.00  0.00     0.032 C 
HETATM    9  C   UNL     1       3.970   5.312  19.220  0.00  0.00     0.026 C 
HETATM   10  C   UNL     1       4.492   6.356  18.429  0.00  0.00     0.080 C 
HETATM   11  C   UNL     1       4.595   7.678  18.887  0.00  0.00     0.069 C 
ENDROOT
BRANCH   9  12
HETATM   12  C   UNL     1       3.913   3.904  18.767  0.00  0.00     0.068 A 
HETATM   13  C   UNL     1       4.786   2.856  19.020  0.00  0.00     0.053 A 
HETATM   14  C   UNL     1       4.229   1.725  18.409  0.00  0.00     0.141 A 
HETATM   15  N   UNL     1       3.088   1.999  17.787  0.00  0.00    -0.183 NA
HETATM   16  N   UNL     1       2.879   3.321  18.023  0.00  0.00    -0.257 N 
BRANCH  16  17
HETATM   17  C   UNL     1       1.590   3.936  17.629  0.00  0.00     0.155 A 
HETATM   18  C   UNL     1       0.731   4.417  18.787  0.00  0.00     0.000 A 
HETATM   19  C   UNL     1       0.152   5.629  18.820  0.00  0.00    -0.025 A 
HETATM   20  C   UNL     1       0.341   6.665  17.745  0.00  0.00     0.054 A 
HETATM   21  C   UNL     1       1.238   6.216  16.624  0.00  0.00    -0.025 A 
HETATM   22  C   UNL     1       1.797   4.998  16.570  0.00  0.00     0.000 A 
ENDBRANCH  16  17
ENDBRANCH   9  12
BRANCH  10  23
HETATM   23  O   UNL     1       4.982   6.165  17.162  0.00  0.00    -0.360 OA
HETATM   24  H   UNL     1       5.116   7.038  16.759  0.00  0.00     0.217 HD
ENDBRANCH  10  23
TORSDOF 3
ENDMDL
MODEL 5
REMARK VINA RESULT:    -6.933      1.560      2.229
REMARK INTER + INTRA:          -8.861
REMARK INTER:                  -8.005
REMARK INTRA:                  -0.856
REMARK UNBOUND:                -0.915
REMARK  3 active torsions:
REMARK  status: ('A' for Active; 'I' for Inactive)
REMARK    1  A    between atoms: C_9  and  C_13 
REMARK    2  A    between atoms: C_10  and  O_12 
REMARK    3  A    between atoms: N_17  and  C_18 
ROOT
HETATM    1  N   UNL     1       0.477   6.906  30.279  0.00  0.00    -0.277 N 
HETATM    2  H   UNL     1       0.526   7.008  31.284  0.00  0.00     0.189 HD
HETATM    3  N   UNL     1       0.916   5.756  29.731  0.00  0.00    -0.179 NA
HETATM    4  C   UNL     1       0.726   5.936  28.419  0.00  0.00     0.063 A 
HETATM    5  C   UNL     1       1.187   4.922  27.436  0.00  0.00     0.073 C 
HETATM    6  C   UNL     1       0.144   7.201  28.136  0.00  0.00     0.019 A 
HETATM    7  C   UNL     1       0.050   7.832  29.365  0.00  0.00     0.065 A 
HETATM    8  C   UNL     1      -0.266   7.889  26.980  0.00  0.00     0.032 C 
HETATM    9  C   UNL     1      -0.582   9.259  27.040  0.00  0.00     0.026 C 
HETATM   10  C   UNL     1      -0.657   9.853  28.316  0.00  0.00     0.080 C 
HETATM   11  C   UNL     1      -0.397   9.146  29.501  0.00  0.00     0.069 C 
ENDROOT
BRANCH   9  12
HETATM   12  C   UNL     1      -0.797  10.012  25.784  0.00  0.00     0.068 A 
HETATM   13  C   UNL     1      -1.968  10.530  25.252  0.00  0.00     0.053 A 
HETATM   14  C   UNL     1      -1.601  11.207  24.081  0.00  0.00     0.141 A 
HETATM   15  N   UNL     1      -0.296  11.133  23.844  0.00  0.00    -0.183 NA
HETATM   16  N   UNL     1       0.202  10.426  24.892  0.00  0.00    -0.257 N 
BRANCH  16  17
HETATM   17  C   UNL     1       1.668  10.305  25.057  0.00  0.00     0.155 A 
HETATM   18  C   UNL     1       2.245   8.952  24.673  0.00  0.00     0.000 A 
HETATM   19  C   UNL     1       3.328   8.807  23.892  0.00  0.00    -0.025 A 
HETATM   20  C   UNL     1       4.052   9.966  23.260  0.00  0.00     0.054 A 
HETATM   21  C   UNL     1       3.451  11.305  23.588  0.00  0.00    -0.025 A 
HETATM   22  C   UNL     1       2.387  11.459  24.391  0.00  0.00     0.000 A 
ENDBRANCH  16  17
ENDBRANCH   9  12
BRANCH  10  23
HETATM   23  O   UNL     1      -0.949  11.179  28.512  0.00  0.00    -0.360 OA
HETATM   24  H   UNL     1      -1.313  11.531  27.683  0.00  0.00     0.217 HD
ENDBRANCH  10  23
TORSDOF 3
ENDMDL
MODEL 6
REMARK VINA RESULT:    -6.915      7.258      9.603
REMARK INTER + INTRA:          -8.841
REMARK INTER:                  -7.693
REMARK INTRA:                  -1.147
REMARK UNBOUND:                -0.915
REMARK  3 active torsions:
REMARK  status: ('A' for Active; 'I' for Inactive)
REMARK    1  A    between atoms: C_9  and  C_13 
REMARK    2  A    between atoms: C_10  and  O_12 
REMARK    3  A    between atoms: N_17  and  C_18 
ROOT
HETATM    1  N   UNL     1       0.256   6.424  16.823  0.00  0.00    -0.277 N 
HETATM    2  H   UNL     1      -0.612   6.916  16.651  0.00  0.00     0.189 HD
HETATM    3  N   UNL     1       0.326   5.119  16.496  0.00  0.00    -0.179 NA
HETATM    4  C   UNL     1       1.570   4.771  16.846  0.00  0.00     0.063 A 
HETATM    5  C   UNL     1       2.024   3.360  16.744  0.00  0.00     0.073 C 
HETATM    6  C   UNL     1       2.298   5.868  17.379  0.00  0.00     0.019 A 
HETATM    7  C   UNL     1       1.393   6.916  17.405  0.00  0.00     0.065 A 
HETATM    8  C   UNL     1       3.596   6.072  17.879  0.00  0.00     0.032 C 
HETATM    9  C   UNL     1       3.916   7.255  18.571  0.00  0.00     0.026 C 
HETATM   10  C   UNL     1       2.955   8.287  18.573  0.00  0.00     0.080 C 
HETATM   11  C   UNL     1       1.704   8.162  17.950  0.00  0.00     0.069 C 
ENDROOT
BRANCH   9  12
HETATM   12  C   UNL     1       5.214   7.357  19.276  0.00  0.00     0.068 A 
HETATM   13  C   UNL     1       6.260   8.247  19.080  0.00  0.00     0.053 A 
HETATM   14  C   UNL     1       7.218   7.948  20.059  0.00  0.00     0.141 A 
HETATM   15  N   UNL     1       6.848   6.933  20.832  0.00  0.00    -0.183 NA
HETATM   16  N   UNL     1       5.616   6.586  20.375  0.00  0.00    -0.257 N 
BRANCH  16  17
HETATM   17  C   UNL     1       4.812   5.598  21.129  0.00  0.00     0.155 A 
HETATM   18  C   UNL     1       3.389   6.034  21.439  0.00  0.00     0.000 A 
HETATM   19  C   UNL     1       2.316   5.251  21.230  0.00  0.00    -0.025 A 
HETATM   20  C   UNL     1       2.401   3.884  20.609  0.00  0.00     0.054 A 
HETATM   21  C   UNL     1       3.800   3.469  20.246  0.00  0.00    -0.025 A 
HETATM   22  C   UNL     1       4.878   4.233  20.478  0.00  0.00     0.000 A 
ENDBRANCH  16  17
ENDBRANCH   9  12
BRANCH  10  23
HETATM   23  O   UNL     1       3.140   9.484  19.216  0.00  0.00    -0.360 OA
HETATM   24  H   UNL     1       4.044   9.497  19.571  0.00  0.00     0.217 HD
ENDBRANCH  10  23
TORSDOF 3
ENDMDL
MODEL 7
REMARK VINA RESULT:    -6.870      5.140      7.220
REMARK INTER + INTRA:          -8.789
REMARK INTER:                  -7.898
REMARK INTRA:                  -0.891
REMARK UNBOUND:                -0.915
REMARK  3 active torsions:
REMARK  status: ('A' for Active; 'I' for Inactive)
REMARK    1  A    between atoms: C_9  and  C_13 
REMARK    2  A    between atoms: C_10  and  O_12 
REMARK    3  A    between atoms: N_17  and  C_18 
ROOT
HETATM    1  N   UNL     1       3.079   4.541  25.210  0.00  0.00    -0.277 N 
HETATM    2  H   UNL     1       2.478   4.712  26.006  0.00  0.00     0.189 HD
HETATM    3  N   UNL     1       3.715   3.356  25.132  0.00  0.00    -0.179 NA
HETATM    4  C   UNL     1       4.417   3.446  23.997  0.00  0.00     0.063 A 
HETATM    5  C   UNL     1       5.354   2.367  23.592  0.00  0.00     0.073 C 
HETATM    6  C   UNL     1       4.209   4.690  23.341  0.00  0.00     0.019 A 
HETATM    7  C   UNL     1       3.378   5.403  24.189  0.00  0.00     0.065 A 
HETATM    8  C   UNL     1       4.665   5.298  22.159  0.00  0.00     0.032 C 
HETATM    9  C   UNL     1       4.446   6.669  21.931  0.00  0.00     0.026 C 
HETATM   10  C   UNL     1       3.598   7.349  22.829  0.00  0.00     0.080 C 
HETATM   11  C   UNL     1       3.007   6.724  23.938  0.00  0.00     0.069 C 
ENDROOT
BRANCH   9  12
HETATM   12  C   UNL     1       5.119   7.335  20.794  0.00  0.00     0.068 A 
HETATM   13  C   UNL     1       6.452   7.682  20.634  0.00  0.00     0.053 A 
HETATM   14  C   UNL     1       6.565   8.225  19.347  0.00  0.00     0.141 A 
HETATM   15  N   UNL     1       5.402   8.251  18.707  0.00  0.00    -0.183 NA
HETATM   16  N   UNL     1       4.522   7.686  19.576  0.00  0.00    -0.257 N 
BRANCH  16  17
HETATM   17  C   UNL     1       3.146   7.380  19.121  0.00  0.00     0.155 A 
HETATM   18  C   UNL     1       2.476   8.486  18.322  0.00  0.00     0.000 A 
HETATM   19  C   UNL     1       1.833   8.270  17.162  0.00  0.00    -0.025 A 
HETATM   20  C   UNL     1       1.759   6.923  16.496  0.00  0.00     0.054 A 
HETATM   21  C   UNL     1       2.470   5.835  17.253  0.00  0.00    -0.025 A 
HETATM   22  C   UNL     1       3.090   6.037  18.426  0.00  0.00     0.000 A 
ENDBRANCH  16  17
ENDBRANCH   9  12
BRANCH  10  23
HETATM   23  O   UNL     1       3.309   8.685  22.723  0.00  0.00    -0.360 OA
HETATM   24  H   UNL     1       2.952   8.845  21.835  0.00  0.00     0.217 HD
ENDBRANCH  10  23
TORSDOF 3
ENDMDL
MODEL 8
REMARK VINA RESULT:    -6.803      2.833      3.708
REMARK INTER + INTRA:          -8.712
REMARK INTER:                  -8.063
REMARK INTRA:                  -0.649
REMARK UNBOUND:                -0.915
REMARK  3 active torsions:
REMARK  status: ('A' for Active; 'I' for Inactive)
REMARK    1  A    between atoms: C_9  and  C_13 
REMARK    2  A    between atoms: C_10  and  O_12 
REMARK    3  A    between atoms: N_17  and  C_18 
ROOT
HETATM    1  N   UNL     1       3.619   5.375  25.477  0.00  0.00    -0.277 N 
HETATM    2  H   UNL     1       3.802   4.668  24.777  0.00  0.00     0.189 HD
HETATM    3  N   UNL     1       4.467   5.475  26.520  0.00  0.00    -0.179 NA
HETATM    4  C   UNL     1       3.957   6.474  27.249  0.00  0.00     0.063 A 
HETATM    5  C   UNL     1       4.548   6.839  28.562  0.00  0.00     0.073 C 
HETATM    6  C   UNL     1       2.788   7.023  26.654  0.00  0.00     0.019 A 
HETATM    7  C   UNL     1       2.563   6.244  25.531  0.00  0.00     0.065 A 
HETATM    8  C   UNL     1       1.883   8.052  26.966  0.00  0.00     0.032 C 
HETATM    9  C   UNL     1       0.667   8.169  26.268  0.00  0.00     0.026 C 
HETATM   10  C   UNL     1       0.486   7.347  25.137  0.00  0.00     0.080 C 
HETATM   11  C   UNL     1       1.444   6.412  24.715  0.00  0.00     0.069 C 
ENDROOT
BRANCH   9  12
HETATM   12  C   UNL     1      -0.362   9.115  26.753  0.00  0.00     0.068 A 
HETATM   13  C   UNL     1      -0.946   9.222  28.006  0.00  0.00     0.053 A 
HETATM   14  C   UNL     1      -1.807  10.326  27.945  0.00  0.00     0.141 A 
HETATM   15  N   UNL     1      -1.808  10.899  26.747  0.00  0.00    -0.183 NA
HETATM   16  N   UNL     1      -0.910  10.179  26.023  0.00  0.00    -0.257 N 
BRANCH  16  17
HETATM   17  C   UNL     1      -0.514  10.652  24.677  0.00  0.00     0.155 A 
HETATM   18  C   UNL     1      -1.671  10.925  23.729  0.00  0.00     0.000 A 
HETATM   19  C   UNL     1      -1.773  12.046  22.995  0.00  0.00    -0.025 A 
HETATM   20  C   UNL     1      -0.787  13.180  23.078  0.00  0.00     0.054 A 
HETATM   21  C   UNL     1       0.328  12.942  24.058  0.00  0.00    -0.025 A 
HETATM   22  C   UNL     1       0.453  11.813  24.773  0.00  0.00     0.000 A 
ENDBRANCH  16  17
ENDBRANCH   9  12
BRANCH  10  23
HETATM   23  O   UNL     1      -0.654   7.358  24.375  0.00  0.00    -0.360 OA
HETATM   24  H   UNL     1      -1.248   6.670  24.714  0.00  0.00     0.217 HD
ENDBRANCH  10  23
TORSDOF 3
ENDMDL
MODEL 9
REMARK VINA RESULT:    -6.593      5.972      9.074
REMARK INTER + INTRA:          -8.472
REMARK INTER:                  -7.557
REMARK INTRA:                  -0.915
REMARK UNBOUND:                -0.915
REMARK  3 active torsions:
REMARK  status: ('A' for Active; 'I' for Inactive)
REMARK    1  A    between atoms: C_9  and  C_13 
REMARK    2  A    between atoms: C_10  and  O_12 
REMARK    3  A    between atoms: N_17  and  C_18 
ROOT
HETATM    1  N   UNL     1       0.169   5.990  16.579  0.00  0.00    -0.277 N 
HETATM    2  H   UNL     1      -0.668   6.430  16.218  0.00  0.00     0.189 HD
HETATM    3  N   UNL     1       0.272   4.649  16.497  0.00  0.00    -0.179 NA
HETATM    4  C   UNL     1       1.460   4.388  17.054  0.00  0.00     0.063 A 
HETATM    5  C   UNL     1       1.915   2.988  17.258  0.00  0.00     0.073 C 
HETATM    6  C   UNL     1       2.122   5.573  17.474  0.00  0.00     0.019 A 
HETATM    7  C   UNL     1       1.227   6.594  17.203  0.00  0.00     0.065 A 
HETATM    8  C   UNL     1       3.349   5.883  18.087  0.00  0.00     0.032 C 
HETATM    9  C   UNL     1       3.586   7.173  18.597  0.00  0.00     0.026 C 
HETATM   10  C   UNL     1       2.638   8.173  18.299  0.00  0.00     0.080 C 
HETATM   11  C   UNL     1       1.474   7.921  17.557  0.00  0.00     0.069 C 
ENDROOT
BRANCH   9  12
HETATM   12  C   UNL     1       4.785   7.418  19.428  0.00  0.00     0.068 A 
HETATM   13  C   UNL     1       6.050   7.845  19.053  0.00  0.00     0.053 A 
HETATM   14  C   UNL     1       6.788   7.976  20.238  0.00  0.00     0.141 A 
HETATM   15  N   UNL     1       6.078   7.649  21.312  0.00  0.00    -0.183 NA
HETATM   16  N   UNL     1       4.849   7.332  20.825  0.00  0.00    -0.257 N 
BRANCH  16  17
HETATM   17  C   UNL     1       3.733   7.092  21.769  0.00  0.00     0.155 A 
HETATM   18  C   UNL     1       3.498   5.633  22.123  0.00  0.00     0.000 A 
HETATM   19  C   UNL     1       3.333   5.198  23.384  0.00  0.00    -0.025 A 
HETATM   20  C   UNL     1       3.425   6.098  24.586  0.00  0.00     0.054 A 
HETATM   21  C   UNL     1       3.715   7.534  24.247  0.00  0.00    -0.025 A 
HETATM   22  C   UNL     1       3.853   7.980  22.989  0.00  0.00     0.000 A 
ENDBRANCH  16  17
ENDBRANCH   9  12
BRANCH  10  23
HETATM   23  O   UNL     1       2.748   9.467  18.740  0.00  0.00    -0.360 OA
HETATM   24  H   UNL     1       3.664   9.609  19.027  0.00  0.00     0.217 HD
ENDBRANCH  10  23
TORSDOF 3
ENDMDL
