REMARK  4 active torsions:
REMARK  status: ('A' for Active; 'I' for Inactive)
REMARK    1  A    between atoms: C_7  and  N_8 
REMARK    2  A    between atoms: C_14  and  C_15 
REMARK    3  A    between atoms: C_18  and  O_19 
REMARK    4  A    between atoms: C_21  and  O_22 
ROOT
HETATM    1  N   UNL     1       2.566  -2.236  -0.209  0.00  0.00    -0.244 N 
HETATM    2  C   UNL     1       3.090  -3.509  -0.105  0.00  0.00     0.349 A 
HETATM    3  O   UNL     1       4.223  -3.868   0.174  0.00  0.00    -0.245 OA
HETATM    4  N   UNL     1       2.033  -4.365  -0.379  0.00  0.00    -0.226 N 
HETATM    5  H   UNL     1       2.072  -5.373  -0.400  0.00  0.00     0.194 HD
HETATM    6  N   UNL     1       0.927  -3.666  -0.734  0.00  0.00    -0.151 NA
HETATM    7  C   UNL     1       1.263  -2.405  -0.634  0.00  0.00     0.171 A 
ENDROOT
BRANCH   7   8
HETATM    8  C   UNL     1       0.328  -1.321  -1.077  0.00  0.00     0.045 A 
HETATM    9  C   UNL     1       0.794  -0.131  -1.658  0.00  0.00     0.021 A 
HETATM   10  C   UNL     1      -0.095   0.809  -2.203  0.00  0.00     0.037 A 
HETATM   11  C   UNL     1      -1.457   0.544  -2.207  0.00  0.00     0.068 A 
HETATM   12  C   UNL     1      -1.950  -0.631  -1.659  0.00  0.00     0.074 A 
HETATM   13  C   UNL     1      -1.065  -1.545  -1.075  0.00  0.00     0.082 A 
BRANCH  11  14
HETATM   14  O   UNL     1      -2.358   1.415  -2.742  0.00  0.00    -0.361 OA
HETATM   15  H   UNL     1      -1.917   2.267  -2.899  0.00  0.00     0.217 HD
ENDBRANCH  11  14
BRANCH  13  16
HETATM   16  O   UNL     1      -1.602  -2.655  -0.479  0.00  0.00    -0.360 OA
HETATM   17  H   UNL     1      -2.535  -2.743  -0.731  0.00  0.00     0.217 HD
ENDBRANCH  13  16
ENDBRANCH   7   8
BRANCH   1  18
HETATM   18  C   UNL     1       3.333  -1.077   0.005  0.00  0.00     0.051 A 
HETATM   19  C   UNL     1       2.964  -0.092   0.941  0.00  0.00    -0.035 A 
HETATM   20  C   UNL     1       1.956  -0.363   2.023  0.00  0.00     0.050 C 
HETATM   21  C   UNL     1       3.708   1.099   0.997  0.00  0.00     0.009 A 
HETATM   22  C   UNL     1       4.827   1.288   0.184  0.00  0.00     0.001 A 
HETATM   23  C   UNL     1       5.250   0.267  -0.659  0.00  0.00     0.002 A 
HETATM   24  C   UNL     1       4.512  -0.912  -0.743  0.00  0.00     0.031 A 
ENDBRANCH   1  18
TORSDOF 4
