MODEL 1
REMARK VINA RESULT:    -5.996      0.000      0.000
REMARK INTER + INTRA:          -8.816
REMARK INTER:                  -7.666
REMARK INTRA:                  -1.149
REMARK UNBOUND:                -1.067
REMARK  5 active torsions:
REMARK  status: ('A' for Active; 'I' for Inactive)
REMARK    1  A    between atoms: N8_1  and  C24_2 
REMARK    2  A    between atoms: N8_1  and  C7_8 
REMARK    3  A    between atoms: C2_13  and  N1_14 
REMARK    4  A    between atoms: N1_14  and  C17_15 
REMARK    5  A    between atoms: C14_16  and  C13_19 
ROOT
ATOM      1  C17 FTA A   1       3.799  18.125  19.487  1.00  0.00     0.142 C 
ATOM      2  C14 FTA A   1       3.457  19.235  20.170  1.00  0.00     0.158 C 
ATOM      3  C18 FTA A   1       3.539  20.533  19.536  1.00  0.00     0.069 C 
ATOM      4  N21 FTA A   1       3.709  21.515  18.918  1.00  0.00    -0.197 NA
ENDROOT
BRANCH   2   5
ATOM      5  C13 FTA A   1       2.983  19.112  21.568  1.00  0.00     0.197 A 
ATOM      6  N15 FTA A   1       3.173  20.045  22.585  1.00  0.00    -0.093 NA
ATOM      7  N19 FTA A   1       2.613  19.520  23.743  1.00  0.00    -0.231 N 
ATOM      8  N20 FTA A   1       2.077  18.271  23.463  1.00  0.00    -0.017 NA
ATOM      9  H15 FTA A   1       2.597  19.984  24.662  1.00  0.00     0.200 HD
ATOM     10  N16 FTA A   1       2.296  18.021  22.112  1.00  0.00    -0.090 NA
ENDBRANCH   2   5
BRANCH   1  11
ATOM     11  N1  FTA A   1       4.700  17.280  20.025  1.00  0.00    -0.389 N 
ATOM     12  H11 FTA A   1       4.395  16.313  20.209  1.00  0.00     0.159 HD
BRANCH  11  13
ATOM     13  C2  FTA A   1       6.039  17.621  20.358  1.00  0.00     0.028 A 
ATOM     14  C4  FTA A   1       7.048  17.687  19.400  1.00  0.00     0.031 A 
ATOM     15  C6  FTA A   1       8.380  17.800  19.821  1.00  0.00     0.031 A 
ATOM     16  C7  FTA A   1       8.729  17.845  21.168  1.00  0.00     0.032 A 
ATOM     17  C5  FTA A   1       7.714  17.803  22.107  1.00  0.00     0.031 A 
ATOM     18  C3  FTA A   1       6.388  17.678  21.711  1.00  0.00     0.031 A 
BRANCH  16  19
ATOM     19  N8  FTA A   1      10.070  17.747  21.619  1.00  0.00    -0.356 N 
ATOM     20  H1  FTA A   1      10.692  17.098  21.115  1.00  0.00     0.166 HD
BRANCH  19  21
ATOM     21  C24 FTA A   1      10.629  18.473  22.714  1.00  0.00     0.032 A 
ATOM     22  C26 FTA A   1      10.873  19.824  22.632  1.00  0.00     0.029 A 
ATOM     23  C28 FTA A   1      11.572  20.433  23.657  1.00  0.00     0.002 A 
ATOM     24  C30 FTA A   1      12.006  19.741  24.775  1.00  0.00     0.000 A 
ATOM     25  C29 FTA A   1      11.736  18.403  24.885  1.00  0.00     0.002 A 
ATOM     26  C27 FTA A   1      11.031  17.782  23.847  1.00  0.00     0.029 A 
ENDBRANCH  19  21
ENDBRANCH  16  19
ENDBRANCH  11  13
ENDBRANCH   1  11
TORSDOF 5
ENDMDL
MODEL 2
REMARK VINA RESULT:    -5.777      3.574      4.458
REMARK INTER + INTRA:          -8.533
REMARK INTER:                  -7.379
REMARK INTRA:                  -1.154
REMARK UNBOUND:                -1.067
REMARK  5 active torsions:
REMARK  status: ('A' for Active; 'I' for Inactive)
REMARK    1  A    between atoms: N8_1  and  C24_2 
REMARK    2  A    between atoms: N8_1  and  C7_8 
REMARK    3  A    between atoms: C2_13  and  N1_14 
REMARK    4  A    between atoms: N1_14  and  C17_15 
REMARK    5  A    between atoms: C14_16  and  C13_19 
ROOT
ATOM      1  C17 FTA A   1       3.380  20.178  21.000  1.00  0.00     0.142 C 
ATOM      2  C14 FTA A   1       3.942  20.175  22.225  1.00  0.00     0.158 C 
ATOM      3  C18 FTA A   1       5.224  20.812  22.438  1.00  0.00     0.069 C 
ATOM      4  N21 FTA A   1       6.284  21.312  22.450  1.00  0.00    -0.197 NA
ENDROOT
BRANCH   2   5
ATOM      5  C13 FTA A   1       3.230  19.528  23.351  1.00  0.00     0.197 A 
ATOM      6  N15 FTA A   1       3.475  19.737  24.707  1.00  0.00    -0.093 NA
ATOM      7  N19 FTA A   1       2.622  18.904  25.418  1.00  0.00    -0.231 N 
ATOM      8  N20 FTA A   1       1.849  18.174  24.527  1.00  0.00    -0.017 NA
ATOM      9  H15 FTA A   1       2.571  18.837  26.445  1.00  0.00     0.200 HD
ATOM     10  N16 FTA A   1       2.218  18.568  23.244  1.00  0.00    -0.090 NA
ENDBRANCH   2   5
BRANCH   1  11
ATOM     11  N1  FTA A   1       2.987  19.008  20.460  1.00  0.00    -0.389 N 
ATOM     12  H11 FTA A   1       1.989  18.761  20.533  1.00  0.00     0.159 HD
BRANCH  11  13
ATOM     13  C2  FTA A   1       3.844  18.087  19.799  1.00  0.00     0.028 A 
ATOM     14  C4  FTA A   1       4.638  17.180  20.497  1.00  0.00     0.031 A 
ATOM     15  C6  FTA A   1       5.624  16.465  19.803  1.00  0.00     0.031 A 
ATOM     16  C7  FTA A   1       5.837  16.633  18.438  1.00  0.00     0.032 A 
ATOM     17  C5  FTA A   1       5.024  17.519  17.754  1.00  0.00     0.031 A 
ATOM     18  C3  FTA A   1       4.050  18.248  18.426  1.00  0.00     0.031 A 
BRANCH  16  19
ATOM     19  N8  FTA A   1       6.956  16.083  17.760  1.00  0.00    -0.356 N 
ATOM     20  H1  FTA A   1       6.819  15.184  17.277  1.00  0.00     0.166 HD
BRANCH  19  21
ATOM     21  C24 FTA A   1       8.254  16.673  17.694  1.00  0.00     0.032 A 
ATOM     22  C26 FTA A   1       9.255  16.313  18.565  1.00  0.00     0.029 A 
ATOM     23  C28 FTA A   1      10.429  17.041  18.561  1.00  0.00     0.002 A 
ATOM     24  C30 FTA A   1      10.647  18.097  17.692  1.00  0.00     0.000 A 
ATOM     25  C29 FTA A   1       9.672  18.441  16.793  1.00  0.00     0.002 A 
ATOM     26  C27 FTA A   1       8.480  17.708  16.797  1.00  0.00     0.029 A 
ENDBRANCH  19  21
ENDBRANCH  16  19
ENDBRANCH  11  13
ENDBRANCH   1  11
TORSDOF 5
ENDMDL
MODEL 3
REMARK VINA RESULT:    -5.520      4.127      8.667
REMARK INTER + INTRA:          -8.200
REMARK INTER:                  -7.196
REMARK INTRA:                  -1.004
REMARK UNBOUND:                -1.067
REMARK  5 active torsions:
REMARK  status: ('A' for Active; 'I' for Inactive)
REMARK    1  A    between atoms: N8_1  and  C24_2 
REMARK    2  A    between atoms: N8_1  and  C7_8 
REMARK    3  A    between atoms: C2_13  and  N1_14 
REMARK    4  A    between atoms: N1_14  and  C17_15 
REMARK    5  A    between atoms: C14_16  and  C13_19 
ROOT
ATOM      1  C17 FTA A   1       3.631  20.377  20.408  1.00  0.00     0.142 C 
ATOM      2  C14 FTA A   1       4.241  19.851  21.489  1.00  0.00     0.158 C 
ATOM      3  C18 FTA A   1       5.686  19.796  21.554  1.00  0.00     0.069 C 
ATOM      4  N21 FTA A   1       6.852  19.765  21.444  1.00  0.00    -0.197 NA
ENDROOT
BRANCH   2   5
ATOM      5  C13 FTA A   1       3.421  19.344  22.613  1.00  0.00     0.197 A 
ATOM      6  N15 FTA A   1       3.574  19.676  23.957  1.00  0.00    -0.093 NA
ATOM      7  N19 FTA A   1       2.636  18.948  24.677  1.00  0.00    -0.231 N 
ATOM      8  N20 FTA A   1       1.900  18.163  23.802  1.00  0.00    -0.017 NA
ATOM      9  H15 FTA A   1       2.507  18.985  25.699  1.00  0.00     0.200 HD
ATOM     10  N16 FTA A   1       2.378  18.416  22.520  1.00  0.00    -0.090 NA
ENDBRANCH   2   5
BRANCH   1  11
ATOM     11  N1  FTA A   1       2.688  19.654  19.775  1.00  0.00    -0.389 N 
ATOM     12  H11 FTA A   1       1.792  19.507  20.264  1.00  0.00     0.159 HD
BRANCH  11  13
ATOM     13  C2  FTA A   1       2.833  19.076  18.484  1.00  0.00     0.028 A 
ATOM     14  C4  FTA A   1       2.130  19.548  17.378  1.00  0.00     0.031 A 
ATOM     15  C6  FTA A   1       2.141  18.796  16.195  1.00  0.00     0.031 A 
ATOM     16  C7  FTA A   1       2.831  17.591  16.090  1.00  0.00     0.032 A 
ATOM     17  C5  FTA A   1       3.544  17.149  17.190  1.00  0.00     0.031 A 
ATOM     18  C3  FTA A   1       3.535  17.872  18.376  1.00  0.00     0.031 A 
BRANCH  16  19
ATOM     19  N8  FTA A   1       2.687  16.716  14.983  1.00  0.00    -0.356 N 
ATOM     20  H1  FTA A   1       3.452  16.697  14.294  1.00  0.00     0.166 HD
BRANCH  19  21
ATOM     21  C24 FTA A   1       1.569  15.860  14.746  1.00  0.00     0.032 A 
ATOM     22  C26 FTA A   1       0.895  15.252  15.779  1.00  0.00     0.029 A 
ATOM     23  C28 FTA A   1      -0.064  14.303  15.477  1.00  0.00     0.002 A 
ATOM     24  C30 FTA A   1      -0.391  13.967  14.174  1.00  0.00     0.000 A 
ATOM     25  C29 FTA A   1       0.246  14.593  13.136  1.00  0.00     0.002 A 
ATOM     26  C27 FTA A   1       1.220  15.551  13.439  1.00  0.00     0.029 A 
ENDBRANCH  19  21
ENDBRANCH  16  19
ENDBRANCH  11  13
ENDBRANCH   1  11
TORSDOF 5
ENDMDL
MODEL 4
REMARK VINA RESULT:    -5.517      4.259      8.841
REMARK INTER + INTRA:          -8.197
REMARK INTER:                  -7.333
REMARK INTRA:                  -0.864
REMARK UNBOUND:                -1.067
REMARK  5 active torsions:
REMARK  status: ('A' for Active; 'I' for Inactive)
REMARK    1  A    between atoms: N8_1  and  C24_2 
REMARK    2  A    between atoms: N8_1  and  C7_8 
REMARK    3  A    between atoms: C2_13  and  N1_14 
REMARK    4  A    between atoms: N1_14  and  C17_15 
REMARK    5  A    between atoms: C14_16  and  C13_19 
ROOT
ATOM      1  C17 FTA A   1       4.297  19.952  20.046  1.00  0.00     0.142 C 
ATOM      2  C14 FTA A   1       4.595  19.100  21.047  1.00  0.00     0.158 C 
ATOM      3  C18 FTA A   1       5.826  18.339  21.012  1.00  0.00     0.069 C 
ATOM      4  N21 FTA A   1       6.822  17.750  20.824  1.00  0.00    -0.197 NA
ENDROOT
BRANCH   2   5
ATOM      5  C13 FTA A   1       3.661  18.961  22.188  1.00  0.00     0.197 A 
ATOM      6  N15 FTA A   1       3.784  19.579  23.430  1.00  0.00    -0.093 NA
ATOM      7  N19 FTA A   1       2.726  19.145  24.219  1.00  0.00    -0.231 N 
ATOM      8  N20 FTA A   1       1.945  18.262  23.487  1.00  0.00    -0.017 NA
ATOM      9  H15 FTA A   1       2.549  19.433  25.192  1.00  0.00     0.200 HD
ATOM     10  N16 FTA A   1       2.517  18.155  22.224  1.00  0.00    -0.090 NA
ENDBRANCH   2   5
BRANCH   1  11
ATOM     11  N1  FTA A   1       3.104  19.842  19.431  1.00  0.00    -0.389 N 
ATOM     12  H11 FTA A   1       2.343  20.456  19.756  1.00  0.00     0.159 HD
BRANCH  11  13
ATOM     13  C2  FTA A   1       2.814  18.945  18.367  1.00  0.00     0.028 A 
ATOM     14  C4  FTA A   1       3.343  17.657  18.319  1.00  0.00     0.031 A 
ATOM     15  C6  FTA A   1       3.208  16.910  17.141  1.00  0.00     0.031 A 
ATOM     16  C7  FTA A   1       2.565  17.416  16.014  1.00  0.00     0.032 A 
ATOM     17  C5  FTA A   1       2.023  18.687  16.086  1.00  0.00     0.031 A 
ATOM     18  C3  FTA A   1       2.158  19.448  17.241  1.00  0.00     0.031 A 
BRANCH  16  19
ATOM     19  N8  FTA A   1       2.599  16.768  14.753  1.00  0.00    -0.356 N 
ATOM     20  H1  FTA A   1       3.359  17.029  14.108  1.00  0.00     0.166 HD
BRANCH  19  21
ATOM     21  C24 FTA A   1       1.668  15.783  14.304  1.00  0.00     0.032 A 
ATOM     22  C26 FTA A   1       1.512  15.495  12.968  1.00  0.00     0.029 A 
ATOM     23  C28 FTA A   1       0.477  14.662  12.587  1.00  0.00     0.002 A 
ATOM     24  C30 FTA A   1      -0.385  14.082  13.502  1.00  0.00     0.000 A 
ATOM     25  C29 FTA A   1      -0.216  14.330  14.838  1.00  0.00     0.002 A 
ATOM     26  C27 FTA A   1       0.828  15.177  15.227  1.00  0.00     0.029 A 
ENDBRANCH  19  21
ENDBRANCH  16  19
ENDBRANCH  11  13
ENDBRANCH   1  11
TORSDOF 5
ENDMDL
MODEL 5
REMARK VINA RESULT:    -5.466      4.915     10.166
REMARK INTER + INTRA:          -8.131
REMARK INTER:                  -7.182
REMARK INTRA:                  -0.949
REMARK UNBOUND:                -1.067
REMARK  5 active torsions:
REMARK  status: ('A' for Active; 'I' for Inactive)
REMARK    1  A    between atoms: N8_1  and  C24_2 
REMARK    2  A    between atoms: N8_1  and  C7_8 
REMARK    3  A    between atoms: C2_13  and  N1_14 
REMARK    4  A    between atoms: N1_14  and  C17_15 
REMARK    5  A    between atoms: C14_16  and  C13_19 
ROOT
ATOM      1  C17 FTA A   1       5.998  16.959  18.989  1.00  0.00     0.142 C 
ATOM      2  C14 FTA A   1       7.067  17.373  19.697  1.00  0.00     0.158 C 
ATOM      3  C18 FTA A   1       6.885  18.013  20.982  1.00  0.00     0.069 C 
ATOM      4  N21 FTA A   1       6.585  18.563  21.973  1.00  0.00    -0.197 NA
ENDROOT
BRANCH   2   5
ATOM      5  C13 FTA A   1       8.428  17.154  19.156  1.00  0.00     0.197 A 
ATOM      6  N15 FTA A   1       8.816  16.129  18.296  1.00  0.00    -0.093 NA
ATOM      7  N19 FTA A   1      10.180  16.264  18.073  1.00  0.00    -0.231 N 
ATOM      8  N20 FTA A   1      10.651  17.358  18.784  1.00  0.00    -0.017 NA
ATOM      9  H15 FTA A   1      10.751  15.650  17.475  1.00  0.00     0.200 HD
ATOM     10  N16 FTA A   1       9.564  17.918  19.448  1.00  0.00    -0.090 NA
ENDBRANCH   2   5
BRANCH   1  11
ATOM     11  N1  FTA A   1       5.868  17.360  17.709  1.00  0.00    -0.389 N 
ATOM     12  H11 FTA A   1       6.653  17.882  17.293  1.00  0.00     0.159 HD
BRANCH  11  13
ATOM     13  C2  FTA A   1       4.732  17.118  16.890  1.00  0.00     0.028 A 
ATOM     14  C4  FTA A   1       4.704  17.464  15.541  1.00  0.00     0.031 A 
ATOM     15  C6  FTA A   1       3.485  17.412  14.852  1.00  0.00     0.031 A 
ATOM     16  C7  FTA A   1       2.299  17.029  15.473  1.00  0.00     0.032 A 
ATOM     17  C5  FTA A   1       2.348  16.665  16.806  1.00  0.00     0.031 A 
ATOM     18  C3  FTA A   1       3.544  16.722  17.511  1.00  0.00     0.031 A 
BRANCH  16  19
ATOM     19  N8  FTA A   1       1.028  17.169  14.858  1.00  0.00    -0.356 N 
ATOM     20  H1  FTA A   1       0.700  18.127  14.665  1.00  0.00     0.166 HD
BRANCH  19  21
ATOM     21  C24 FTA A   1       0.167  16.094  14.485  1.00  0.00     0.032 A 
ATOM     22  C26 FTA A   1       0.639  14.993  13.811  1.00  0.00     0.029 A 
ATOM     23  C28 FTA A   1      -0.270  14.071  13.329  1.00  0.00     0.002 A 
ATOM     24  C30 FTA A   1      -1.635  14.200  13.526  1.00  0.00     0.000 A 
ATOM     25  C29 FTA A   1      -2.115  15.272  14.230  1.00  0.00     0.002 A 
ATOM     26  C27 FTA A   1      -1.197  16.209  14.716  1.00  0.00     0.029 A 
ENDBRANCH  19  21
ENDBRANCH  16  19
ENDBRANCH  11  13
ENDBRANCH   1  11
TORSDOF 5
ENDMDL
MODEL 6
REMARK VINA RESULT:    -5.407      6.327     11.069
REMARK INTER + INTRA:          -8.054
REMARK INTER:                  -7.166
REMARK INTRA:                  -0.888
REMARK UNBOUND:                -1.067
REMARK  5 active torsions:
REMARK  status: ('A' for Active; 'I' for Inactive)
REMARK    1  A    between atoms: N8_1  and  C24_2 
REMARK    2  A    between atoms: N8_1  and  C7_8 
REMARK    3  A    between atoms: C2_13  and  N1_14 
REMARK    4  A    between atoms: N1_14  and  C17_15 
REMARK    5  A    between atoms: C14_16  and  C13_19 
ROOT
ATOM      1  C17 FTA A   1       3.811  17.498  17.256  1.00  0.00     0.142 C 
ATOM      2  C14 FTA A   1       4.593  17.328  18.341  1.00  0.00     0.158 C 
ATOM      3  C18 FTA A   1       5.904  16.730  18.206  1.00  0.00     0.069 C 
ATOM      4  N21 FTA A   1       6.911  16.184  17.956  1.00  0.00    -0.197 NA
ENDROOT
BRANCH   2   5
ATOM      5  C13 FTA A   1       4.105  17.771  19.667  1.00  0.00     0.197 A 
ATOM      6  N15 FTA A   1       4.638  17.409  20.902  1.00  0.00    -0.093 NA
ATOM      7  N19 FTA A   1       3.859  18.006  21.885  1.00  0.00    -0.231 N 
ATOM      8  N20 FTA A   1       2.844  18.734  21.281  1.00  0.00    -0.017 NA
ATOM      9  H15 FTA A   1       4.010  17.922  22.900  1.00  0.00     0.200 HD
ATOM     10  N16 FTA A   1       3.001  18.599  19.905  1.00  0.00    -0.090 NA
ENDBRANCH   2   5
BRANCH   1  11
ATOM     11  N1  FTA A   1       2.553  17.017  17.278  1.00  0.00    -0.389 N 
ATOM     12  H11 FTA A   1       1.947  17.304  18.060  1.00  0.00     0.159 HD
BRANCH  11  13
ATOM     13  C2  FTA A   1       1.998  16.144  16.303  1.00  0.00     0.028 A 
ATOM     14  C4  FTA A   1       2.042  16.429  14.941  1.00  0.00     0.031 A 
ATOM     15  C6  FTA A   1       1.281  15.651  14.058  1.00  0.00     0.031 A 
ATOM     16  C7  FTA A   1       0.479  14.602  14.499  1.00  0.00     0.032 A 
ATOM     17  C5  FTA A   1       0.465  14.315  15.853  1.00  0.00     0.031 A 
ATOM     18  C3  FTA A   1       1.202  15.083  16.746  1.00  0.00     0.031 A 
BRANCH  16  19
ATOM     19  N8  FTA A   1      -0.454  13.941  13.660  1.00  0.00    -0.356 N 
ATOM     20  H1  FTA A   1      -0.104  13.160  13.088  1.00  0.00     0.166 HD
BRANCH  19  21
ATOM     21  C24 FTA A   1      -1.839  14.270  13.544  1.00  0.00     0.032 A 
ATOM     22  C26 FTA A   1      -2.396  15.306  14.255  1.00  0.00     0.029 A 
ATOM     23  C28 FTA A   1      -3.769  15.463  14.231  1.00  0.00     0.002 A 
ATOM     24  C30 FTA A   1      -4.598  14.636  13.493  1.00  0.00     0.000 A 
ATOM     25  C29 FTA A   1      -4.052  13.623  12.750  1.00  0.00     0.002 A 
ATOM     26  C27 FTA A   1      -2.663  13.460  12.775  1.00  0.00     0.029 A 
ENDBRANCH  19  21
ENDBRANCH  16  19
ENDBRANCH  11  13
ENDBRANCH   1  11
TORSDOF 5
ENDMDL
MODEL 7
REMARK VINA RESULT:    -5.342      2.779      7.116
REMARK INTER + INTRA:          -7.970
REMARK INTER:                  -6.868
REMARK INTRA:                  -1.101
REMARK UNBOUND:                -1.067
REMARK  5 active torsions:
REMARK  status: ('A' for Active; 'I' for Inactive)
REMARK    1  A    between atoms: N8_1  and  C24_2 
REMARK    2  A    between atoms: N8_1  and  C7_8 
REMARK    3  A    between atoms: C2_13  and  N1_14 
REMARK    4  A    between atoms: N1_14  and  C17_15 
REMARK    5  A    between atoms: C14_16  and  C13_19 
ROOT
ATOM      1  C17 FTA A   1       8.143  18.200  19.879  1.00  0.00     0.142 C 
ATOM      2  C14 FTA A   1       9.447  17.997  20.151  1.00  0.00     0.158 C 
ATOM      3  C18 FTA A   1      10.395  17.812  19.074  1.00  0.00     0.069 C 
ATOM      4  N21 FTA A   1      11.034  17.622  18.109  1.00  0.00    -0.197 NA
ENDROOT
BRANCH   2   5
ATOM      5  C13 FTA A   1       9.902  17.980  21.560  1.00  0.00     0.197 A 
ATOM      6  N15 FTA A   1       9.752  16.927  22.460  1.00  0.00    -0.093 NA
ATOM      7  N19 FTA A   1      10.274  17.341  23.679  1.00  0.00    -0.231 N 
ATOM      8  N20 FTA A   1      10.746  18.639  23.554  1.00  0.00    -0.017 NA
ATOM      9  H15 FTA A   1      10.306  16.774  24.539  1.00  0.00     0.200 HD
ATOM     10  N16 FTA A   1      10.527  19.033  22.238  1.00  0.00    -0.090 NA
ENDBRANCH   2   5
BRANCH   1  11
ATOM     11  N1  FTA A   1       7.223  17.414  20.470  1.00  0.00    -0.389 N 
ATOM     12  H11 FTA A   1       7.324  16.395  20.355  1.00  0.00     0.159 HD
BRANCH  11  13
ATOM     13  C2  FTA A   1       6.125  17.882  21.242  1.00  0.00     0.028 A 
ATOM     14  C4  FTA A   1       4.807  17.558  20.928  1.00  0.00     0.031 A 
ATOM     15  C6  FTA A   1       3.767  18.233  21.581  1.00  0.00     0.031 A 
ATOM     16  C7  FTA A   1       4.008  19.220  22.533  1.00  0.00     0.032 A 
ATOM     17  C5  FTA A   1       5.322  19.513  22.851  1.00  0.00     0.031 A 
ATOM     18  C3  FTA A   1       6.368  18.865  22.205  1.00  0.00     0.031 A 
BRANCH  16  19
ATOM     19  N8  FTA A   1       2.986  20.057  23.050  1.00  0.00    -0.356 N 
ATOM     20  H1  FTA A   1       2.562  20.738  22.404  1.00  0.00     0.166 HD
BRANCH  19  21
ATOM     21  C24 FTA A   1       2.497  20.032  24.391  1.00  0.00     0.032 A 
ATOM     22  C26 FTA A   1       2.637  21.113  25.229  1.00  0.00     0.029 A 
ATOM     23  C28 FTA A   1       2.300  20.967  26.561  1.00  0.00     0.002 A 
ATOM     24  C30 FTA A   1       1.799  19.783  27.075  1.00  0.00     0.000 A 
ATOM     25  C29 FTA A   1       1.619  18.711  26.243  1.00  0.00     0.002 A 
ATOM     26  C27 FTA A   1       1.963  18.855  24.894  1.00  0.00     0.029 A 
ENDBRANCH  19  21
ENDBRANCH  16  19
ENDBRANCH  11  13
ENDBRANCH   1  11
TORSDOF 5
ENDMDL
MODEL 8
REMARK VINA RESULT:    -5.324      3.460      6.249
REMARK INTER + INTRA:          -7.947
REMARK INTER:                  -6.859
REMARK INTRA:                  -1.088
REMARK UNBOUND:                -1.067
REMARK  5 active torsions:
REMARK  status: ('A' for Active; 'I' for Inactive)
REMARK    1  A    between atoms: N8_1  and  C24_2 
REMARK    2  A    between atoms: N8_1  and  C7_8 
REMARK    3  A    between atoms: C2_13  and  N1_14 
REMARK    4  A    between atoms: N1_14  and  C17_15 
REMARK    5  A    between atoms: C14_16  and  C13_19 
ROOT
ATOM      1  C17 FTA A   1       6.010  19.673  23.176  1.00  0.00     0.142 C 
ATOM      2  C14 FTA A   1       5.242  19.950  24.249  1.00  0.00     0.158 C 
ATOM      3  C18 FTA A   1       5.769  20.752  25.332  1.00  0.00     0.069 C 
ATOM      4  N21 FTA A   1       6.343  21.360  26.154  1.00  0.00    -0.197 NA
ENDROOT
BRANCH   2   5
ATOM      5  C13 FTA A   1       3.853  19.440  24.301  1.00  0.00     0.197 A 
ATOM      6  N15 FTA A   1       3.106  19.205  25.454  1.00  0.00    -0.093 NA
ATOM      7  N19 FTA A   1       1.879  18.689  25.059  1.00  0.00    -0.231 N 
ATOM      8  N20 FTA A   1       1.850  18.594  23.675  1.00  0.00    -0.017 NA
ATOM      9  H15 FTA A   1       1.113  18.418  25.692  1.00  0.00     0.200 HD
ATOM     10  N16 FTA A   1       3.069  19.069  23.203  1.00  0.00    -0.090 NA
ENDBRANCH   2   5
BRANCH   1  11
ATOM     11  N1  FTA A   1       6.158  18.390  22.794  1.00  0.00    -0.389 N 
ATOM     12  H11 FTA A   1       6.345  17.693  23.530  1.00  0.00     0.159 HD
BRANCH  11  13
ATOM     13  C2  FTA A   1       6.076  17.923  21.454  1.00  0.00     0.028 A 
ATOM     14  C4  FTA A   1       5.086  17.036  21.037  1.00  0.00     0.031 A 
ATOM     15  C6  FTA A   1       5.196  16.439  19.774  1.00  0.00     0.031 A 
ATOM     16  C7  FTA A   1       6.266  16.702  18.922  1.00  0.00     0.032 A 
ATOM     17  C5  FTA A   1       7.228  17.604  19.340  1.00  0.00     0.031 A 
ATOM     18  C3  FTA A   1       7.144  18.197  20.594  1.00  0.00     0.031 A 
BRANCH  16  19
ATOM     19  N8  FTA A   1       6.507  15.958  17.739  1.00  0.00    -0.356 N 
ATOM     20  H1  FTA A   1       6.804  14.978  17.849  1.00  0.00     0.166 HD
BRANCH  19  21
ATOM     21  C24 FTA A   1       6.374  16.457  16.407  1.00  0.00     0.032 A 
ATOM     22  C26 FTA A   1       7.360  16.273  15.467  1.00  0.00     0.029 A 
ATOM     23  C28 FTA A   1       7.248  16.926  14.254  1.00  0.00     0.002 A 
ATOM     24  C30 FTA A   1       6.166  17.730  13.940  1.00  0.00     0.000 A 
ATOM     25  C29 FTA A   1       5.159  17.890  14.854  1.00  0.00     0.002 A 
ATOM     26  C27 FTA A   1       5.271  17.234  16.085  1.00  0.00     0.029 A 
ENDBRANCH  19  21
ENDBRANCH  16  19
ENDBRANCH  11  13
ENDBRANCH   1  11
TORSDOF 5
ENDMDL
MODEL 9
REMARK VINA RESULT:    -5.241      1.582      2.588
REMARK INTER + INTRA:          -7.839
REMARK INTER:                  -6.772
REMARK INTRA:                  -1.067
REMARK UNBOUND:                -1.067
REMARK  5 active torsions:
REMARK  status: ('A' for Active; 'I' for Inactive)
REMARK    1  A    between atoms: N8_1  and  C24_2 
REMARK    2  A    between atoms: N8_1  and  C7_8 
REMARK    3  A    between atoms: C2_13  and  N1_14 
REMARK    4  A    between atoms: N1_14  and  C17_15 
REMARK    5  A    between atoms: C14_16  and  C13_19 
ROOT
ATOM      1  C17 FTA A   1       5.125  17.008  18.408  1.00  0.00     0.142 C 
ATOM      2  C14 FTA A   1       3.940  17.628  18.237  1.00  0.00     0.158 C 
ATOM      3  C18 FTA A   1       2.985  17.120  17.276  1.00  0.00     0.069 C 
ATOM      4  N21 FTA A   1       2.339  16.634  16.427  1.00  0.00    -0.197 NA
ENDROOT
BRANCH   2   5
ATOM      5  C13 FTA A   1       3.619  18.821  19.053  1.00  0.00     0.197 A 
ATOM      6  N15 FTA A   1       4.260  20.057  18.990  1.00  0.00    -0.093 NA
ATOM      7  N19 FTA A   1       3.682  20.876  19.951  1.00  0.00    -0.231 N 
ATOM      8  N20 FTA A   1       2.691  20.170  20.616  1.00  0.00    -0.017 NA
ATOM      9  H15 FTA A   1       3.948  21.854  20.140  1.00  0.00     0.200 HD
ATOM     10  N16 FTA A   1       2.643  18.898  20.053  1.00  0.00    -0.090 NA
ENDBRANCH   2   5
BRANCH   1  11
ATOM     11  N1  FTA A   1       6.258  17.731  18.319  1.00  0.00    -0.389 N 
ATOM     12  H11 FTA A   1       6.411  18.271  17.455  1.00  0.00     0.159 HD
BRANCH  11  13
ATOM     13  C2  FTA A   1       7.257  17.808  19.328  1.00  0.00     0.028 A 
ATOM     14  C4  FTA A   1       8.572  17.411  19.100  1.00  0.00     0.031 A 
ATOM     15  C6  FTA A   1       9.445  17.294  20.190  1.00  0.00     0.031 A 
ATOM     16  C7  FTA A   1       9.040  17.559  21.495  1.00  0.00     0.032 A 
ATOM     17  C5  FTA A   1       7.737  17.977  21.702  1.00  0.00     0.031 A 
ATOM     18  C3  FTA A   1       6.852  18.087  20.636  1.00  0.00     0.031 A 
BRANCH  16  19
ATOM     19  N8  FTA A   1       9.837  17.249  22.626  1.00  0.00    -0.356 N 
ATOM     20  H1  FTA A   1       9.798  16.282  22.981  1.00  0.00     0.166 HD
BRANCH  19  21
ATOM     21  C24 FTA A   1      10.688  18.165  23.315  1.00  0.00     0.032 A 
ATOM     22  C26 FTA A   1      11.361  17.804  24.458  1.00  0.00     0.029 A 
ATOM     23  C28 FTA A   1      12.029  18.782  25.170  1.00  0.00     0.002 A 
ATOM     24  C30 FTA A   1      12.071  20.103  24.758  1.00  0.00     0.000 A 
ATOM     25  C29 FTA A   1      11.437  20.468  23.600  1.00  0.00     0.002 A 
ATOM     26  C27 FTA A   1      10.757  19.481  22.879  1.00  0.00     0.029 A 
ENDBRANCH  19  21
ENDBRANCH  16  19
ENDBRANCH  11  13
ENDBRANCH   1  11
TORSDOF 5
ENDMDL
