REMARK  6 active torsions:
REMARK  status: ('A' for Active; 'I' for Inactive)
REMARK    1  A    between atoms: O_2  and  C_3 
REMARK       I    between atoms: N_7  and  C_8 
REMARK    2  A    between atoms: C_8  and  C_10 
REMARK    3  A    between atoms: C_17  and  C_21 
REMARK    4  A    between atoms: C_18  and  O_20 
REMARK       I    between atoms: C_21  and  N_23 
REMARK    5  A    between atoms: N_23  and  C_25 
REMARK    6  A    between atoms: C_28  and  N_31 
ROOT
HETATM    1  C   UNL     1       0.434   0.644   4.907  0.00  0.00     0.157 A 
HETATM    2  N   UNL     1       0.803  -0.626   4.645  0.00  0.00    -0.168 NA
HETATM    3  N   UNL     1       0.033  -1.380   5.433  0.00  0.00    -0.277 N 
HETATM    4  H   UNL     1       0.153  -2.386   5.400  0.00  0.00     0.189 HD
HETATM    5  C   UNL     1      -0.606   0.659   5.904  0.00  0.00     0.029 A 
HETATM    6  C   UNL     1      -0.834  -0.677   6.213  0.00  0.00     0.065 A 
HETATM    7  C   UNL     1      -1.372   1.637   6.571  0.00  0.00     0.036 A 
HETATM    8  C   UNL     1      -2.384   1.255   7.475  0.00  0.00     0.066 A 
HETATM    9  C   UNL     1      -2.506  -0.105   7.809  0.00  0.00     0.083 A 
HETATM   10  C   UNL     1      -1.763  -1.098   7.164  0.00  0.00     0.069 A 
ENDROOT
BRANCH   8  11
HETATM   11  C   UNL     1      -3.293   2.262   8.119  0.00  0.00     0.260 C 
HETATM   12  O   UNL     1      -3.662   2.000   9.270  0.00  0.00    -0.267 OA
HETATM   13  N   UNL     1      -3.666   3.447   7.452  0.00  0.00    -0.318 N 
HETATM   14  C   UNL     1      -4.434   4.458   8.169  0.00  0.00     0.159 C 
BRANCH  13  15
HETATM   15  C   UNL     1      -3.510   3.674   6.061  0.00  0.00     0.037 A 
HETATM   16  C   UNL     1      -4.060   2.788   5.137  0.00  0.00     0.032 A 
HETATM   17  C   UNL     1      -3.779   2.944   3.778  0.00  0.00     0.031 A 
HETATM   18  C   UNL     1      -2.927   3.953   3.293  0.00  0.00     0.030 A 
HETATM   19  C   UNL     1      -2.453   4.877   4.232  0.00  0.00     0.031 A 
HETATM   20  C   UNL     1      -2.762   4.759   5.599  0.00  0.00     0.032 A 
BRANCH  18  21
HETATM   21  N   UNL     1      -2.606   3.991   1.948  0.00  0.00    -0.377 N 
HETATM   22  C   UNL     1      -2.138   5.194   1.237  0.00  0.00     0.149 C 
HETATM   23  C   UNL     1      -0.678   5.049   0.785  0.00  0.00     0.187 C 
HETATM   24  O   UNL     1      -0.502   3.852   0.010  0.00  0.00    -0.388 OA
HETATM   25  C   UNL     1      -0.843   2.711   0.812  0.00  0.00     0.187 C 
HETATM   26  C   UNL     1      -2.304   2.724   1.252  0.00  0.00     0.149 C 
ENDBRANCH  18  21
ENDBRANCH  13  15
ENDBRANCH   8  11
BRANCH   9  27
HETATM   27  O   UNL     1      -3.319  -0.558   8.819  0.00  0.00    -0.360 OA
HETATM   28  H   UNL     1      -3.507   0.209   9.405  0.00  0.00     0.217 HD
ENDBRANCH   9  27
BRANCH   1  29
HETATM   29  C   UNL     1       1.067   1.823   4.254  0.00  0.00     0.275 C 
HETATM   30  N   UNL     1       1.722   1.646   3.033  0.00  0.00    -0.344 N 
HETATM   31  C   UNL     1       1.723   0.440   2.219  0.00  0.00     0.158 C 
HETATM   32  C   UNL     1       2.442   2.716   2.375  0.00  0.00     0.129 C 
HETATM   33  C   UNL     1       2.384   0.803   0.884  0.00  0.00     0.140 C 
HETATM   34  C   UNL     1       2.490   2.329   0.903  0.00  0.00     0.053 C 
HETATM   35  O   UNL     1       1.009   2.939   4.776  0.00  0.00    -0.266 OA
BRANCH  33  36
HETATM   36  O   UNL     1       1.567   0.301  -0.178  0.00  0.00    -0.389 OA
HETATM   37  C   UNL     1       2.050   0.609  -1.473  0.00  0.00     0.202 C 
ENDBRANCH  33  36
ENDBRANCH   1  29
TORSDOF 6
