MODEL 1
REMARK VINA RESULT:    -7.179      0.000      0.000
REMARK INTER + INTRA:         -11.451
REMARK INTER:                 -10.385
REMARK INTRA:                  -1.066
REMARK UNBOUND:                -0.915
REMARK  9 active torsions:
REMARK  status: ('A' for Active; 'I' for Inactive)
REMARK    1  A    between atoms: O_1  and  C_2 
REMARK    2  A    between atoms: C_2  and  C_5 
REMARK    3  A    between atoms: C_5  and  C_6 
REMARK    4  A    between atoms: C_6  and  C_7 
REMARK    5  A    between atoms: C_7  and  C_8 
REMARK    6  A    between atoms: N_10  and  C_19 
REMARK    7  A    between atoms: C_14  and  N_15 
REMARK    8  A    between atoms: C_19  and  C_20 
REMARK    9  A    between atoms: C_23  and  O_28 
ROOT
HETATM    1  C   UNL     1      -0.201   9.079  26.352  0.00  0.00     0.050 A 
HETATM    2  C   UNL     1       0.015  10.167  25.536  0.00  0.00     0.114 A 
HETATM    3  N   UNL     1      -0.909  11.135  25.865  0.00  0.00    -0.334 N 
HETATM    4  C   UNL     1      -1.739  10.649  26.846  0.00  0.00     0.148 A 
HETATM    5  C   UNL     1      -1.300   9.377  27.198  0.00  0.00     0.071 A 
HETATM    6  N   UNL     1      -2.799  11.281  27.376  0.00  0.00    -0.200 NA
HETATM    7  C   UNL     1      -3.437  10.574  28.317  0.00  0.00     0.202 A 
HETATM    8  N   UNL     1      -3.094   9.369  28.775  0.00  0.00    -0.205 NA
HETATM    9  C   UNL     1      -2.035   8.778  28.209  0.00  0.00     0.144 A 
HETATM   10 CL   UNL     1      -1.602   7.238  28.780  0.00  0.00    -0.061 Cl
ENDROOT
BRANCH   3  11
HETATM   11  C   UNL     1      -1.065  12.398  25.150  0.00  0.00     0.190 C 
BRANCH  11  12
HETATM   12  C   UNL     1       0.102  13.341  25.328  0.00  0.00     0.061 A 
HETATM   13  C   UNL     1       1.017  13.663  24.316  0.00  0.00    -0.002 A 
HETATM   14  C   UNL     1       0.891  13.127  22.910  0.00  0.00     0.053 C 
HETATM   15  C   UNL     1       2.123  14.519  24.613  0.00  0.00     0.083 A 
HETATM   16  C   UNL     1       2.286  15.009  25.913  0.00  0.00    -0.011 A 
HETATM   17  C   UNL     1       1.314  14.618  26.837  0.00  0.00     0.126 A 
HETATM   18  C   UNL     1       3.366  15.878  26.482  0.00  0.00     0.052 C 
HETATM   19  N   UNL     1       0.252  13.822  26.586  0.00  0.00    -0.263 NA
BRANCH  15  20
HETATM   20  O   UNL     1       2.905  14.724  23.508  0.00  0.00    -0.355 OA
HETATM   21  C   UNL     1       4.234  14.265  23.407  0.00  0.00     0.210 C 
ENDBRANCH  15  20
ENDBRANCH  11  12
ENDBRANCH   3  11
BRANCH   1  22
HETATM   22  C   UNL     1       0.559   7.876  26.301  0.00  0.00    -0.064 C 
BRANCH  22  23
HETATM   23  C   UNL     1       1.248   6.770  26.304  0.00  0.00    -0.098 C 
BRANCH  23  24
HETATM   24  C   UNL     1       2.052   5.479  26.307  0.00  0.00     0.131 C 
BRANCH  24  25
HETATM   25  C   UNL     1       2.945   5.408  27.570  0.00  0.00     0.061 C 
HETATM   26  C   UNL     1       2.112   5.392  28.857  0.00  0.00     0.046 C 
HETATM   27  C   UNL     1       3.963   6.556  27.611  0.00  0.00     0.046 C 
BRANCH  25  28
HETATM   28  O   UNL     1       3.681   4.178  27.513  0.00  0.00    -0.390 OA
HETATM   29  H   UNL     1       3.774   3.932  26.575  0.00  0.00     0.210 HD
ENDBRANCH  25  28
ENDBRANCH  24  25
ENDBRANCH  23  24
ENDBRANCH  22  23
ENDBRANCH   1  22
BRANCH   7  30
HETATM   30  N   UNL     1      -4.540  11.158  28.906  0.00  0.00    -0.271 NA
HETATM   31  H   UNL     1      -4.257  11.849  29.585  0.00  0.00     0.127 HD
HETATM   32  H   UNL     1      -5.187  10.443  29.209  0.00  0.00     0.127 HD
ENDBRANCH   7  30
TORSDOF 9
ENDMDL
MODEL 2
REMARK VINA RESULT:    -7.043      6.117      9.715
REMARK INTER + INTRA:         -11.252
REMARK INTER:                 -10.352
REMARK INTRA:                  -0.901
REMARK UNBOUND:                -0.915
REMARK  9 active torsions:
REMARK  status: ('A' for Active; 'I' for Inactive)
REMARK    1  A    between atoms: O_1  and  C_2 
REMARK    2  A    between atoms: C_2  and  C_5 
REMARK    3  A    between atoms: C_5  and  C_6 
REMARK    4  A    between atoms: C_6  and  C_7 
REMARK    5  A    between atoms: C_7  and  C_8 
REMARK    6  A    between atoms: N_10  and  C_19 
REMARK    7  A    between atoms: C_14  and  N_15 
REMARK    8  A    between atoms: C_19  and  C_20 
REMARK    9  A    between atoms: C_23  and  O_28 
ROOT
HETATM    1  C   UNL     1       4.013  12.848  22.826  0.00  0.00     0.050 A 
HETATM    2  C   UNL     1       4.471  11.685  22.249  0.00  0.00     0.114 A 
HETATM    3  N   UNL     1       5.800  11.863  21.932  0.00  0.00    -0.334 N 
HETATM    4  C   UNL     1       6.172  13.146  22.257  0.00  0.00     0.148 A 
HETATM    5  C   UNL     1       5.084  13.776  22.852  0.00  0.00     0.071 A 
HETATM    6  N   UNL     1       7.372  13.705  22.037  0.00  0.00    -0.200 NA
HETATM    7  C   UNL     1       7.462  14.976  22.453  0.00  0.00     0.202 A 
HETATM    8  N   UNL     1       6.514  15.678  23.074  0.00  0.00    -0.205 NA
HETATM    9  C   UNL     1       5.332  15.077  23.262  0.00  0.00     0.144 A 
HETATM   10 CL   UNL     1       4.117  15.972  24.042  0.00  0.00    -0.061 Cl
ENDROOT
BRANCH   3  11
HETATM   11  C   UNL     1       6.610  10.887  21.210  0.00  0.00     0.190 C 
BRANCH  11  12
HETATM   12  C   UNL     1       5.804   9.758  20.612  0.00  0.00     0.061 A 
HETATM   13  C   UNL     1       5.492   8.568  21.286  0.00  0.00    -0.002 A 
HETATM   14  C   UNL     1       5.898   8.319  22.718  0.00  0.00     0.053 C 
HETATM   15  C   UNL     1       4.776   7.538  20.601  0.00  0.00     0.083 A 
HETATM   16  C   UNL     1       4.411   7.724  19.263  0.00  0.00    -0.011 A 
HETATM   17  C   UNL     1       4.778   8.947  18.697  0.00  0.00     0.126 A 
HETATM   18  C   UNL     1       3.701   6.796  18.324  0.00  0.00     0.052 C 
HETATM   19  N   UNL     1       5.443   9.945  19.319  0.00  0.00    -0.263 NA
BRANCH  15  20
HETATM   20  O   UNL     1       4.560   6.458  21.412  0.00  0.00    -0.355 OA
HETATM   21  C   UNL     1       3.277   6.059  21.841  0.00  0.00     0.210 C 
ENDBRANCH  15  20
ENDBRANCH  11  12
ENDBRANCH   3  11
BRANCH   1  22
HETATM   22  C   UNL     1       2.678  13.044  23.281  0.00  0.00    -0.064 C 
BRANCH  22  23
HETATM   23  C   UNL     1       1.439  13.220  23.650  0.00  0.00    -0.098 C 
BRANCH  23  24
HETATM   24  C   UNL     1      -0.004  13.424  24.080  0.00  0.00     0.131 C 
BRANCH  24  25
HETATM   25  C   UNL     1      -0.953  12.592  23.184  0.00  0.00     0.061 C 
HETATM   26  C   UNL     1      -0.814  12.969  21.703  0.00  0.00     0.046 C 
HETATM   27  C   UNL     1      -2.416  12.726  23.629  0.00  0.00     0.046 C 
BRANCH  25  28
HETATM   28  O   UNL     1      -0.583  11.213  23.320  0.00  0.00    -0.390 OA
HETATM   29  H   UNL     1      -1.222  10.794  23.923  0.00  0.00     0.210 HD
ENDBRANCH  25  28
ENDBRANCH  24  25
ENDBRANCH  23  24
ENDBRANCH  22  23
ENDBRANCH   1  22
BRANCH   7  30
HETATM   30  N   UNL     1       8.667  15.620  22.257  0.00  0.00    -0.271 NA
HETATM   31  H   UNL     1       9.267  15.505  23.060  0.00  0.00     0.127 HD
HETATM   32  H   UNL     1       8.504  16.561  21.927  0.00  0.00     0.127 HD
ENDBRANCH   7  30
TORSDOF 9
ENDMDL
MODEL 3
REMARK VINA RESULT:    -6.982      6.429      9.769
REMARK INTER + INTRA:         -11.163
REMARK INTER:                 -10.552
REMARK INTRA:                  -0.610
REMARK UNBOUND:                -0.915
REMARK  9 active torsions:
REMARK  status: ('A' for Active; 'I' for Inactive)
REMARK    1  A    between atoms: O_1  and  C_2 
REMARK    2  A    between atoms: C_2  and  C_5 
REMARK    3  A    between atoms: C_5  and  C_6 
REMARK    4  A    between atoms: C_6  and  C_7 
REMARK    5  A    between atoms: C_7  and  C_8 
REMARK    6  A    between atoms: N_10  and  C_19 
REMARK    7  A    between atoms: C_14  and  N_15 
REMARK    8  A    between atoms: C_19  and  C_20 
REMARK    9  A    between atoms: C_23  and  O_28 
ROOT
HETATM    1  C   UNL     1       4.253  12.667  22.999  0.00  0.00     0.050 A 
HETATM    2  C   UNL     1       4.790  11.562  22.377  0.00  0.00     0.114 A 
HETATM    3  N   UNL     1       6.024  11.914  21.878  0.00  0.00    -0.334 N 
HETATM    4  C   UNL     1       6.250  13.245  22.134  0.00  0.00     0.148 A 
HETATM    5  C   UNL     1       5.174  13.736  22.865  0.00  0.00     0.071 A 
HETATM    6  N   UNL     1       7.318  13.960  21.743  0.00  0.00    -0.200 NA
HETATM    7  C   UNL     1       7.281  15.242  22.128  0.00  0.00     0.202 A 
HETATM    8  N   UNL     1       6.335  15.825  22.865  0.00  0.00    -0.205 NA
HETATM    9  C   UNL     1       5.288  15.072  23.222  0.00  0.00     0.144 A 
HETATM   10 CL   UNL     1       4.074  15.812  24.151  0.00  0.00    -0.061 Cl
ENDROOT
BRANCH   3  11
HETATM   11  C   UNL     1       6.860  11.039  21.063  0.00  0.00     0.190 C 
BRANCH  11  12
HETATM   12  C   UNL     1       8.311  11.019  21.490  0.00  0.00     0.061 A 
HETATM   13  C   UNL     1       9.365  11.537  20.725  0.00  0.00    -0.002 A 
HETATM   14  C   UNL     1       9.141  12.223  19.398  0.00  0.00     0.053 C 
HETATM   15  C   UNL     1      10.707  11.408  21.197  0.00  0.00     0.083 A 
HETATM   16  C   UNL     1      10.952  10.752  22.408  0.00  0.00    -0.011 A 
HETATM   17  C   UNL     1       9.824  10.275  23.080  0.00  0.00     0.126 A 
HETATM   18  C   UNL     1      12.252  10.455  23.093  0.00  0.00     0.052 C 
HETATM   19  N   UNL     1       8.543  10.390  22.668  0.00  0.00    -0.263 NA
BRANCH  15  20
HETATM   20  O   UNL     1      11.599  11.973  20.326  0.00  0.00    -0.355 OA
HETATM   21  C   UNL     1      12.381  13.102  20.646  0.00  0.00     0.210 C 
ENDBRANCH  15  20
ENDBRANCH  11  12
ENDBRANCH   3  11
BRANCH   1  22
HETATM   22  C   UNL     1       2.977  12.690  23.631  0.00  0.00    -0.064 C 
BRANCH  22  23
HETATM   23  C   UNL     1       1.788  12.699  24.166  0.00  0.00    -0.098 C 
BRANCH  23  24
HETATM   24  C   UNL     1       0.401  12.710  24.790  0.00  0.00     0.131 C 
BRANCH  24  25
HETATM   25  C   UNL     1      -0.625  12.064  23.827  0.00  0.00     0.061 C 
HETATM   26  C   UNL     1      -0.627  12.751  22.455  0.00  0.00     0.046 C 
HETATM   27  C   UNL     1      -2.039  12.064  24.422  0.00  0.00     0.046 C 
BRANCH  25  28
HETATM   28  O   UNL     1      -0.236  10.698  23.630  0.00  0.00    -0.390 OA
HETATM   29  H   UNL     1       0.735  10.658  23.668  0.00  0.00     0.210 HD
ENDBRANCH  25  28
ENDBRANCH  24  25
ENDBRANCH  23  24
ENDBRANCH  22  23
ENDBRANCH   1  22
BRANCH   7  30
HETATM   30  N   UNL     1       8.345  16.042  21.759  0.00  0.00    -0.271 NA
HETATM   31  H   UNL     1       8.589  15.886  20.793  0.00  0.00     0.127 HD
HETATM   32  H   UNL     1       9.083  15.968  22.445  0.00  0.00     0.127 HD
ENDBRANCH   7  30
TORSDOF 9
ENDMDL
MODEL 4
REMARK VINA RESULT:    -6.951      2.939      7.520
REMARK INTER + INTRA:         -11.117
REMARK INTER:                  -9.991
REMARK INTRA:                  -1.126
REMARK UNBOUND:                -0.915
REMARK  9 active torsions:
REMARK  status: ('A' for Active; 'I' for Inactive)
REMARK    1  A    between atoms: O_1  and  C_2 
REMARK    2  A    between atoms: C_2  and  C_5 
REMARK    3  A    between atoms: C_5  and  C_6 
REMARK    4  A    between atoms: C_6  and  C_7 
REMARK    5  A    between atoms: C_7  and  C_8 
REMARK    6  A    between atoms: N_10  and  C_19 
REMARK    7  A    between atoms: C_14  and  N_15 
REMARK    8  A    between atoms: C_19  and  C_20 
REMARK    9  A    between atoms: C_23  and  O_28 
ROOT
HETATM    1  C   UNL     1       1.851  11.220  24.758  0.00  0.00     0.050 A 
HETATM    2  C   UNL     1       1.672   9.908  25.138  0.00  0.00     0.114 A 
HETATM    3  N   UNL     1       0.396   9.533  24.777  0.00  0.00    -0.334 N 
HETATM    4  C   UNL     1      -0.249  10.610  24.220  0.00  0.00     0.148 A 
HETATM    5  C   UNL     1       0.647  11.672  24.161  0.00  0.00     0.071 A 
HETATM    6  N   UNL     1      -1.526  10.644  23.806  0.00  0.00    -0.200 NA
HETATM    7  C   UNL     1      -1.900  11.828  23.302  0.00  0.00     0.202 A 
HETATM    8  N   UNL     1      -1.131  12.906  23.149  0.00  0.00    -0.205 NA
HETATM    9  C   UNL     1       0.132  12.823  23.585  0.00  0.00     0.144 A 
HETATM   10 CL   UNL     1       1.112  14.198  23.404  0.00  0.00    -0.061 Cl
ENDROOT
BRANCH   3  11
HETATM   11  C   UNL     1      -0.203   8.243  25.104  0.00  0.00     0.190 C 
BRANCH  11  12
HETATM   12  C   UNL     1      -0.036   7.850  26.555  0.00  0.00     0.061 A 
HETATM   13  C   UNL     1       0.766   6.787  26.996  0.00  0.00    -0.002 A 
HETATM   14  C   UNL     1       1.594   5.951  26.051  0.00  0.00     0.053 C 
HETATM   15  C   UNL     1       0.801   6.463  28.388  0.00  0.00     0.083 A 
HETATM   16  C   UNL     1       0.022   7.199  29.287  0.00  0.00    -0.011 A 
HETATM   17  C   UNL     1      -0.738   8.231  28.731  0.00  0.00     0.126 A 
HETATM   18  C   UNL     1      -0.145   7.037  30.768  0.00  0.00     0.052 C 
HETATM   19  N   UNL     1      -0.784   8.570  27.425  0.00  0.00    -0.263 NA
BRANCH  15  20
HETATM   20  O   UNL     1       1.636   5.406  28.632  0.00  0.00    -0.355 OA
HETATM   21  C   UNL     1       2.818   5.517  29.394  0.00  0.00     0.210 C 
ENDBRANCH  15  20
ENDBRANCH  11  12
ENDBRANCH   3  11
BRANCH   1  22
HETATM   22  C   UNL     1       3.049  11.959  24.972  0.00  0.00    -0.064 C 
BRANCH  22  23
HETATM   23  C   UNL     1       4.142  12.627  25.217  0.00  0.00    -0.098 C 
BRANCH  23  24
HETATM   24  C   UNL     1       5.415  13.406  25.502  0.00  0.00     0.131 C 
BRANCH  24  25
HETATM   25  C   UNL     1       5.343  14.809  24.851  0.00  0.00     0.061 C 
HETATM   26  C   UNL     1       4.352  15.725  25.581  0.00  0.00     0.046 C 
HETATM   27  C   UNL     1       4.987  14.725  23.361  0.00  0.00     0.046 C 
BRANCH  25  28
HETATM   28  O   UNL     1       6.644  15.404  24.954  0.00  0.00    -0.390 OA
HETATM   29  H   UNL     1       6.522  16.358  25.107  0.00  0.00     0.210 HD
ENDBRANCH  25  28
ENDBRANCH  24  25
ENDBRANCH  23  24
ENDBRANCH  22  23
ENDBRANCH   1  22
BRANCH   7  30
HETATM   30  N   UNL     1      -3.203  11.941  22.859  0.00  0.00    -0.271 NA
HETATM   31  H   UNL     1      -3.228  12.073  21.859  0.00  0.00     0.127 HD
HETATM   32  H   UNL     1      -3.703  12.607  23.430  0.00  0.00     0.127 HD
ENDBRANCH   7  30
TORSDOF 9
ENDMDL
MODEL 5
REMARK VINA RESULT:    -6.946      6.527     10.050
REMARK INTER + INTRA:         -11.110
REMARK INTER:                 -10.198
REMARK INTRA:                  -0.912
REMARK UNBOUND:                -0.915
REMARK  9 active torsions:
REMARK  status: ('A' for Active; 'I' for Inactive)
REMARK    1  A    between atoms: O_1  and  C_2 
REMARK    2  A    between atoms: C_2  and  C_5 
REMARK    3  A    between atoms: C_5  and  C_6 
REMARK    4  A    between atoms: C_6  and  C_7 
REMARK    5  A    between atoms: C_7  and  C_8 
REMARK    6  A    between atoms: N_10  and  C_19 
REMARK    7  A    between atoms: C_14  and  N_15 
REMARK    8  A    between atoms: C_19  and  C_20 
REMARK    9  A    between atoms: C_23  and  O_28 
ROOT
HETATM    1  C   UNL     1       5.493  14.143  22.920  0.00  0.00     0.050 A 
HETATM    2  C   UNL     1       6.413  15.139  23.160  0.00  0.00     0.114 A 
HETATM    3  N   UNL     1       7.627  14.725  22.658  0.00  0.00    -0.334 N 
HETATM    4  C   UNL     1       7.494  13.455  22.150  0.00  0.00     0.148 A 
HETATM    5  C   UNL     1       6.161  13.076  22.267  0.00  0.00     0.071 A 
HETATM    6  N   UNL     1       8.476  12.699  21.633  0.00  0.00    -0.200 NA
HETATM    7  C   UNL     1       8.068  11.495  21.213  0.00  0.00     0.202 A 
HETATM    8  N   UNL     1       6.819  11.028  21.227  0.00  0.00    -0.205 NA
HETATM    9  C   UNL     1       5.877  11.818  21.760  0.00  0.00     0.144 A 
HETATM   10 CL   UNL     1       4.287  11.224  21.792  0.00  0.00    -0.061 Cl
ENDROOT
BRANCH   3  11
HETATM   11  C   UNL     1       8.875  15.467  22.811  0.00  0.00     0.190 C 
BRANCH  11  12
HETATM   12  C   UNL     1       9.687  15.040  24.012  0.00  0.00     0.061 A 
HETATM   13  C   UNL     1      10.812  14.205  23.946  0.00  0.00    -0.002 A 
HETATM   14  C   UNL     1      11.359  13.685  22.638  0.00  0.00     0.053 C 
HETATM   15  C   UNL     1      11.469  13.813  25.153  0.00  0.00     0.083 A 
HETATM   16  C   UNL     1      10.970  14.253  26.384  0.00  0.00    -0.011 A 
HETATM   17  C   UNL     1       9.844  15.077  26.324  0.00  0.00     0.126 A 
HETATM   18  C   UNL     1      11.447  13.956  27.774  0.00  0.00     0.052 C 
HETATM   19  N   UNL     1       9.207  15.475  25.202  0.00  0.00    -0.263 NA
BRANCH  15  20
HETATM   20  O   UNL     1      12.544  13.006  24.896  0.00  0.00    -0.355 OA
HETATM   21  C   UNL     1      12.558  11.625  25.184  0.00  0.00     0.210 C 
ENDBRANCH  15  20
ENDBRANCH  11  12
ENDBRANCH   3  11
BRANCH   1  22
HETATM   22  C   UNL     1       4.123  14.209  23.304  0.00  0.00    -0.064 C 
BRANCH  22  23
HETATM   23  C   UNL     1       2.881  14.249  23.699  0.00  0.00    -0.098 C 
BRANCH  23  24
HETATM   24  C   UNL     1       1.433  14.295  24.159  0.00  0.00     0.131 C 
BRANCH  24  25
HETATM   25  C   UNL     1       0.712  12.975  23.794  0.00  0.00     0.061 C 
HETATM   26  C   UNL     1      -0.803  13.072  24.019  0.00  0.00     0.046 C 
HETATM   27  C   UNL     1       1.287  11.781  24.569  0.00  0.00     0.046 C 
BRANCH  25  28
HETATM   28  O   UNL     1       0.930  12.732  22.397  0.00  0.00    -0.390 OA
HETATM   29  H   UNL     1       0.060  12.600  21.981  0.00  0.00     0.210 HD
ENDBRANCH  25  28
ENDBRANCH  24  25
ENDBRANCH  23  24
ENDBRANCH  22  23
ENDBRANCH   1  22
BRANCH   7  30
HETATM   30  N   UNL     1       9.024  10.658  20.672  0.00  0.00    -0.271 NA
HETATM   31  H   UNL     1       8.608  10.028  20.002  0.00  0.00     0.127 HD
HETATM   32  H   UNL     1       9.582  10.252  21.410  0.00  0.00     0.127 HD
ENDBRANCH   7  30
TORSDOF 9
ENDMDL
MODEL 6
REMARK VINA RESULT:    -6.924      6.133      9.538
REMARK INTER + INTRA:         -11.077
REMARK INTER:                 -10.238
REMARK INTRA:                  -0.839
REMARK UNBOUND:                -0.915
REMARK  9 active torsions:
REMARK  status: ('A' for Active; 'I' for Inactive)
REMARK    1  A    between atoms: O_1  and  C_2 
REMARK    2  A    between atoms: C_2  and  C_5 
REMARK    3  A    between atoms: C_5  and  C_6 
REMARK    4  A    between atoms: C_6  and  C_7 
REMARK    5  A    between atoms: C_7  and  C_8 
REMARK    6  A    between atoms: N_10  and  C_19 
REMARK    7  A    between atoms: C_14  and  N_15 
REMARK    8  A    between atoms: C_19  and  C_20 
REMARK    9  A    between atoms: C_23  and  O_28 
ROOT
HETATM    1  C   UNL     1       3.985  12.854  22.971  0.00  0.00     0.050 A 
HETATM    2  C   UNL     1       4.454  11.641  22.517  0.00  0.00     0.114 A 
HETATM    3  N   UNL     1       5.785  11.793  22.196  0.00  0.00    -0.334 N 
HETATM    4  C   UNL     1       6.148  13.104  22.395  0.00  0.00     0.148 A 
HETATM    5  C   UNL     1       5.052  13.786  22.913  0.00  0.00     0.071 A 
HETATM    6  N   UNL     1       7.348  13.645  22.130  0.00  0.00    -0.200 NA
HETATM    7  C   UNL     1       7.428  14.950  22.417  0.00  0.00     0.202 A 
HETATM    8  N   UNL     1       6.472  15.707  22.956  0.00  0.00    -0.205 NA
HETATM    9  C   UNL     1       5.291  15.122  23.193  0.00  0.00     0.144 A 
HETATM   10 CL   UNL     1       4.065  16.084  23.867  0.00  0.00    -0.061 Cl
ENDROOT
BRANCH   3  11
HETATM   11  C   UNL     1       6.606  10.754  21.584  0.00  0.00     0.190 C 
BRANCH  11  12
HETATM   12  C   UNL     1       5.939   9.397  21.554  0.00  0.00     0.061 A 
HETATM   13  C   UNL     1       5.065   8.971  20.544  0.00  0.00    -0.002 A 
HETATM   14  C   UNL     1       4.740   9.824  19.341  0.00  0.00     0.053 C 
HETATM   15  C   UNL     1       4.440   7.690  20.648  0.00  0.00     0.083 A 
HETATM   16  C   UNL     1       4.696   6.887  21.765  0.00  0.00    -0.011 A 
HETATM   17  C   UNL     1       5.581   7.418  22.707  0.00  0.00     0.126 A 
HETATM   18  C   UNL     1       4.145   5.540  22.125  0.00  0.00     0.052 C 
HETATM   19  N   UNL     1       6.197   8.618  22.632  0.00  0.00    -0.263 NA
BRANCH  15  20
HETATM   20  O   UNL     1       3.627   7.443  19.576  0.00  0.00    -0.355 OA
HETATM   21  C   UNL     1       3.779   6.320  18.735  0.00  0.00     0.210 C 
ENDBRANCH  15  20
ENDBRANCH  11  12
ENDBRANCH   3  11
BRANCH   1  22
HETATM   22  C   UNL     1       2.645  13.088  23.391  0.00  0.00    -0.064 C 
BRANCH  22  23
HETATM   23  C   UNL     1       1.401  13.274  23.738  0.00  0.00    -0.098 C 
BRANCH  23  24
HETATM   24  C   UNL     1      -0.048  13.491  24.142  0.00  0.00     0.131 C 
BRANCH  24  25
HETATM   25  C   UNL     1      -0.982  12.604  23.284  0.00  0.00     0.061 C 
HETATM   26  C   UNL     1      -0.910  12.972  21.797  0.00  0.00     0.046 C 
HETATM   27  C   UNL     1      -2.435  12.668  23.776  0.00  0.00     0.046 C 
BRANCH  25  28
HETATM   28  O   UNL     1      -0.538  11.246  23.419  0.00  0.00    -0.390 OA
HETATM   29  H   UNL     1      -0.231  10.948  22.546  0.00  0.00     0.210 HD
ENDBRANCH  25  28
ENDBRANCH  24  25
ENDBRANCH  23  24
ENDBRANCH  22  23
ENDBRANCH   1  22
BRANCH   7  30
HETATM   30  N   UNL     1       8.633  15.578  22.168  0.00  0.00    -0.271 NA
HETATM   31  H   UNL     1       8.497  16.567  22.027  0.00  0.00     0.127 HD
HETATM   32  H   UNL     1       9.143  15.071  21.458  0.00  0.00     0.127 HD
ENDBRANCH   7  30
TORSDOF 9
ENDMDL
MODEL 7
REMARK VINA RESULT:    -6.921      6.574      9.884
REMARK INTER + INTRA:         -11.073
REMARK INTER:                 -10.603
REMARK INTRA:                  -0.470
REMARK UNBOUND:                -0.915
REMARK  9 active torsions:
REMARK  status: ('A' for Active; 'I' for Inactive)
REMARK    1  A    between atoms: O_1  and  C_2 
REMARK    2  A    between atoms: C_2  and  C_5 
REMARK    3  A    between atoms: C_5  and  C_6 
REMARK    4  A    between atoms: C_6  and  C_7 
REMARK    5  A    between atoms: C_7  and  C_8 
REMARK    6  A    between atoms: N_10  and  C_19 
REMARK    7  A    between atoms: C_14  and  N_15 
REMARK    8  A    between atoms: C_19  and  C_20 
REMARK    9  A    between atoms: C_23  and  O_28 
ROOT
HETATM    1  C   UNL     1       4.301  12.805  22.880  0.00  0.00     0.050 A 
HETATM    2  C   UNL     1       4.783  11.586  22.459  0.00  0.00     0.114 A 
HETATM    3  N   UNL     1       6.091  11.761  22.063  0.00  0.00    -0.334 N 
HETATM    4  C   UNL     1       6.423  13.089  22.181  0.00  0.00     0.148 A 
HETATM    5  C   UNL     1       5.334  13.763  22.723  0.00  0.00     0.071 A 
HETATM    6  N   UNL     1       7.591  13.651  21.829  0.00  0.00    -0.200 NA
HETATM    7  C   UNL     1       7.645  14.971  22.050  0.00  0.00     0.202 A 
HETATM    8  N   UNL     1       6.694  15.725  22.602  0.00  0.00    -0.205 NA
HETATM    9  C   UNL     1       5.545  15.118  22.928  0.00  0.00     0.144 A 
HETATM   10 CL   UNL     1       4.326  16.076  23.620  0.00  0.00    -0.061 Cl
ENDROOT
BRANCH   3  11
HETATM   11  C   UNL     1       6.912  10.717  21.457  0.00  0.00     0.190 C 
BRANCH  11  12
HETATM   12  C   UNL     1       8.314  10.649  22.019  0.00  0.00     0.061 A 
HETATM   13  C   UNL     1       8.610  10.521  23.384  0.00  0.00    -0.002 A 
HETATM   14  C   UNL     1       7.536  10.385  24.436  0.00  0.00     0.053 C 
HETATM   15  C   UNL     1       9.973  10.530  23.812  0.00  0.00     0.083 A 
HETATM   16  C   UNL     1      10.992  10.685  22.866  0.00  0.00    -0.011 A 
HETATM   17  C   UNL     1      10.576  10.807  21.538  0.00  0.00     0.126 A 
HETATM   18  C   UNL     1      12.477  10.765  23.058  0.00  0.00     0.052 C 
HETATM   19  N   UNL     1       9.298  10.790  21.099  0.00  0.00    -0.263 NA
BRANCH  15  20
HETATM   20  O   UNL     1      10.070  10.391  25.170  0.00  0.00    -0.355 OA
HETATM   21  C   UNL     1      10.484  11.433  26.025  0.00  0.00     0.210 C 
ENDBRANCH  15  20
ENDBRANCH  11  12
ENDBRANCH   3  11
BRANCH   1  22
HETATM   22  C   UNL     1       2.977  13.021  23.359  0.00  0.00    -0.064 C 
BRANCH  22  23
HETATM   23  C   UNL     1       1.747  13.194  23.756  0.00  0.00    -0.098 C 
BRANCH  23  24
HETATM   24  C   UNL     1       0.314  13.397  24.220  0.00  0.00     0.131 C 
BRANCH  24  25
HETATM   25  C   UNL     1      -0.659  12.602  23.316  0.00  0.00     0.061 C 
HETATM   26  C   UNL     1      -0.531  13.011  21.843  0.00  0.00     0.046 C 
HETATM   27  C   UNL     1      -2.114  12.747  23.782  0.00  0.00     0.046 C 
BRANCH  25  28
HETATM   28  O   UNL     1      -0.309  11.214  23.414  0.00  0.00    -0.390 OA
HETATM   29  H   UNL     1      -0.743  10.747  22.680  0.00  0.00     0.210 HD
ENDBRANCH  25  28
ENDBRANCH  24  25
ENDBRANCH  23  24
ENDBRANCH  22  23
ENDBRANCH   1  22
BRANCH   7  30
HETATM   30  N   UNL     1       8.815  15.620  21.710  0.00  0.00    -0.271 NA
HETATM   31  H   UNL     1       9.273  15.982  22.532  0.00  0.00     0.127 HD
HETATM   32  H   UNL     1       8.642  16.263  20.950  0.00  0.00     0.127 HD
ENDBRANCH   7  30
TORSDOF 9
ENDMDL
MODEL 8
REMARK VINA RESULT:    -6.847      5.928      9.117
REMARK INTER + INTRA:         -10.965
REMARK INTER:                 -10.081
REMARK INTRA:                  -0.883
REMARK UNBOUND:                -0.915
REMARK  9 active torsions:
REMARK  status: ('A' for Active; 'I' for Inactive)
REMARK    1  A    between atoms: O_1  and  C_2 
REMARK    2  A    between atoms: C_2  and  C_5 
REMARK    3  A    between atoms: C_5  and  C_6 
REMARK    4  A    between atoms: C_6  and  C_7 
REMARK    5  A    between atoms: C_7  and  C_8 
REMARK    6  A    between atoms: N_10  and  C_19 
REMARK    7  A    between atoms: C_14  and  N_15 
REMARK    8  A    between atoms: C_19  and  C_20 
REMARK    9  A    between atoms: C_23  and  O_28 
ROOT
HETATM    1  C   UNL     1       4.093  12.612  24.206  0.00  0.00     0.050 A 
HETATM    2  C   UNL     1       4.776  11.449  23.926  0.00  0.00     0.114 A 
HETATM    3  N   UNL     1       6.004  11.520  24.545  0.00  0.00    -0.334 N 
HETATM    4  C   UNL     1       6.124  12.738  25.170  0.00  0.00     0.148 A 
HETATM    5  C   UNL     1       4.930  13.430  25.006  0.00  0.00     0.071 A 
HETATM    6  N   UNL     1       7.205  13.193  25.824  0.00  0.00    -0.200 NA
HETATM    7  C   UNL     1       7.050  14.420  26.338  0.00  0.00     0.202 A 
HETATM    8  N   UNL     1       5.948  15.169  26.290  0.00  0.00    -0.205 NA
HETATM    9  C   UNL     1       4.901  14.673  25.620  0.00  0.00     0.144 A 
HETATM   10 CL   UNL     1       3.499  15.629  25.545  0.00  0.00    -0.061 Cl
ENDROOT
BRANCH   3  11
HETATM   11  C   UNL     1       7.056  10.518  24.399  0.00  0.00     0.190 C 
BRANCH  11  12
HETATM   12  C   UNL     1       8.044  10.837  23.300  0.00  0.00     0.061 A 
HETATM   13  C   UNL     1       9.427  10.963  23.495  0.00  0.00    -0.002 A 
HETATM   14  C   UNL     1      10.078  10.738  24.838  0.00  0.00     0.053 C 
HETATM   15  C   UNL     1      10.263  11.329  22.395  0.00  0.00     0.083 A 
HETATM   16  C   UNL     1       9.687  11.574  21.144  0.00  0.00    -0.011 A 
HETATM   17  C   UNL     1       8.300  11.421  21.071  0.00  0.00     0.126 A 
HETATM   18  C   UNL     1      10.330  12.004  19.860  0.00  0.00     0.052 C 
HETATM   19  N   UNL     1       7.485  11.064  22.087  0.00  0.00    -0.263 NA
BRANCH  15  20
HETATM   20  O   UNL     1      11.577  11.400  22.770  0.00  0.00    -0.355 OA
HETATM   21  C   UNL     1      12.558  10.494  22.317  0.00  0.00     0.210 C 
ENDBRANCH  15  20
ENDBRANCH  11  12
ENDBRANCH   3  11
BRANCH   1  22
HETATM   22  C   UNL     1       2.783  12.906  23.730  0.00  0.00    -0.064 C 
BRANCH  22  23
HETATM   23  C   UNL     1       1.566  13.139  23.324  0.00  0.00    -0.098 C 
BRANCH  23  24
HETATM   24  C   UNL     1       0.147  13.410  22.851  0.00  0.00     0.131 C 
BRANCH  24  25
HETATM   25  C   UNL     1      -0.849  12.474  23.579  0.00  0.00     0.061 C 
HETATM   26  C   UNL     1      -2.275  12.627  23.035  0.00  0.00     0.046 C 
HETATM   27  C   UNL     1      -0.834  12.700  25.097  0.00  0.00     0.046 C 
BRANCH  25  28
HETATM   28  O   UNL     1      -0.432  11.123  23.337  0.00  0.00    -0.390 OA
HETATM   29  H   UNL     1      -0.945  10.787  22.580  0.00  0.00     0.210 HD
ENDBRANCH  25  28
ENDBRANCH  24  25
ENDBRANCH  23  24
ENDBRANCH  22  23
ENDBRANCH   1  22
BRANCH   7  30
HETATM   30  N   UNL     1       8.123  14.957  27.022  0.00  0.00    -0.271 NA
HETATM   31  H   UNL     1       8.130  15.963  26.940  0.00  0.00     0.127 HD
HETATM   32  H   UNL     1       8.969  14.463  26.776  0.00  0.00     0.127 HD
ENDBRANCH   7  30
TORSDOF 9
ENDMDL
MODEL 9
REMARK VINA RESULT:    -6.827      6.029      9.002
REMARK INTER + INTRA:         -10.935
REMARK INTER:                 -10.020
REMARK INTRA:                  -0.915
REMARK UNBOUND:                -0.915
REMARK  9 active torsions:
REMARK  status: ('A' for Active; 'I' for Inactive)
REMARK    1  A    between atoms: O_1  and  C_2 
REMARK    2  A    between atoms: C_2  and  C_5 
REMARK    3  A    between atoms: C_5  and  C_6 
REMARK    4  A    between atoms: C_6  and  C_7 
REMARK    5  A    between atoms: C_7  and  C_8 
REMARK    6  A    between atoms: N_10  and  C_19 
REMARK    7  A    between atoms: C_14  and  N_15 
REMARK    8  A    between atoms: C_19  and  C_20 
REMARK    9  A    between atoms: C_23  and  O_28 
ROOT
HETATM    1  C   UNL     1       4.161  12.889  23.502  0.00  0.00     0.050 A 
HETATM    2  C   UNL     1       5.050  12.146  22.757  0.00  0.00     0.114 A 
HETATM    3  N   UNL     1       6.297  12.279  23.328  0.00  0.00    -0.334 N 
HETATM    4  C   UNL     1       6.213  13.140  24.396  0.00  0.00     0.148 A 
HETATM    5  C   UNL     1       4.883  13.511  24.553  0.00  0.00     0.071 A 
HETATM    6  N   UNL     1       7.235  13.561  25.159  0.00  0.00    -0.200 NA
HETATM    7  C   UNL     1       6.870  14.403  26.135  0.00  0.00     0.202 A 
HETATM    8  N   UNL     1       5.630  14.803  26.419  0.00  0.00    -0.205 NA
HETATM    9  C   UNL     1       4.648  14.361  25.623  0.00  0.00     0.144 A 
HETATM   10 CL   UNL     1       3.068  14.876  25.973  0.00  0.00    -0.061 Cl
ENDROOT
BRANCH   3  11
HETATM   11  C   UNL     1       7.522  11.721  22.764  0.00  0.00     0.190 C 
BRANCH  11  12
HETATM   12  C   UNL     1       8.481  12.769  22.246  0.00  0.00     0.061 A 
HETATM   13  C   UNL     1       9.772  12.975  22.753  0.00  0.00    -0.002 A 
HETATM   14  C   UNL     1      10.357  12.120  23.851  0.00  0.00     0.053 C 
HETATM   15  C   UNL     1      10.571  14.038  22.231  0.00  0.00     0.083 A 
HETATM   16  C   UNL     1      10.048  14.869  21.234  0.00  0.00    -0.011 A 
HETATM   17  C   UNL     1       8.751  14.569  20.811  0.00  0.00     0.126 A 
HETATM   18  C   UNL     1      10.660  16.059  20.557  0.00  0.00     0.052 C 
HETATM   19  N   UNL     1       7.974  13.566  21.274  0.00  0.00    -0.263 NA
BRANCH  15  20
HETATM   20  O   UNL     1      11.796  14.086  22.839  0.00  0.00    -0.355 OA
HETATM   21  C   UNL     1      12.208  15.153  23.664  0.00  0.00     0.210 C 
ENDBRANCH  15  20
ENDBRANCH  11  12
ENDBRANCH   3  11
BRANCH   1  22
HETATM   22  C   UNL     1       2.772  13.001  23.212  0.00  0.00    -0.064 C 
BRANCH  22  23
HETATM   23  C   UNL     1       1.496  13.054  22.946  0.00  0.00    -0.098 C 
BRANCH  23  24
HETATM   24  C   UNL     1       0.009  13.115  22.635  0.00  0.00     0.131 C 
BRANCH  24  25
HETATM   25  C   UNL     1      -0.783  12.230  23.629  0.00  0.00     0.061 C 
HETATM   26  C   UNL     1      -2.270  12.153  23.262  0.00  0.00     0.046 C 
HETATM   27  C   UNL     1      -0.618  12.715  25.076  0.00  0.00     0.046 C 
BRANCH  25  28
HETATM   28  O   UNL     1      -0.245  10.902  23.553  0.00  0.00    -0.390 OA
HETATM   29  H   UNL     1      -0.945  10.320  23.207  0.00  0.00     0.210 HD
ENDBRANCH  25  28
ENDBRANCH  24  25
ENDBRANCH  23  24
ENDBRANCH  22  23
ENDBRANCH   1  22
BRANCH   7  30
HETATM   30  N   UNL     1       7.868  14.883  26.960  0.00  0.00    -0.271 NA
HETATM   31  H   UNL     1       7.828  15.890  27.018  0.00  0.00     0.127 HD
HETATM   32  H   UNL     1       8.752  14.465  26.707  0.00  0.00     0.127 HD
ENDBRANCH   7  30
TORSDOF 9
ENDMDL
