MODEL 1
REMARK VINA RESULT:    -8.315      0.000      0.000
REMARK INTER + INTRA:         -12.009
REMARK INTER:                 -10.220
REMARK INTRA:                  -1.789
REMARK UNBOUND:                -1.506
REMARK  5 active torsions:
REMARK  status: ('A' for Active; 'I' for Inactive)
REMARK    1  A    between atoms: C_7  and  C_8 
REMARK    2  A    between atoms: C_8  and  C_9 
REMARK    3  A    between atoms: C_16  and  C_20 
REMARK    4  A    between atoms: C_17  and  O_19 
REMARK       I    between atoms: C_20  and  N_22 
REMARK    5  A    between atoms: N_22  and  C_24 
ROOT
HETATM    1  C   UNL     1      -1.794  16.055  21.373  0.00  0.00     0.071 C 
HETATM    2  N   UNL     1      -2.406  16.277  20.198  0.00  0.00    -0.178 NA
HETATM    3  N   UNL     1      -3.529  15.548  20.272  0.00  0.00    -0.277 N 
HETATM    4  H   UNL     1      -4.161  15.560  19.480  0.00  0.00     0.189 HD
HETATM    5  C   UNL     1      -2.557  15.178  22.205  0.00  0.00     0.020 C 
HETATM    6  C   UNL     1      -3.634  14.799  21.409  0.00  0.00     0.065 C 
HETATM    7  C   UNL     1      -2.432  14.610  23.493  0.00  0.00     0.035 C 
HETATM    8  C   UNL     1      -3.361  13.631  23.901  0.00  0.00     0.066 C 
HETATM    9  C   UNL     1      -4.340  13.185  23.002  0.00  0.00     0.083 C 
HETATM   10  C   UNL     1      -4.546  13.806  21.769  0.00  0.00     0.069 C 
ENDROOT
BRANCH   8  11
HETATM   11  C   UNL     1      -3.284  13.009  25.256  0.00  0.00     0.260 C 
HETATM   12  O   UNL     1      -4.367  12.874  25.835  0.00  0.00    -0.267 OA
HETATM   13  N   UNL     1      -2.059  12.562  25.790  0.00  0.00    -0.318 N 
HETATM   14  C   UNL     1      -2.111  11.707  26.976  0.00  0.00     0.159 C 
BRANCH  13  15
HETATM   15  C   UNL     1      -0.761  12.987  25.363  0.00  0.00     0.037 A 
HETATM   16  C   UNL     1      -0.303  14.287  25.626  0.00  0.00     0.031 A 
HETATM   17  C   UNL     1       0.930  14.736  25.131  0.00  0.00     0.026 A 
HETATM   18  C   UNL     1       1.742  13.865  24.407  0.00  0.00     0.034 A 
HETATM   19 CL   UNL     1       3.234  14.427  23.780  0.00  0.00    -0.084 Cl
HETATM   20  C   UNL     1       1.338  12.549  24.205  0.00  0.00     0.026 A 
HETATM   21  C   UNL     1       0.095  12.106  24.693  0.00  0.00     0.031 A 
ENDBRANCH  13  15
ENDBRANCH   8  11
BRANCH   9  22
HETATM   22  O   UNL     1      -5.130  12.091  23.249  0.00  0.00    -0.360 OA
HETATM   23  H   UNL     1      -5.049  11.501  22.467  0.00  0.00     0.217 HD
ENDBRANCH   9  22
BRANCH   1  24
HETATM   24  C   UNL     1      -0.407  16.579  21.592  0.00  0.00     0.100 C 
BRANCH  24  25
HETATM   25  C   UNL     1       0.572  15.539  21.108  0.00  0.00    -0.052 A 
HETATM   26  C   UNL     1       0.183  14.192  21.042  0.00  0.00     0.014 A 
HETATM   27  C   UNL     1       1.091  13.198  20.657  0.00  0.00    -0.061 A 
HETATM   28  C   UNL     1       0.707  11.751  20.728  0.00  0.00     0.048 C 
HETATM   29  C   UNL     1       2.389  13.564  20.286  0.00  0.00     0.007 A 
HETATM   30  C   UNL     1       2.769  14.905  20.283  0.00  0.00     0.001 A 
HETATM   31  C   UNL     1       1.865  15.886  20.690  0.00  0.00     0.007 A 
ENDBRANCH  24  25
ENDBRANCH   1  24
TORSDOF 5
ENDMDL
MODEL 2
REMARK VINA RESULT:    -8.251      2.714      4.551
REMARK INTER + INTRA:         -11.928
REMARK INTER:                 -10.182
REMARK INTRA:                  -1.746
REMARK UNBOUND:                -1.506
REMARK  5 active torsions:
REMARK  status: ('A' for Active; 'I' for Inactive)
REMARK    1  A    between atoms: C_7  and  C_8 
REMARK    2  A    between atoms: C_8  and  C_9 
REMARK    3  A    between atoms: C_16  and  C_20 
REMARK    4  A    between atoms: C_17  and  O_19 
REMARK       I    between atoms: C_20  and  N_22 
REMARK    5  A    between atoms: N_22  and  C_24 
ROOT
HETATM    1  C   UNL     1      -0.015  14.196  22.775  0.00  0.00     0.071 C 
HETATM    2  N   UNL     1       1.000  15.026  23.068  0.00  0.00    -0.178 NA
HETATM    3  N   UNL     1       0.876  15.242  24.385  0.00  0.00    -0.277 N 
HETATM    4  H   UNL     1       1.547  15.853  24.835  0.00  0.00     0.189 HD
HETATM    5  C   UNL     1      -0.784  13.878  23.936  0.00  0.00     0.020 C 
HETATM    6  C   UNL     1      -0.223  14.655  24.945  0.00  0.00     0.065 C 
HETATM    7  C   UNL     1      -1.917  13.088  24.238  0.00  0.00     0.035 C 
HETATM    8  C   UNL     1      -2.480  13.168  25.529  0.00  0.00     0.066 C 
HETATM    9  C   UNL     1      -1.958  14.078  26.460  0.00  0.00     0.083 C 
HETATM   10  C   UNL     1      -0.779  14.784  26.218  0.00  0.00     0.069 C 
ENDROOT
BRANCH   8  11
HETATM   11  C   UNL     1      -3.668  12.347  25.906  0.00  0.00     0.260 C 
HETATM   12  O   UNL     1      -4.756  12.926  25.827  0.00  0.00    -0.267 OA
HETATM   13  N   UNL     1      -3.538  10.991  26.270  0.00  0.00    -0.318 N 
HETATM   14  C   UNL     1      -4.760  10.190  26.335  0.00  0.00     0.159 C 
BRANCH  13  15
HETATM   15  C   UNL     1      -2.335  10.363  26.721  0.00  0.00     0.037 A 
HETATM   16  C   UNL     1      -1.392   9.866  25.809  0.00  0.00     0.031 A 
HETATM   17  C   UNL     1      -0.256   9.169  26.245  0.00  0.00     0.026 A 
HETATM   18  C   UNL     1      -0.027   9.008  27.611  0.00  0.00     0.034 A 
HETATM   19 CL   UNL     1       1.347   8.132  28.139  0.00  0.00    -0.084 Cl
HETATM   20  C   UNL     1      -0.911   9.564  28.531  0.00  0.00     0.026 A 
HETATM   21  C   UNL     1      -2.055  10.252  28.088  0.00  0.00     0.031 A 
ENDBRANCH  13  15
ENDBRANCH   8  11
BRANCH   9  22
HETATM   22  O   UNL     1      -2.584  14.365  27.646  0.00  0.00    -0.360 OA
HETATM   23  H   UNL     1      -3.550  14.278  27.484  0.00  0.00     0.217 HD
ENDBRANCH   9  22
BRANCH   1  24
HETATM   24  C   UNL     1      -0.303  13.861  21.342  0.00  0.00     0.100 C 
BRANCH  24  25
HETATM   25  C   UNL     1      -1.580  14.556  20.943  0.00  0.00    -0.052 A 
HETATM   26  C   UNL     1      -2.704  13.797  20.580  0.00  0.00     0.014 A 
HETATM   27  C   UNL     1      -3.882  14.416  20.144  0.00  0.00    -0.061 A 
HETATM   28  C   UNL     1      -5.023  13.595  19.624  0.00  0.00     0.048 C 
HETATM   29  C   UNL     1      -3.951  15.812  20.120  0.00  0.00     0.007 A 
HETATM   30  C   UNL     1      -2.866  16.579  20.540  0.00  0.00     0.001 A 
HETATM   31  C   UNL     1      -1.688  15.954  20.951  0.00  0.00     0.007 A 
ENDBRANCH  24  25
ENDBRANCH   1  24
TORSDOF 5
ENDMDL
MODEL 3
REMARK VINA RESULT:    -8.241      3.173      6.545
REMARK INTER + INTRA:         -11.916
REMARK INTER:                 -10.161
REMARK INTRA:                  -1.755
REMARK UNBOUND:                -1.506
REMARK  5 active torsions:
REMARK  status: ('A' for Active; 'I' for Inactive)
REMARK    1  A    between atoms: C_7  and  C_8 
REMARK    2  A    between atoms: C_8  and  C_9 
REMARK    3  A    between atoms: C_16  and  C_20 
REMARK    4  A    between atoms: C_17  and  O_19 
REMARK       I    between atoms: C_20  and  N_22 
REMARK    5  A    between atoms: N_22  and  C_24 
ROOT
HETATM    1  C   UNL     1      -2.667  12.062  26.433  0.00  0.00     0.071 C 
HETATM    2  N   UNL     1      -3.319  12.702  27.419  0.00  0.00    -0.178 NA
HETATM    3  N   UNL     1      -2.747  13.913  27.457  0.00  0.00    -0.277 N 
HETATM    4  H   UNL     1      -3.083  14.580  28.140  0.00  0.00     0.189 HD
HETATM    5  C   UNL     1      -1.673  12.896  25.834  0.00  0.00     0.020 C 
HETATM    6  C   UNL     1      -1.698  14.061  26.595  0.00  0.00     0.065 C 
HETATM    7  C   UNL     1      -0.720  12.782  24.797  0.00  0.00     0.035 C 
HETATM    8  C   UNL     1       0.216  13.820  24.613  0.00  0.00     0.066 C 
HETATM    9  C   UNL     1       0.235  14.905  25.503  0.00  0.00     0.083 C 
HETATM   10  C   UNL     1      -0.761  15.087  26.462  0.00  0.00     0.069 C 
ENDROOT
BRANCH   8  11
HETATM   11  C   UNL     1       1.237  13.758  23.525  0.00  0.00     0.260 C 
HETATM   12  O   UNL     1       2.387  13.499  23.895  0.00  0.00    -0.267 OA
HETATM   13  N   UNL     1       0.879  13.930  22.173  0.00  0.00    -0.318 N 
HETATM   14  C   UNL     1       1.870  13.564  21.161  0.00  0.00     0.159 C 
BRANCH  13  15
HETATM   15  C   UNL     1      -0.313  14.566  21.702  0.00  0.00     0.037 A 
HETATM   16  C   UNL     1      -1.443  13.814  21.347  0.00  0.00     0.031 A 
HETATM   17  C   UNL     1      -2.579  14.424  20.800  0.00  0.00     0.026 A 
HETATM   18  C   UNL     1      -2.615  15.810  20.650  0.00  0.00     0.034 A 
HETATM   19 CL   UNL     1      -3.995  16.549  19.955  0.00  0.00    -0.084 Cl
HETATM   20  C   UNL     1      -1.534  16.579  21.071  0.00  0.00     0.026 A 
HETATM   21  C   UNL     1      -0.391  15.960  21.609  0.00  0.00     0.031 A 
ENDBRANCH  13  15
ENDBRANCH   8  11
BRANCH   9  22
HETATM   22  O   UNL     1       1.246  15.832  25.520  0.00  0.00    -0.360 OA
HETATM   23  H   UNL     1       2.047  15.369  25.853  0.00  0.00     0.217 HD
ENDBRANCH   9  22
BRANCH   1  24
HETATM   24  C   UNL     1      -2.923  10.602  26.206  0.00  0.00     0.100 C 
BRANCH  24  25
HETATM   25  C   UNL     1      -1.610   9.870  26.326  0.00  0.00    -0.052 A 
HETATM   26  C   UNL     1      -0.998   9.344  25.177  0.00  0.00     0.014 A 
HETATM   27  C   UNL     1       0.189   8.605  25.268  0.00  0.00    -0.061 A 
HETATM   28  C   UNL     1       0.755   7.928  24.057  0.00  0.00     0.048 C 
HETATM   29  C   UNL     1       0.794   8.434  26.517  0.00  0.00     0.007 A 
HETATM   30  C   UNL     1       0.232   9.007  27.656  0.00  0.00     0.001 A 
HETATM   31  C   UNL     1      -0.962   9.722  27.561  0.00  0.00     0.007 A 
ENDBRANCH  24  25
ENDBRANCH   1  24
TORSDOF 5
ENDMDL
MODEL 4
REMARK VINA RESULT:    -8.166      2.678      4.195
REMARK INTER + INTRA:         -11.821
REMARK INTER:                 -10.798
REMARK INTRA:                  -1.023
REMARK UNBOUND:                -1.506
REMARK  5 active torsions:
REMARK  status: ('A' for Active; 'I' for Inactive)
REMARK    1  A    between atoms: C_7  and  C_8 
REMARK    2  A    between atoms: C_8  and  C_9 
REMARK    3  A    between atoms: C_16  and  C_20 
REMARK    4  A    between atoms: C_17  and  O_19 
REMARK       I    between atoms: C_20  and  N_22 
REMARK    5  A    between atoms: N_22  and  C_24 
ROOT
HETATM    1  C   UNL     1      -2.298  12.096  22.442  0.00  0.00     0.071 C 
HETATM    2  N   UNL     1      -2.861  10.916  22.129  0.00  0.00    -0.178 NA
HETATM    3  N   UNL     1      -3.318  10.452  23.300  0.00  0.00    -0.277 N 
HETATM    4  H   UNL     1      -3.789   9.555  23.309  0.00  0.00     0.189 HD
HETATM    5  C   UNL     1      -2.418  12.381  23.837  0.00  0.00     0.020 C 
HETATM    6  C   UNL     1      -3.008  11.239  24.372  0.00  0.00     0.065 C 
HETATM    7  C   UNL     1      -2.041  13.424  24.713  0.00  0.00     0.035 C 
HETATM    8  C   UNL     1      -2.211  13.246  26.101  0.00  0.00     0.066 C 
HETATM    9  C   UNL     1      -2.677  12.017  26.592  0.00  0.00     0.083 C 
HETATM   10  C   UNL     1      -3.153  11.018  25.743  0.00  0.00     0.069 C 
ENDROOT
BRANCH   8  11
HETATM   11  C   UNL     1      -1.843  14.320  27.070  0.00  0.00     0.260 C 
HETATM   12  O   UNL     1      -2.602  14.440  28.037  0.00  0.00    -0.267 OA
HETATM   13  N   UNL     1      -0.675  15.090  26.902  0.00  0.00    -0.318 N 
HETATM   14  C   UNL     1      -0.235  15.905  28.036  0.00  0.00     0.159 C 
BRANCH  13  15
HETATM   15  C   UNL     1       0.040  15.260  25.675  0.00  0.00     0.037 A 
HETATM   16  C   UNL     1      -0.475  16.056  24.641  0.00  0.00     0.031 A 
HETATM   17  C   UNL     1       0.178  16.153  23.405  0.00  0.00     0.026 A 
HETATM   18  C   UNL     1       1.387  15.488  23.209  0.00  0.00     0.034 A 
HETATM   19 CL   UNL     1       2.167  15.586  21.686  0.00  0.00    -0.084 Cl
HETATM   20  C   UNL     1       1.953  14.759  24.250  0.00  0.00     0.026 A 
HETATM   21  C   UNL     1       1.288  14.655  25.485  0.00  0.00     0.031 A 
ENDBRANCH  13  15
ENDBRANCH   8  11
BRANCH   9  22
HETATM   22  O   UNL     1      -2.658  11.697  27.926  0.00  0.00    -0.360 OA
HETATM   23  H   UNL     1      -3.328  10.988  28.055  0.00  0.00     0.217 HD
ENDBRANCH   9  22
BRANCH   1  24
HETATM   24  C   UNL     1      -1.521  12.842  21.399  0.00  0.00     0.100 C 
BRANCH  24  25
HETATM   25  C   UNL     1      -2.424  13.890  20.799  0.00  0.00    -0.052 A 
HETATM   26  C   UNL     1      -3.602  13.503  20.143  0.00  0.00     0.014 A 
HETATM   27  C   UNL     1      -4.426  14.451  19.522  0.00  0.00    -0.061 A 
HETATM   28  C   UNL     1      -5.602  14.014  18.704  0.00  0.00     0.048 C 
HETATM   29  C   UNL     1      -4.089  15.806  19.603  0.00  0.00     0.007 A 
HETATM   30  C   UNL     1      -2.958  16.210  20.308  0.00  0.00     0.001 A 
HETATM   31  C   UNL     1      -2.131  15.258  20.903  0.00  0.00     0.007 A 
ENDBRANCH  24  25
ENDBRANCH   1  24
TORSDOF 5
ENDMDL
MODEL 5
REMARK VINA RESULT:    -7.973      2.649      4.493
REMARK INTER + INTRA:         -11.577
REMARK INTER:                 -10.289
REMARK INTRA:                  -1.288
REMARK UNBOUND:                -1.506
REMARK  5 active torsions:
REMARK  status: ('A' for Active; 'I' for Inactive)
REMARK    1  A    between atoms: C_7  and  C_8 
REMARK    2  A    between atoms: C_8  and  C_9 
REMARK    3  A    between atoms: C_16  and  C_20 
REMARK    4  A    between atoms: C_17  and  O_19 
REMARK       I    between atoms: C_20  and  N_22 
REMARK    5  A    between atoms: N_22  and  C_24 
ROOT
HETATM    1  C   UNL     1       0.614  14.731  23.072  0.00  0.00     0.071 C 
HETATM    2  N   UNL     1       1.568  15.527  23.585  0.00  0.00    -0.178 NA
HETATM    3  N   UNL     1       1.233  15.646  24.877  0.00  0.00    -0.277 N 
HETATM    4  H   UNL     1       1.822  16.215  25.474  0.00  0.00     0.189 HD
HETATM    5  C   UNL     1      -0.330  14.334  24.068  0.00  0.00     0.020 C 
HETATM    6  C   UNL     1       0.061  15.029  25.209  0.00  0.00     0.065 C 
HETATM    7  C   UNL     1      -1.494  13.536  24.126  0.00  0.00     0.035 C 
HETATM    8  C   UNL     1      -2.257  13.524  25.311  0.00  0.00     0.066 C 
HETATM    9  C   UNL     1      -1.893  14.357  26.380  0.00  0.00     0.083 C 
HETATM   10  C   UNL     1      -0.693  15.068  26.383  0.00  0.00     0.069 C 
ENDROOT
BRANCH   8  11
HETATM   11  C   UNL     1      -3.488  12.688  25.432  0.00  0.00     0.260 C 
HETATM   12  O   UNL     1      -4.551  13.318  25.471  0.00  0.00    -0.267 OA
HETATM   13  N   UNL     1      -3.421  11.281  25.441  0.00  0.00    -0.318 N 
HETATM   14  C   UNL     1      -4.674  10.545  25.264  0.00  0.00     0.159 C 
BRANCH  13  15
HETATM   15  C   UNL     1      -2.261  10.505  25.753  0.00  0.00     0.037 A 
HETATM   16  C   UNL     1      -1.495   9.910  24.739  0.00  0.00     0.031 A 
HETATM   17  C   UNL     1      -0.411   9.075  25.044  0.00  0.00     0.026 A 
HETATM   18  C   UNL     1      -0.051   8.868  26.375  0.00  0.00     0.034 A 
HETATM   19 CL   UNL     1       1.256   7.823  26.742  0.00  0.00    -0.084 Cl
HETATM   20  C   UNL     1      -0.751   9.513  27.389  0.00  0.00     0.026 A 
HETATM   21  C   UNL     1      -1.845  10.341  27.079  0.00  0.00     0.031 A 
ENDBRANCH  13  15
ENDBRANCH   8  11
BRANCH   9  22
HETATM   22  O   UNL     1      -2.702  14.561  27.469  0.00  0.00    -0.360 OA
HETATM   23  H   UNL     1      -3.628  14.534  27.142  0.00  0.00     0.217 HD
ENDBRANCH   9  22
BRANCH   1  24
HETATM   24  C   UNL     1       0.560  14.506  21.591  0.00  0.00     0.100 C 
BRANCH  24  25
HETATM   25  C   UNL     1      -0.885  14.344  21.191  0.00  0.00    -0.052 A 
HETATM   26  C   UNL     1      -1.675  15.480  20.955  0.00  0.00     0.014 A 
HETATM   27  C   UNL     1      -3.035  15.359  20.645  0.00  0.00    -0.061 A 
HETATM   28  C   UNL     1      -3.900  16.579  20.537  0.00  0.00     0.048 C 
HETATM   29  C   UNL     1      -3.598  14.085  20.520  0.00  0.00     0.007 A 
HETATM   30  C   UNL     1      -2.810  12.948  20.686  0.00  0.00     0.001 A 
HETATM   31  C   UNL     1      -1.461  13.077  21.018  0.00  0.00     0.007 A 
ENDBRANCH  24  25
ENDBRANCH   1  24
TORSDOF 5
ENDMDL
MODEL 6
REMARK VINA RESULT:    -7.900      2.738      4.592
REMARK INTER + INTRA:         -11.485
REMARK INTER:                  -9.636
REMARK INTRA:                  -1.849
REMARK UNBOUND:                -1.506
REMARK  5 active torsions:
REMARK  status: ('A' for Active; 'I' for Inactive)
REMARK    1  A    between atoms: C_7  and  C_8 
REMARK    2  A    between atoms: C_8  and  C_9 
REMARK    3  A    between atoms: C_16  and  C_20 
REMARK    4  A    between atoms: C_17  and  O_19 
REMARK       I    between atoms: C_20  and  N_22 
REMARK    5  A    between atoms: N_22  and  C_24 
ROOT
HETATM    1  C   UNL     1       1.839  14.187  24.208  0.00  0.00     0.071 C 
HETATM    2  N   UNL     1       2.279  15.263  24.881  0.00  0.00    -0.178 NA
HETATM    3  N   UNL     1       1.336  15.477  25.809  0.00  0.00    -0.277 N 
HETATM    4  H   UNL     1       1.458  16.256  26.446  0.00  0.00     0.189 HD
HETATM    5  C   UNL     1       0.599  13.710  24.736  0.00  0.00     0.020 C 
HETATM    6  C   UNL     1       0.263  14.637  25.718  0.00  0.00     0.065 C 
HETATM    7  C   UNL     1      -0.304  12.659  24.457  0.00  0.00     0.035 C 
HETATM    8  C   UNL     1      -1.541  12.624  25.133  0.00  0.00     0.066 C 
HETATM    9  C   UNL     1      -1.885  13.666  26.008  0.00  0.00     0.083 C 
HETATM   10  C   UNL     1      -0.968  14.651  26.375  0.00  0.00     0.069 C 
ENDROOT
BRANCH   8  11
HETATM   11  C   UNL     1      -2.526  11.530  24.888  0.00  0.00     0.260 C 
HETATM   12  O   UNL     1      -2.376  10.520  25.584  0.00  0.00    -0.267 OA
HETATM   13  N   UNL     1      -3.579  11.684  23.964  0.00  0.00    -0.318 N 
HETATM   14  C   UNL     1      -4.658  10.696  24.000  0.00  0.00     0.159 C 
BRANCH  13  15
HETATM   15  C   UNL     1      -3.617  12.636  22.897  0.00  0.00     0.037 A 
HETATM   16  C   UNL     1      -4.376  13.811  23.003  0.00  0.00     0.031 A 
HETATM   17  C   UNL     1      -4.488  14.702  21.927  0.00  0.00     0.026 A 
HETATM   18  C   UNL     1      -3.796  14.447  20.744  0.00  0.00     0.034 A 
HETATM   19 CL   UNL     1      -3.960  15.524  19.421  0.00  0.00    -0.084 Cl
HETATM   20  C   UNL     1      -2.975  13.327  20.650  0.00  0.00     0.026 A 
HETATM   21  C   UNL     1      -2.875  12.430  21.729  0.00  0.00     0.031 A 
ENDBRANCH  13  15
ENDBRANCH   8  11
BRANCH   9  22
HETATM   22  O   UNL     1      -3.146  13.812  26.526  0.00  0.00    -0.360 OA
HETATM   23  H   UNL     1      -3.297  14.778  26.634  0.00  0.00     0.217 HD
ENDBRANCH   9  22
BRANCH   1  24
HETATM   24  C   UNL     1       2.559  13.746  22.970  0.00  0.00     0.100 C 
BRANCH  24  25
HETATM   25  C   UNL     1       2.289  14.756  21.883  0.00  0.00    -0.052 A 
HETATM   26  C   UNL     1       0.992  15.264  21.709  0.00  0.00     0.014 A 
HETATM   27  C   UNL     1       0.701  16.155  20.668  0.00  0.00    -0.061 A 
HETATM   28  C   UNL     1      -0.712  16.578  20.405  0.00  0.00     0.048 C 
HETATM   29  C   UNL     1       1.732  16.579  19.823  0.00  0.00     0.007 A 
HETATM   30  C   UNL     1       3.037  16.134  20.025  0.00  0.00     0.001 A 
HETATM   31  C   UNL     1       3.314  15.229  21.050  0.00  0.00     0.007 A 
ENDBRANCH  24  25
ENDBRANCH   1  24
TORSDOF 5
ENDMDL
MODEL 7
REMARK VINA RESULT:    -7.888      3.033      4.325
REMARK INTER + INTRA:         -11.470
REMARK INTER:                 -10.401
REMARK INTRA:                  -1.069
REMARK UNBOUND:                -1.506
REMARK  5 active torsions:
REMARK  status: ('A' for Active; 'I' for Inactive)
REMARK    1  A    between atoms: C_7  and  C_8 
REMARK    2  A    between atoms: C_8  and  C_9 
REMARK    3  A    between atoms: C_16  and  C_20 
REMARK    4  A    between atoms: C_17  and  O_19 
REMARK       I    between atoms: C_20  and  N_22 
REMARK    5  A    between atoms: N_22  and  C_24 
ROOT
HETATM    1  C   UNL     1      -1.850  11.656  22.499  0.00  0.00     0.071 C 
HETATM    2  N   UNL     1      -2.860  12.108  21.737  0.00  0.00    -0.178 NA
HETATM    3  N   UNL     1      -3.901  12.174  22.579  0.00  0.00    -0.277 N 
HETATM    4  H   UNL     1      -4.791  12.495  22.217  0.00  0.00     0.189 HD
HETATM    5  C   UNL     1      -2.266  11.447  23.851  0.00  0.00     0.020 C 
HETATM    6  C   UNL     1      -3.633  11.709  23.835  0.00  0.00     0.065 C 
HETATM    7  C   UNL     1      -1.673  11.005  25.055  0.00  0.00     0.035 C 
HETATM    8  C   UNL     1      -2.495  10.780  26.178  0.00  0.00     0.066 C 
HETATM    9  C   UNL     1      -3.886  10.923  26.062  0.00  0.00     0.083 C 
HETATM   10  C   UNL     1      -4.477  11.459  24.918  0.00  0.00     0.069 C 
ENDROOT
BRANCH   8  11
HETATM   11  C   UNL     1      -1.921  10.326  27.479  0.00  0.00     0.260 C 
HETATM   12  O   UNL     1      -2.417  10.846  28.484  0.00  0.00    -0.267 OA
HETATM   13  N   UNL     1      -0.923   9.333  27.534  0.00  0.00    -0.318 N 
HETATM   14  C   UNL     1      -0.631   8.741  28.841  0.00  0.00     0.159 C 
BRANCH  13  15
HETATM   15  C   UNL     1      -0.068   8.951  26.453  0.00  0.00     0.037 A 
HETATM   16  C   UNL     1      -0.410   7.892  25.599  0.00  0.00     0.031 A 
HETATM   17  C   UNL     1       0.466   7.457  24.595  0.00  0.00     0.026 A 
HETATM   18  C   UNL     1       1.680   8.116  24.403  0.00  0.00     0.034 A 
HETATM   19 CL   UNL     1       2.760   7.562  23.194  0.00  0.00    -0.084 Cl
HETATM   20  C   UNL     1       2.000   9.219  25.190  0.00  0.00     0.026 A 
HETATM   21  C   UNL     1       1.122   9.644  26.204  0.00  0.00     0.031 A 
ENDBRANCH  13  15
ENDBRANCH   8  11
BRANCH   9  22
HETATM   22  O   UNL     1      -4.757  10.512  27.038  0.00  0.00    -0.360 OA
HETATM   23  H   UNL     1      -4.453  10.921  27.879  0.00  0.00     0.217 HD
ENDBRANCH   9  22
BRANCH   1  24
HETATM   24  C   UNL     1      -0.547  11.291  21.855  0.00  0.00     0.100 C 
BRANCH  24  25
HETATM   25  C   UNL     1       0.478  12.326  22.246  0.00  0.00    -0.052 A 
HETATM   26  C   UNL     1       0.896  13.283  21.308  0.00  0.00     0.014 A 
HETATM   27  C   UNL     1       1.891  14.216  21.624  0.00  0.00    -0.061 A 
HETATM   28  C   UNL     1       2.430  15.136  20.572  0.00  0.00     0.048 C 
HETATM   29  C   UNL     1       2.438  14.221  22.911  0.00  0.00     0.007 A 
HETATM   30  C   UNL     1       1.986  13.320  23.873  0.00  0.00     0.001 A 
HETATM   31  C   UNL     1       1.010  12.380  23.543  0.00  0.00     0.007 A 
ENDBRANCH  24  25
ENDBRANCH   1  24
TORSDOF 5
ENDMDL
MODEL 8
REMARK VINA RESULT:    -7.844      2.297      3.199
REMARK INTER + INTRA:         -11.414
REMARK INTER:                 -10.711
REMARK INTRA:                  -0.703
REMARK UNBOUND:                -1.506
REMARK  5 active torsions:
REMARK  status: ('A' for Active; 'I' for Inactive)
REMARK    1  A    between atoms: C_7  and  C_8 
REMARK    2  A    between atoms: C_8  and  C_9 
REMARK    3  A    between atoms: C_16  and  C_20 
REMARK    4  A    between atoms: C_17  and  O_19 
REMARK       I    between atoms: C_20  and  N_22 
REMARK    5  A    between atoms: N_22  and  C_24 
ROOT
HETATM    1  C   UNL     1       0.218  15.373  23.169  0.00  0.00     0.071 C 
HETATM    2  N   UNL     1       0.289  16.117  22.052  0.00  0.00    -0.178 NA
HETATM    3  N   UNL     1      -0.946  16.048  21.535  0.00  0.00    -0.277 N 
HETATM    4  H   UNL     1      -1.132  16.543  20.670  0.00  0.00     0.189 HD
HETATM    5  C   UNL     1      -1.093  14.838  23.360  0.00  0.00     0.020 C 
HETATM    6  C   UNL     1      -1.794  15.227  22.222  0.00  0.00     0.065 C 
HETATM    7  C   UNL     1      -1.744  14.023  24.313  0.00  0.00     0.035 C 
HETATM    8  C   UNL     1      -3.055  13.575  24.047  0.00  0.00     0.066 C 
HETATM    9  C   UNL     1      -3.658  13.881  22.818  0.00  0.00     0.083 C 
HETATM   10  C   UNL     1      -3.076  14.770  21.913  0.00  0.00     0.069 C 
ENDROOT
BRANCH   8  11
HETATM   11  C   UNL     1      -3.795  12.724  25.024  0.00  0.00     0.260 C 
HETATM   12  O   UNL     1      -4.790  13.250  25.534  0.00  0.00    -0.267 OA
HETATM   13  N   UNL     1      -3.401  11.396  25.286  0.00  0.00    -0.318 N 
HETATM   14  C   UNL     1      -4.340  10.546  26.019  0.00  0.00     0.159 C 
BRANCH  13  15
HETATM   15  C   UNL     1      -2.106  10.846  25.027  0.00  0.00     0.037 A 
HETATM   16  C   UNL     1      -1.743  10.427  23.739  0.00  0.00     0.031 A 
HETATM   17  C   UNL     1      -0.510   9.804  23.499  0.00  0.00     0.026 A 
HETATM   18  C   UNL     1       0.397   9.642  24.545  0.00  0.00     0.034 A 
HETATM   19 CL   UNL     1       1.890   8.855  24.252  0.00  0.00    -0.084 Cl
HETATM   20  C   UNL     1       0.085  10.123  25.813  0.00  0.00     0.026 A 
HETATM   21  C   UNL     1      -1.158  10.737  26.051  0.00  0.00     0.031 A 
ENDBRANCH  13  15
ENDBRANCH   8  11
BRANCH   9  22
HETATM   22  O   UNL     1      -4.830  13.303  22.403  0.00  0.00    -0.360 OA
HETATM   23  H   UNL     1      -4.590  12.447  21.983  0.00  0.00     0.217 HD
ENDBRANCH   9  22
BRANCH   1  24
HETATM   24  C   UNL     1       1.471  15.076  23.936  0.00  0.00     0.100 C 
BRANCH  24  25
HETATM   25  C   UNL     1       2.569  14.774  22.948  0.00  0.00    -0.052 A 
HETATM   26  C   UNL     1       3.908  15.005  23.301  0.00  0.00     0.014 A 
HETATM   27  C   UNL     1       4.942  14.793  22.381  0.00  0.00    -0.061 A 
HETATM   28  C   UNL     1       6.350  15.179  22.719  0.00  0.00     0.048 C 
HETATM   29  C   UNL     1       4.635  14.297  21.110  0.00  0.00     0.007 A 
HETATM   30  C   UNL     1       3.317  14.000  20.769  0.00  0.00     0.001 A 
HETATM   31  C   UNL     1       2.291  14.235  21.683  0.00  0.00     0.007 A 
ENDBRANCH  24  25
ENDBRANCH   1  24
TORSDOF 5
ENDMDL
MODEL 9
REMARK VINA RESULT:    -7.791      3.046      4.130
REMARK INTER + INTRA:         -11.348
REMARK INTER:                  -9.841
REMARK INTRA:                  -1.506
REMARK UNBOUND:                -1.506
REMARK  5 active torsions:
REMARK  status: ('A' for Active; 'I' for Inactive)
REMARK    1  A    between atoms: C_7  and  C_8 
REMARK    2  A    between atoms: C_8  and  C_9 
REMARK    3  A    between atoms: C_16  and  C_20 
REMARK    4  A    between atoms: C_17  and  O_19 
REMARK       I    between atoms: C_20  and  N_22 
REMARK    5  A    between atoms: N_22  and  C_24 
ROOT
HETATM    1  C   UNL     1      -0.301  15.794  22.680  0.00  0.00     0.071 C 
HETATM    2  N   UNL     1      -1.239  16.578  22.123  0.00  0.00    -0.178 NA
HETATM    3  N   UNL     1      -2.123  15.714  21.606  0.00  0.00    -0.277 N 
HETATM    4  H   UNL     1      -2.933  16.088  21.125  0.00  0.00     0.189 HD
HETATM    5  C   UNL     1      -0.613  14.408  22.519  0.00  0.00     0.020 C 
HETATM    6  C   UNL     1      -1.762  14.403  21.733  0.00  0.00     0.065 C 
HETATM    7  C   UNL     1      -0.032  13.172  22.880  0.00  0.00     0.035 C 
HETATM    8  C   UNL     1      -0.594  11.981  22.376  0.00  0.00     0.066 C 
HETATM    9  C   UNL     1      -1.664  12.045  21.472  0.00  0.00     0.083 C 
HETATM   10  C   UNL     1      -2.317  13.245  21.188  0.00  0.00     0.069 C 
ENDROOT
BRANCH   8  11
HETATM   11  C   UNL     1      -0.029  10.646  22.736  0.00  0.00     0.260 C 
HETATM   12  O   UNL     1       0.753  10.165  21.910  0.00  0.00    -0.267 OA
HETATM   13  N   UNL     1      -0.337  10.026  23.963  0.00  0.00    -0.318 N 
HETATM   14  C   UNL     1       0.479   8.878  24.362  0.00  0.00     0.159 C 
BRANCH  13  15
HETATM   15  C   UNL     1      -1.467  10.327  24.787  0.00  0.00     0.037 A 
HETATM   16  C   UNL     1      -2.760  10.390  24.246  0.00  0.00     0.031 A 
HETATM   17  C   UNL     1      -3.857  10.773  25.030  0.00  0.00     0.026 A 
HETATM   18  C   UNL     1      -3.676  11.049  26.384  0.00  0.00     0.034 A 
HETATM   19 CL   UNL     1      -5.014  11.544  27.332  0.00  0.00    -0.084 Cl
HETATM   20  C   UNL     1      -2.414  10.914  26.955  0.00  0.00     0.026 A 
HETATM   21  C   UNL     1      -1.314  10.540  26.161  0.00  0.00     0.031 A 
ENDBRANCH  13  15
ENDBRANCH   8  11
BRANCH   9  22
HETATM   22  O   UNL     1      -2.113  10.951  20.777  0.00  0.00    -0.360 OA
HETATM   23  H   UNL     1      -3.096  10.980  20.809  0.00  0.00     0.217 HD
ENDBRANCH   9  22
BRANCH   1  24
HETATM   24  C   UNL     1       0.954  16.413  23.218  0.00  0.00     0.100 C 
BRANCH  24  25
HETATM   25  C   UNL     1       2.081  16.095  22.268  0.00  0.00    -0.052 A 
HETATM   26  C   UNL     1       3.236  15.456  22.744  0.00  0.00     0.014 A 
HETATM   27  C   UNL     1       4.322  15.206  21.897  0.00  0.00    -0.061 A 
HETATM   28  C   UNL     1       5.602  14.655  22.447  0.00  0.00     0.048 C 
HETATM   29  C   UNL     1       4.230  15.557  20.546  0.00  0.00     0.007 A 
HETATM   30  C   UNL     1       3.064  16.132  20.045  0.00  0.00     0.001 A 
HETATM   31  C   UNL     1       1.995  16.398  20.901  0.00  0.00     0.007 A 
ENDBRANCH  24  25
ENDBRANCH   1  24
TORSDOF 5
ENDMDL
