REMARK  5 active torsions:
REMARK  status: ('A' for Active; 'I' for Inactive)
REMARK    1  A    between atoms: C_7  and  C_8 
REMARK    2  A    between atoms: C_8  and  C_9 
REMARK    3  A    between atoms: C_16  and  C_20 
REMARK    4  A    between atoms: C_17  and  O_19 
REMARK       I    between atoms: C_20  and  N_22 
REMARK    5  A    between atoms: N_22  and  C_24 
ROOT
HETATM    1  C   UNL     1      -3.396   1.184  -0.283  0.00  0.00     0.071 C 
HETATM    2  N   UNL     1      -4.710   1.337  -0.047  0.00  0.00    -0.178 NA
HETATM    3  N   UNL     1      -4.895   2.664  -0.076  0.00  0.00    -0.277 N 
HETATM    4  H   UNL     1      -5.830   3.021   0.082  0.00  0.00     0.189 HD
HETATM    5  C   UNL     1      -2.748   2.443  -0.476  0.00  0.00     0.020 C 
HETATM    6  C   UNL     1      -3.746   3.384  -0.240  0.00  0.00     0.065 C 
HETATM    7  C   UNL     1      -1.438   2.897  -0.750  0.00  0.00     0.035 C 
HETATM    8  C   UNL     1      -1.172   4.281  -0.707  0.00  0.00     0.066 C 
HETATM    9  C   UNL     1      -2.185   5.172  -0.322  0.00  0.00     0.083 C 
HETATM   10  C   UNL     1      -3.506   4.756  -0.153  0.00  0.00     0.069 C 
ENDROOT
BRANCH   8  11
HETATM   11  C   UNL     1       0.190   4.817  -1.001  0.00  0.00     0.260 C 
HETATM   12  O   UNL     1       0.599   5.677  -0.214  0.00  0.00    -0.267 OA
HETATM   13  N   UNL     1       0.958   4.320  -2.073  0.00  0.00    -0.318 N 
HETATM   14  C   UNL     1       2.376   4.681  -2.111  0.00  0.00     0.159 C 
BRANCH  13  15
HETATM   15  C   UNL     1       0.446   3.613  -3.206  0.00  0.00     0.037 A 
HETATM   16  C   UNL     1      -0.827   3.898  -3.722  0.00  0.00     0.031 A 
HETATM   17  C   UNL     1      -1.369   3.147  -4.774  0.00  0.00     0.026 A 
HETATM   18  C   UNL     1      -0.615   2.129  -5.356  0.00  0.00     0.034 A 
HETATM   19 CL   UNL     1      -1.293   1.195  -6.622  0.00  0.00    -0.084 Cl
HETATM   20  C   UNL     1       0.680   1.885  -4.909  0.00  0.00     0.026 A 
HETATM   21  C   UNL     1       1.215   2.634  -3.845  0.00  0.00     0.031 A 
ENDBRANCH  13  15
ENDBRANCH   8  11
BRANCH   9  22
HETATM   22  O   UNL     1      -1.944   6.494  -0.047  0.00  0.00    -0.360 OA
HETATM   23  H   UNL     1      -1.006   6.556   0.241  0.00  0.00     0.217 HD
ENDBRANCH   9  22
BRANCH   1  24
HETATM   24  C   UNL     1      -2.778  -0.176  -0.159  0.00  0.00     0.100 C 
BRANCH  24  25
HETATM   25  C   UNL     1      -2.848  -0.850  -1.506  0.00  0.00    -0.052 A 
HETATM   26  C   UNL     1      -1.664  -1.197  -2.175  0.00  0.00     0.014 A 
HETATM   27  C   UNL     1      -1.699  -1.766  -3.454  0.00  0.00    -0.061 A 
HETATM   28  C   UNL     1      -0.430  -1.999  -4.216  0.00  0.00     0.048 C 
HETATM   29  C   UNL     1      -2.936  -2.036  -4.048  0.00  0.00     0.007 A 
HETATM   30  C   UNL     1      -4.120  -1.758  -3.368  0.00  0.00     0.001 A 
HETATM   31  C   UNL     1      -4.076  -1.170  -2.104  0.00  0.00     0.007 A 
ENDBRANCH  24  25
ENDBRANCH   1  24
TORSDOF 5
