MODEL 1
REMARK VINA RESULT:    -7.856      0.000      0.000
REMARK INTER + INTRA:         -12.259
REMARK INTER:                 -10.838
REMARK INTRA:                  -1.421
REMARK UNBOUND:                -2.336
REMARK  5 active torsions:
REMARK  status: ('A' for Active; 'I' for Inactive)
REMARK    1  A    between atoms: C_6  and  C_7 
REMARK    2  A    between atoms: C_7  and  C_8 
REMARK    3  A    between atoms: C_15  and  C_19 
REMARK    4  A    between atoms: C_16  and  O_18 
REMARK    5  A    between atoms: N_23  and  C_24 
ROOT
HETATM    1  C   UNL     1       4.074   7.881  19.056  0.00  0.00     0.071 A 
HETATM    2  N   UNL     1       5.245   7.886  18.393  0.00  0.00    -0.178 NA
HETATM    3  N   UNL     1       6.122   7.385  19.272  0.00  0.00    -0.277 N 
HETATM    4  H   UNL     1       7.092   7.315  18.994  0.00  0.00     0.189 HD
HETATM    5  C   UNL     1       4.227   7.385  20.388  0.00  0.00     0.020 A 
HETATM    6  C   UNL     1       5.579   7.079  20.491  0.00  0.00     0.065 A 
HETATM    7  C   UNL     1       3.403   7.217  21.532  0.00  0.00     0.032 A 
HETATM    8  C   UNL     1       3.932   6.713  22.744  0.00  0.00     0.027 A 
HETATM    9  C   UNL     1       5.315   6.440  22.768  0.00  0.00     0.080 A 
HETATM   10  C   UNL     1       6.164   6.609  21.661  0.00  0.00     0.069 A 
ENDROOT
BRANCH   8  11
HETATM   11  C   UNL     1       3.099   6.628  23.979  0.00  0.00     0.073 C 
HETATM   12  C   UNL     1       2.680   5.456  24.612  0.00  0.00     0.053 C 
HETATM   13  C   UNL     1       2.154   5.826  25.844  0.00  0.00     0.141 C 
HETATM   14  N   UNL     1       2.191   7.134  26.017  0.00  0.00    -0.179 NA
HETATM   15  N   UNL     1       2.599   7.653  24.815  0.00  0.00    -0.234 N 
BRANCH  15  16
HETATM   16  C   UNL     1       2.420   9.066  24.644  0.00  0.00     0.059 A 
HETATM   17  C   UNL     1       1.150   9.615  24.938  0.00  0.00     0.031 A 
HETATM   18  C   UNL     1       0.897  10.981  24.793  0.00  0.00     0.002 A 
HETATM   19  C   UNL     1       1.912  11.821  24.354  0.00  0.00     0.000 A 
HETATM   20  C   UNL     1       3.158  11.291  24.029  0.00  0.00     0.002 A 
HETATM   21  C   UNL     1       3.408   9.914  24.148  0.00  0.00     0.031 A 
ENDBRANCH  15  16
ENDBRANCH   8  11
BRANCH   9  22
HETATM   22  O   UNL     1       5.959   6.039  23.911  0.00  0.00    -0.360 OA
HETATM   23  H   UNL     1       6.663   6.697  24.050  0.00  0.00     0.217 HD
ENDBRANCH   9  22
BRANCH   1  24
HETATM   24  C   UNL     1       2.871   8.522  18.447  0.00  0.00     0.100 C 
BRANCH  24  25
HETATM   25  C   UNL     1       2.051   7.499  17.691  0.00  0.00    -0.052 A 
HETATM   26  C   UNL     1       2.124   7.383  16.293  0.00  0.00     0.007 A 
HETATM   27  C   UNL     1       1.210   6.593  15.592  0.00  0.00     0.001 A 
HETATM   28  C   UNL     1       0.212   5.904  16.279  0.00  0.00     0.000 A 
HETATM   29  C   UNL     1       0.148   5.979  17.667  0.00  0.00     0.001 A 
HETATM   30  C   UNL     1       1.064   6.766  18.370  0.00  0.00     0.007 A 
ENDBRANCH  24  25
ENDBRANCH   1  24
TORSDOF 5
ENDMDL
MODEL 2
REMARK VINA RESULT:    -7.684      2.006      3.536
REMARK INTER + INTRA:         -12.042
REMARK INTER:                 -10.631
REMARK INTRA:                  -1.411
REMARK UNBOUND:                -2.336
REMARK  5 active torsions:
REMARK  status: ('A' for Active; 'I' for Inactive)
REMARK    1  A    between atoms: C_6  and  C_7 
REMARK    2  A    between atoms: C_7  and  C_8 
REMARK    3  A    between atoms: C_15  and  C_19 
REMARK    4  A    between atoms: C_16  and  O_18 
REMARK    5  A    between atoms: N_23  and  C_24 
ROOT
HETATM    1  C   UNL     1       5.484   7.277  20.776  0.00  0.00     0.071 A 
HETATM    2  N   UNL     1       6.336   6.254  20.969  0.00  0.00    -0.178 NA
HETATM    3  N   UNL     1       6.226   5.975  22.274  0.00  0.00    -0.277 N 
HETATM    4  H   UNL     1       6.804   5.238  22.657  0.00  0.00     0.189 HD
HETATM    5  C   UNL     1       4.843   7.662  21.995  0.00  0.00     0.020 A 
HETATM    6  C   UNL     1       5.360   6.793  22.949  0.00  0.00     0.065 A 
HETATM    7  C   UNL     1       3.940   8.674  22.417  0.00  0.00     0.032 A 
HETATM    8  C   UNL     1       3.541   8.777  23.770  0.00  0.00     0.027 A 
HETATM    9  C   UNL     1       4.122   7.865  24.674  0.00  0.00     0.080 A 
HETATM   10  C   UNL     1       5.030   6.862  24.297  0.00  0.00     0.069 A 
ENDROOT
BRANCH   8  11
HETATM   11  C   UNL     1       2.674   9.897  24.239  0.00  0.00     0.073 C 
HETATM   12  C   UNL     1       2.905  11.259  24.038  0.00  0.00     0.053 C 
HETATM   13  C   UNL     1       1.743  11.927  24.405  0.00  0.00     0.141 C 
HETATM   14  N   UNL     1       0.817  11.092  24.840  0.00  0.00    -0.179 NA
HETATM   15  N   UNL     1       1.432   9.869  24.915  0.00  0.00    -0.234 N 
BRANCH  15  16
HETATM   16  C   UNL     1       0.735   8.856  25.654  0.00  0.00     0.059 A 
HETATM   17  C   UNL     1       0.585   9.036  27.049  0.00  0.00     0.031 A 
HETATM   18  C   UNL     1      -0.079   8.093  27.838  0.00  0.00     0.002 A 
HETATM   19  C   UNL     1      -0.606   6.955  27.241  0.00  0.00     0.000 A 
HETATM   20  C   UNL     1      -0.439   6.747  25.875  0.00  0.00     0.002 A 
HETATM   21  C   UNL     1       0.250   7.680  25.084  0.00  0.00     0.031 A 
ENDBRANCH  15  16
ENDBRANCH   8  11
BRANCH   9  22
HETATM   22  O   UNL     1       3.886   7.929  26.025  0.00  0.00    -0.360 OA
HETATM   23  H   UNL     1       4.232   8.796  26.302  0.00  0.00     0.217 HD
ENDBRANCH   9  22
BRANCH   1  24
HETATM   24  C   UNL     1       5.444   7.974  19.457  0.00  0.00     0.100 C 
BRANCH  24  25
HETATM   25  C   UNL     1       4.134   7.699  18.752  0.00  0.00    -0.052 A 
HETATM   26  C   UNL     1       3.955   6.560  17.948  0.00  0.00     0.007 A 
HETATM   27  C   UNL     1       2.827   6.428  17.135  0.00  0.00     0.001 A 
HETATM   28  C   UNL     1       1.860   7.431  17.115  0.00  0.00     0.000 A 
HETATM   29  C   UNL     1       2.003   8.549  17.932  0.00  0.00     0.001 A 
HETATM   30  C   UNL     1       3.129   8.680  18.749  0.00  0.00     0.007 A 
ENDBRANCH  24  25
ENDBRANCH   1  24
TORSDOF 5
ENDMDL
MODEL 3
REMARK VINA RESULT:    -7.650      1.495      6.888
REMARK INTER + INTRA:         -11.998
REMARK INTER:                 -10.992
REMARK INTRA:                  -1.006
REMARK UNBOUND:                -2.336
REMARK  5 active torsions:
REMARK  status: ('A' for Active; 'I' for Inactive)
REMARK    1  A    between atoms: C_6  and  C_7 
REMARK    2  A    between atoms: C_7  and  C_8 
REMARK    3  A    between atoms: C_15  and  C_19 
REMARK    4  A    between atoms: C_16  and  O_18 
REMARK    5  A    between atoms: N_23  and  C_24 
ROOT
HETATM    1  C   UNL     1       2.379   8.119  24.968  0.00  0.00     0.071 A 
HETATM    2  N   UNL     1       1.572   7.189  25.511  0.00  0.00    -0.178 NA
HETATM    3  N   UNL     1       1.719   6.121  24.717  0.00  0.00    -0.277 N 
HETATM    4  H   UNL     1       1.178   5.292  24.924  0.00  0.00     0.189 HD
HETATM    5  C   UNL     1       3.029   7.627  23.793  0.00  0.00     0.020 A 
HETATM    6  C   UNL     1       2.566   6.324  23.660  0.00  0.00     0.065 A 
HETATM    7  C   UNL     1       3.899   8.144  22.797  0.00  0.00     0.032 A 
HETATM    8  C   UNL     1       4.321   7.342  21.709  0.00  0.00     0.027 A 
HETATM    9  C   UNL     1       3.794   6.036  21.643  0.00  0.00     0.080 A 
HETATM   10  C   UNL     1       2.919   5.496  22.600  0.00  0.00     0.069 A 
ENDROOT
BRANCH   8  11
HETATM   11  C   UNL     1       5.152   7.906  20.607  0.00  0.00     0.073 C 
HETATM   12  C   UNL     1       6.395   8.527  20.746  0.00  0.00     0.053 C 
HETATM   13  C   UNL     1       6.925   8.667  19.469  0.00  0.00     0.141 C 
HETATM   14  N   UNL     1       6.102   8.205  18.546  0.00  0.00    -0.179 NA
HETATM   15  N   UNL     1       4.940   7.901  19.209  0.00  0.00    -0.234 N 
BRANCH  15  16
HETATM   16  C   UNL     1       3.785   7.676  18.388  0.00  0.00     0.059 A 
HETATM   17  C   UNL     1       2.741   8.629  18.435  0.00  0.00     0.031 A 
HETATM   18  C   UNL     1       1.583   8.478  17.667  0.00  0.00     0.002 A 
HETATM   19  C   UNL     1       1.454   7.372  16.838  0.00  0.00     0.000 A 
HETATM   20  C   UNL     1       2.458   6.409  16.805  0.00  0.00     0.002 A 
HETATM   21  C   UNL     1       3.612   6.544  17.594  0.00  0.00     0.031 A 
ENDBRANCH  15  16
ENDBRANCH   8  11
BRANCH   9  22
HETATM   22  O   UNL     1       4.054   5.200  20.586  0.00  0.00    -0.360 OA
HETATM   23  H   UNL     1       5.015   5.048  20.612  0.00  0.00     0.217 HD
ENDBRANCH   9  22
BRANCH   1  24
HETATM   24  C   UNL     1       2.366   9.516  25.494  0.00  0.00     0.100 C 
BRANCH  24  25
HETATM   25  C   UNL     1       1.276  10.324  24.824  0.00  0.00    -0.052 A 
HETATM   26  C   UNL     1       1.501  11.637  24.378  0.00  0.00     0.007 A 
HETATM   27  C   UNL     1       0.438  12.444  23.963  0.00  0.00     0.001 A 
HETATM   28  C   UNL     1      -0.864  11.948  23.984  0.00  0.00     0.000 A 
HETATM   29  C   UNL     1      -1.100  10.637  24.389  0.00  0.00     0.001 A 
HETATM   30  C   UNL     1      -0.038   9.828  24.801  0.00  0.00     0.007 A 
ENDBRANCH  24  25
ENDBRANCH   1  24
TORSDOF 5
ENDMDL
MODEL 4
REMARK VINA RESULT:    -7.617      3.263      5.615
REMARK INTER + INTRA:         -11.956
REMARK INTER:                 -11.274
REMARK INTRA:                  -0.683
REMARK UNBOUND:                -2.336
REMARK  5 active torsions:
REMARK  status: ('A' for Active; 'I' for Inactive)
REMARK    1  A    between atoms: C_6  and  C_7 
REMARK    2  A    between atoms: C_7  and  C_8 
REMARK    3  A    between atoms: C_15  and  C_19 
REMARK    4  A    between atoms: C_16  and  O_18 
REMARK    5  A    between atoms: N_23  and  C_24 
ROOT
HETATM    1  C   UNL     1       3.021   7.591  23.698  0.00  0.00     0.071 A 
HETATM    2  N   UNL     1       3.339   6.291  23.568  0.00  0.00    -0.178 NA
HETATM    3  N   UNL     1       2.464   5.658  24.359  0.00  0.00    -0.277 N 
HETATM    4  H   UNL     1       2.530   4.651  24.439  0.00  0.00     0.189 HD
HETATM    5  C   UNL     1       1.935   7.778  24.609  0.00  0.00     0.020 A 
HETATM    6  C   UNL     1       1.606   6.493  25.023  0.00  0.00     0.065 A 
HETATM    7  C   UNL     1       1.236   8.876  25.177  0.00  0.00     0.032 A 
HETATM    8  C   UNL     1       0.199   8.671  26.118  0.00  0.00     0.027 A 
HETATM    9  C   UNL     1      -0.063   7.338  26.493  0.00  0.00     0.080 A 
HETATM   10  C   UNL     1       0.618   6.229  25.965  0.00  0.00     0.069 A 
ENDROOT
BRANCH   8  11
HETATM   11  C   UNL     1      -0.471   9.820  26.795  0.00  0.00     0.073 C 
HETATM   12  C   UNL     1      -0.833   9.886  28.142  0.00  0.00     0.053 C 
HETATM   13  C   UNL     1      -1.187  11.204  28.403  0.00  0.00     0.141 C 
HETATM   14  N   UNL     1      -1.097  11.956  27.323  0.00  0.00    -0.179 NA
HETATM   15  N   UNL     1      -0.835  11.090  26.292  0.00  0.00    -0.234 N 
BRANCH  15  16
HETATM   16  C   UNL     1      -1.001  11.615  24.968  0.00  0.00     0.059 A 
HETATM   17  C   UNL     1      -0.101  12.615  24.531  0.00  0.00     0.031 A 
HETATM   18  C   UNL     1      -0.199  13.177  23.257  0.00  0.00     0.002 A 
HETATM   19  C   UNL     1      -1.200  12.746  22.396  0.00  0.00     0.000 A 
HETATM   20  C   UNL     1      -2.115  11.787  22.822  0.00  0.00     0.002 A 
HETATM   21  C   UNL     1      -2.034  11.238  24.112  0.00  0.00     0.031 A 
ENDBRANCH  15  16
ENDBRANCH   8  11
BRANCH   9  22
HETATM   22  O   UNL     1      -0.978   7.022  27.466  0.00  0.00    -0.360 OA
HETATM   23  H   UNL     1      -1.333   7.877  27.768  0.00  0.00     0.217 HD
ENDBRANCH   9  22
BRANCH   1  24
HETATM   24  C   UNL     1       3.889   8.636  23.077  0.00  0.00     0.100 C 
BRANCH  24  25
HETATM   25  C   UNL     1       4.481   8.130  21.779  0.00  0.00    -0.052 A 
HETATM   26  C   UNL     1       5.735   7.496  21.738  0.00  0.00     0.007 A 
HETATM   27  C   UNL     1       6.363   7.232  20.519  0.00  0.00     0.001 A 
HETATM   28  C   UNL     1       5.746   7.593  19.323  0.00  0.00     0.000 A 
HETATM   29  C   UNL     1       4.488   8.189  19.344  0.00  0.00     0.001 A 
HETATM   30  C   UNL     1       3.857   8.451  20.563  0.00  0.00     0.007 A 
ENDBRANCH  24  25
ENDBRANCH   1  24
TORSDOF 5
ENDMDL
MODEL 5
REMARK VINA RESULT:    -7.612      1.585      6.797
REMARK INTER + INTRA:         -11.950
REMARK INTER:                 -11.065
REMARK INTRA:                  -0.886
REMARK UNBOUND:                -2.336
REMARK  5 active torsions:
REMARK  status: ('A' for Active; 'I' for Inactive)
REMARK    1  A    between atoms: C_6  and  C_7 
REMARK    2  A    between atoms: C_7  and  C_8 
REMARK    3  A    between atoms: C_15  and  C_19 
REMARK    4  A    between atoms: C_16  and  O_18 
REMARK    5  A    between atoms: N_23  and  C_24 
ROOT
HETATM    1  C   UNL     1       2.586   9.995  24.840  0.00  0.00     0.071 A 
HETATM    2  N   UNL     1       2.100   9.303  25.887  0.00  0.00    -0.178 NA
HETATM    3  N   UNL     1       2.531   8.052  25.683  0.00  0.00    -0.277 N 
HETATM    4  H   UNL     1       2.262   7.338  26.347  0.00  0.00     0.189 HD
HETATM    5  C   UNL     1       3.320   9.152  23.949  0.00  0.00     0.020 A 
HETATM    6  C   UNL     1       3.254   7.892  24.531  0.00  0.00     0.065 A 
HETATM    7  C   UNL     1       3.976   9.289  22.697  0.00  0.00     0.032 A 
HETATM    8  C   UNL     1       4.585   8.177  22.067  0.00  0.00     0.027 A 
HETATM    9  C   UNL     1       4.461   6.933  22.718  0.00  0.00     0.080 A 
HETATM   10  C   UNL     1       3.807   6.756  23.949  0.00  0.00     0.069 A 
ENDROOT
BRANCH   8  11
HETATM   11  C   UNL     1       5.187   8.290  20.707  0.00  0.00     0.073 C 
HETATM   12  C   UNL     1       6.440   8.825  20.402  0.00  0.00     0.053 C 
HETATM   13  C   UNL     1       6.706   8.505  19.076  0.00  0.00     0.141 C 
HETATM   14  N   UNL     1       5.710   7.835  18.526  0.00  0.00    -0.179 NA
HETATM   15  N   UNL     1       4.700   7.852  19.454  0.00  0.00    -0.234 N 
BRANCH  15  16
HETATM   16  C   UNL     1       3.402   7.464  18.981  0.00  0.00     0.059 A 
HETATM   17  C   UNL     1       2.721   8.346  18.109  0.00  0.00     0.031 A 
HETATM   18  C   UNL     1       1.453   8.040  17.609  0.00  0.00     0.002 A 
HETATM   19  C   UNL     1       0.847   6.845  17.972  0.00  0.00     0.000 A 
HETATM   20  C   UNL     1       1.489   5.982  18.855  0.00  0.00     0.002 A 
HETATM   21  C   UNL     1       2.752   6.298  19.380  0.00  0.00     0.031 A 
ENDBRANCH  15  16
ENDBRANCH   8  11
BRANCH   9  22
HETATM   22  O   UNL     1       4.926   5.769  22.159  0.00  0.00    -0.360 OA
HETATM   23  H   UNL     1       5.890   5.887  22.093  0.00  0.00     0.217 HD
ENDBRANCH   9  22
BRANCH   1  24
HETATM   24  C   UNL     1       2.179  11.417  24.634  0.00  0.00     0.100 C 
BRANCH  24  25
HETATM   25  C   UNL     1       0.688  11.511  24.390  0.00  0.00    -0.052 A 
HETATM   26  C   UNL     1      -0.182  10.462  24.733  0.00  0.00     0.007 A 
HETATM   27  C   UNL     1      -1.513  10.469  24.308  0.00  0.00     0.001 A 
HETATM   28  C   UNL     1      -1.994  11.527  23.539  0.00  0.00     0.000 A 
HETATM   29  C   UNL     1      -1.156  12.591  23.221  0.00  0.00     0.001 A 
HETATM   30  C   UNL     1       0.175  12.587  23.648  0.00  0.00     0.007 A 
ENDBRANCH  24  25
ENDBRANCH   1  24
TORSDOF 5
ENDMDL
MODEL 6
REMARK VINA RESULT:    -7.554      3.966      7.272
REMARK INTER + INTRA:         -11.877
REMARK INTER:                 -10.748
REMARK INTRA:                  -1.129
REMARK UNBOUND:                -2.336
REMARK  5 active torsions:
REMARK  status: ('A' for Active; 'I' for Inactive)
REMARK    1  A    between atoms: C_6  and  C_7 
REMARK    2  A    between atoms: C_7  and  C_8 
REMARK    3  A    between atoms: C_15  and  C_19 
REMARK    4  A    between atoms: C_16  and  O_18 
REMARK    5  A    between atoms: N_23  and  C_24 
ROOT
HETATM    1  C   UNL     1      -1.528  10.350  26.793  0.00  0.00     0.071 A 
HETATM    2  N   UNL     1      -1.968  10.791  27.986  0.00  0.00    -0.178 NA
HETATM    3  N   UNL     1      -1.165  10.193  28.874  0.00  0.00    -0.277 N 
HETATM    4  H   UNL     1      -1.329  10.361  29.858  0.00  0.00     0.189 HD
HETATM    5  C   UNL     1      -0.437   9.438  26.941  0.00  0.00     0.020 A 
HETATM    6  C   UNL     1      -0.237   9.356  28.314  0.00  0.00     0.065 A 
HETATM    7  C   UNL     1       0.359   8.627  26.089  0.00  0.00     0.032 A 
HETATM    8  C   UNL     1       1.363   7.781  26.617  0.00  0.00     0.027 A 
HETATM    9  C   UNL     1       1.492   7.748  28.020  0.00  0.00     0.080 A 
HETATM   10  C   UNL     1       0.712   8.523  28.895  0.00  0.00     0.069 A 
ENDROOT
BRANCH   8  11
HETATM   11  C   UNL     1       2.135   6.853  25.740  0.00  0.00     0.073 C 
HETATM   12  C   UNL     1       2.282   5.477  25.924  0.00  0.00     0.053 C 
HETATM   13  C   UNL     1       2.850   4.970  24.761  0.00  0.00     0.141 C 
HETATM   14  N   UNL     1       3.088   5.923  23.879  0.00  0.00    -0.179 NA
HETATM   15  N   UNL     1       2.824   7.101  24.530  0.00  0.00    -0.234 N 
BRANCH  15  16
HETATM   16  C   UNL     1       3.302   8.295  23.895  0.00  0.00     0.059 A 
HETATM   17  C   UNL     1       3.898   8.175  22.618  0.00  0.00     0.031 A 
HETATM   18  C   UNL     1       4.391   9.291  21.937  0.00  0.00     0.002 A 
HETATM   19  C   UNL     1       4.291  10.546  22.523  0.00  0.00     0.000 A 
HETATM   20  C   UNL     1       3.736  10.677  23.793  0.00  0.00     0.002 A 
HETATM   21  C   UNL     1       3.264   9.554  24.491  0.00  0.00     0.031 A 
ENDBRANCH  15  16
ENDBRANCH   8  11
BRANCH   9  22
HETATM   22  O   UNL     1       2.364   6.897  28.652  0.00  0.00    -0.360 OA
HETATM   23  H   UNL     1       1.916   6.032  28.655  0.00  0.00     0.217 HD
ENDBRANCH   9  22
BRANCH   1  24
HETATM   24  C   UNL     1      -2.285  10.683  25.550  0.00  0.00     0.100 C 
BRANCH  24  25
HETATM   25  C   UNL     1      -1.452  11.558  24.640  0.00  0.00    -0.052 A 
HETATM   26  C   UNL     1      -0.434  12.387  25.143  0.00  0.00     0.007 A 
HETATM   27  C   UNL     1       0.177  13.344  24.330  0.00  0.00     0.001 A 
HETATM   28  C   UNL     1      -0.218  13.485  23.001  0.00  0.00     0.000 A 
HETATM   29  C   UNL     1      -1.199  12.648  22.476  0.00  0.00     0.001 A 
HETATM   30  C   UNL     1      -1.808  11.687  23.288  0.00  0.00     0.007 A 
ENDBRANCH  24  25
ENDBRANCH   1  24
TORSDOF 5
ENDMDL
MODEL 7
REMARK VINA RESULT:    -7.301      1.703      7.195
REMARK INTER + INTRA:         -11.558
REMARK INTER:                 -10.545
REMARK INTRA:                  -1.013
REMARK UNBOUND:                -2.336
REMARK  5 active torsions:
REMARK  status: ('A' for Active; 'I' for Inactive)
REMARK    1  A    between atoms: C_6  and  C_7 
REMARK    2  A    between atoms: C_7  and  C_8 
REMARK    3  A    between atoms: C_15  and  C_19 
REMARK    4  A    between atoms: C_16  and  O_18 
REMARK    5  A    between atoms: N_23  and  C_24 
ROOT
HETATM    1  C   UNL     1       2.360   7.953  24.844  0.00  0.00     0.071 A 
HETATM    2  N   UNL     1       1.647   6.967  25.416  0.00  0.00    -0.178 NA
HETATM    3  N   UNL     1       1.939   5.883  24.686  0.00  0.00    -0.277 N 
HETATM    4  H   UNL     1       1.489   5.009  24.924  0.00  0.00     0.189 HD
HETATM    5  C   UNL     1       3.099   7.480  23.715  0.00  0.00     0.020 A 
HETATM    6  C   UNL     1       2.791   6.126  23.642  0.00  0.00     0.065 A 
HETATM    7  C   UNL     1       3.937   8.040  22.715  0.00  0.00     0.032 A 
HETATM    8  C   UNL     1       4.482   7.237  21.685  0.00  0.00     0.027 A 
HETATM    9  C   UNL     1       4.109   5.878  21.676  0.00  0.00     0.080 A 
HETATM   10  C   UNL     1       3.270   5.291  22.639  0.00  0.00     0.069 A 
ENDROOT
BRANCH   8  11
HETATM   11  C   UNL     1       5.279   7.835  20.575  0.00  0.00     0.073 C 
HETATM   12  C   UNL     1       6.517   8.470  20.698  0.00  0.00     0.053 C 
HETATM   13  C   UNL     1       7.014   8.644  19.412  0.00  0.00     0.141 C 
HETATM   14  N   UNL     1       6.175   8.189  18.499  0.00  0.00    -0.179 NA
HETATM   15  N   UNL     1       5.034   7.856  19.183  0.00  0.00    -0.234 N 
BRANCH  15  16
HETATM   16  C   UNL     1       3.863   7.631  18.385  0.00  0.00     0.059 A 
HETATM   17  C   UNL     1       2.824   8.589  18.445  0.00  0.00     0.031 A 
HETATM   18  C   UNL     1       1.652   8.440  17.699  0.00  0.00     0.002 A 
HETATM   19  C   UNL     1       1.503   7.329  16.879  0.00  0.00     0.000 A 
HETATM   20  C   UNL     1       2.502   6.361  16.833  0.00  0.00     0.002 A 
HETATM   21  C   UNL     1       3.670   6.495  17.601  0.00  0.00     0.031 A 
ENDBRANCH  15  16
ENDBRANCH   8  11
BRANCH   9  22
HETATM   22  O   UNL     1       4.495   5.023  20.675  0.00  0.00    -0.360 OA
HETATM   23  H   UNL     1       4.196   4.142  20.963  0.00  0.00     0.217 HD
ENDBRANCH   9  22
BRANCH   1  24
HETATM   24  C   UNL     1       2.172   9.365  25.292  0.00  0.00     0.100 C 
BRANCH  24  25
HETATM   25  C   UNL     1       0.730   9.610  25.679  0.00  0.00    -0.052 A 
HETATM   26  C   UNL     1      -0.195  10.153  24.771  0.00  0.00     0.007 A 
HETATM   27  C   UNL     1      -1.456  10.575  25.200  0.00  0.00     0.001 A 
HETATM   28  C   UNL     1      -1.811  10.456  26.542  0.00  0.00     0.000 A 
HETATM   29  C   UNL     1      -0.921   9.888  27.448  0.00  0.00     0.001 A 
HETATM   30  C   UNL     1       0.339   9.462  27.020  0.00  0.00     0.007 A 
ENDBRANCH  24  25
ENDBRANCH   1  24
TORSDOF 5
ENDMDL
MODEL 8
REMARK VINA RESULT:    -7.129      2.850      5.198
REMARK INTER + INTRA:         -11.340
REMARK INTER:                  -9.004
REMARK INTRA:                  -2.336
REMARK UNBOUND:                -2.336
REMARK  5 active torsions:
REMARK  status: ('A' for Active; 'I' for Inactive)
REMARK    1  A    between atoms: C_6  and  C_7 
REMARK    2  A    between atoms: C_7  and  C_8 
REMARK    3  A    between atoms: C_15  and  C_19 
REMARK    4  A    between atoms: C_16  and  O_18 
REMARK    5  A    between atoms: N_23  and  C_24 
ROOT
HETATM    1  C   UNL     1       4.517   8.356  21.049  0.00  0.00     0.071 A 
HETATM    2  N   UNL     1       4.392   9.489  21.765  0.00  0.00    -0.178 NA
HETATM    3  N   UNL     1       3.845   9.090  22.920  0.00  0.00    -0.277 N 
HETATM    4  H   UNL     1       3.634   9.791  23.618  0.00  0.00     0.189 HD
HETATM    5  C   UNL     1       4.015   7.225  21.766  0.00  0.00     0.020 A 
HETATM    6  C   UNL     1       3.579   7.748  22.978  0.00  0.00     0.065 A 
HETATM    7  C   UNL     1       3.821   5.841  21.514  0.00  0.00     0.032 A 
HETATM    8  C   UNL     1       3.231   4.998  22.486  0.00  0.00     0.027 A 
HETATM    9  C   UNL     1       2.806   5.611  23.683  0.00  0.00     0.080 A 
HETATM   10  C   UNL     1       2.967   6.978  23.960  0.00  0.00     0.069 A 
ENDROOT
BRANCH   8  11
HETATM   11  C   UNL     1       2.931   3.567  22.192  0.00  0.00     0.073 C 
HETATM   12  C   UNL     1       3.477   2.459  22.845  0.00  0.00     0.053 C 
HETATM   13  C   UNL     1       2.745   1.349  22.441  0.00  0.00     0.141 C 
HETATM   14  N   UNL     1       1.806   1.673  21.572  0.00  0.00    -0.179 NA
HETATM   15  N   UNL     1       2.022   2.994  21.273  0.00  0.00    -0.234 N 
BRANCH  15  16
HETATM   16  C   UNL     1       1.333   3.502  20.122  0.00  0.00     0.059 A 
HETATM   17  C   UNL     1       1.408   2.758  18.921  0.00  0.00     0.031 A 
HETATM   18  C   UNL     1       0.766   3.188  17.757  0.00  0.00     0.002 A 
HETATM   19  C   UNL     1       0.038   4.370  17.777  0.00  0.00     0.000 A 
HETATM   20  C   UNL     1      -0.018   5.131  18.942  0.00  0.00     0.002 A 
HETATM   21  C   UNL     1       0.646   4.714  20.106  0.00  0.00     0.031 A 
ENDBRANCH  15  16
ENDBRANCH   8  11
BRANCH   9  22
HETATM   22  O   UNL     1       2.135   4.916  24.658  0.00  0.00    -0.360 OA
HETATM   23  H   UNL     1       2.205   3.980  24.396  0.00  0.00     0.217 HD
ENDBRANCH   9  22
BRANCH   1  24
HETATM   24  C   UNL     1       4.953   8.420  19.623  0.00  0.00     0.100 C 
BRANCH  24  25
HETATM   25  C   UNL     1       3.846   7.941  18.709  0.00  0.00    -0.052 A 
HETATM   26  C   UNL     1       3.976   6.768  17.946  0.00  0.00     0.007 A 
HETATM   27  C   UNL     1       3.047   6.455  16.951  0.00  0.00     0.001 A 
HETATM   28  C   UNL     1       1.973   7.309  16.706  0.00  0.00     0.000 A 
HETATM   29  C   UNL     1       1.809   8.456  17.476  0.00  0.00     0.001 A 
HETATM   30  C   UNL     1       2.736   8.769  18.475  0.00  0.00     0.007 A 
ENDBRANCH  24  25
ENDBRANCH   1  24
TORSDOF 5
ENDMDL
MODEL 9
REMARK VINA RESULT:    -7.047      4.094      6.328
REMARK INTER + INTRA:         -11.237
REMARK INTER:                  -9.374
REMARK INTRA:                  -1.863
REMARK UNBOUND:                -2.336
REMARK  5 active torsions:
REMARK  status: ('A' for Active; 'I' for Inactive)
REMARK    1  A    between atoms: C_6  and  C_7 
REMARK    2  A    between atoms: C_7  and  C_8 
REMARK    3  A    between atoms: C_15  and  C_19 
REMARK    4  A    between atoms: C_16  and  O_18 
REMARK    5  A    between atoms: N_23  and  C_24 
ROOT
HETATM    1  C   UNL     1       1.359   5.063  16.274  0.00  0.00     0.071 A 
HETATM    2  N   UNL     1       0.167   5.584  15.933  0.00  0.00    -0.178 NA
HETATM    3  N   UNL     1       0.196   6.826  16.432  0.00  0.00    -0.277 N 
HETATM    4  H   UNL     1      -0.622   7.410  16.314  0.00  0.00     0.189 HD
HETATM    5  C   UNL     1       2.144   5.994  17.023  0.00  0.00     0.020 A 
HETATM    6  C   UNL     1       1.346   7.128  17.111  0.00  0.00     0.065 A 
HETATM    7  C   UNL     1       3.399   5.993  17.687  0.00  0.00     0.032 A 
HETATM    8  C   UNL     1       3.852   7.133  18.393  0.00  0.00     0.027 A 
HETATM    9  C   UNL     1       2.976   8.237  18.443  0.00  0.00     0.080 A 
HETATM   10  C   UNL     1       1.721   8.268  17.813  0.00  0.00     0.069 A 
ENDROOT
BRANCH   8  11
HETATM   11  C   UNL     1       5.121   7.106  19.177  0.00  0.00     0.073 C 
HETATM   12  C   UNL     1       6.150   8.048  19.112  0.00  0.00     0.053 C 
HETATM   13  C   UNL     1       7.008   7.786  20.173  0.00  0.00     0.141 C 
HETATM   14  N   UNL     1       6.608   6.744  20.878  0.00  0.00    -0.179 NA
HETATM   15  N   UNL     1       5.557   6.208  20.178  0.00  0.00    -0.234 N 
BRANCH  15  16
HETATM   16  C   UNL     1       5.147   4.890  20.566  0.00  0.00     0.059 A 
HETATM   17  C   UNL     1       4.870   4.655  21.933  0.00  0.00     0.031 A 
HETATM   18  C   UNL     1       4.467   3.398  22.390  0.00  0.00     0.002 A 
HETATM   19  C   UNL     1       4.333   2.355  21.483  0.00  0.00     0.000 A 
HETATM   20  C   UNL     1       4.633   2.560  20.140  0.00  0.00     0.002 A 
HETATM   21  C   UNL     1       5.062   3.816  19.682  0.00  0.00     0.031 A 
ENDBRANCH  15  16
ENDBRANCH   8  11
BRANCH   9  22
HETATM   22  O   UNL     1       3.263   9.361  19.176  0.00  0.00    -0.360 OA
HETATM   23  H   UNL     1       3.987   9.097  19.772  0.00  0.00     0.217 HD
ENDBRANCH   9  22
BRANCH   1  24
HETATM   24  C   UNL     1       1.640   3.618  16.022  0.00  0.00     0.100 C 
BRANCH  24  25
HETATM   25  C   UNL     1       1.611   2.839  17.319  0.00  0.00    -0.052 A 
HETATM   26  C   UNL     1       2.196   1.566  17.426  0.00  0.00     0.007 A 
HETATM   27  C   UNL     1       1.976   0.770  18.553  0.00  0.00     0.001 A 
HETATM   28  C   UNL     1       1.171   1.237  19.591  0.00  0.00     0.000 A 
HETATM   29  C   UNL     1       0.613   2.510  19.516  0.00  0.00     0.001 A 
HETATM   30  C   UNL     1       0.835   3.309  18.391  0.00  0.00     0.007 A 
ENDBRANCH  24  25
ENDBRANCH   1  24
TORSDOF 5
ENDMDL
