MODEL 1
REMARK VINA RESULT:    -9.169      0.000      0.000
REMARK INTER + INTRA:         -12.492
REMARK INTER:                 -11.272
REMARK INTRA:                  -1.220
REMARK UNBOUND:                -0.911
REMARK  5 active torsions:
REMARK  status: ('A' for Active; 'I' for Inactive)
REMARK    1  A    between atoms: C_7  and  N_10 
REMARK       I    between atoms: N_10  and  C_12 
REMARK    2  A    between atoms: C_12  and  C_14 
REMARK    3  A    between atoms: C_16  and  O_17 
REMARK    4  A    between atoms: C_24  and  C_25 
REMARK    5  A    between atoms: C_25  and  C_26 
ROOT
HETATM    1  C   UNL     1      -2.846  13.266  22.155  0.00  0.00     0.066 A 
HETATM    2  C   UNL     1      -1.992  14.148  21.441  0.00  0.00     0.035 A 
HETATM    3  C   UNL     1      -4.208  13.569  22.207  0.00  0.00     0.083 A 
HETATM    4  C   UNL     1      -4.738  14.752  21.669  0.00  0.00     0.069 A 
HETATM    5  C   UNL     1      -3.856  15.613  21.016  0.00  0.00     0.065 A 
HETATM    6  C   UNL     1      -2.495  15.351  20.890  0.00  0.00     0.020 A 
HETATM    7  N   UNL     1      -4.062  16.799  20.368  0.00  0.00    -0.277 N 
HETATM    8  H   UNL     1      -4.937  17.292  20.239  0.00  0.00     0.189 HD
HETATM    9  N   UNL     1      -2.958  17.335  19.833  0.00  0.00    -0.178 NA
HETATM   10  C   UNL     1      -1.979  16.480  20.181  0.00  0.00     0.071 A 
ENDROOT
BRANCH   1  11
HETATM   11  C   UNL     1      -2.221  11.978  22.624  0.00  0.00     0.260 C 
HETATM   12  N   UNL     1      -1.393  11.897  23.775  0.00  0.00    -0.318 N 
HETATM   13  C   UNL     1      -1.265  13.008  24.719  0.00  0.00     0.159 C 
HETATM   14  O   UNL     1      -2.479  11.011  21.896  0.00  0.00    -0.267 OA
BRANCH  12  15
HETATM   15  C   UNL     1      -0.640  10.689  24.089  0.00  0.00     0.039 A 
HETATM   16  C   UNL     1      -1.043   9.808  25.107  0.00  0.00     0.069 A 
HETATM   17  C   UNL     1      -0.327   8.634  25.313  0.00  0.00     0.107 A 
HETATM   18  O   UNL     1      -0.615   7.681  26.241  0.00  0.00    -0.323 OA
HETATM   19  C   UNL     1       0.763   8.300  24.549  0.00  0.00     0.105 A 
HETATM   20  C   UNL     1       0.442   6.731  25.997  0.00  0.00     0.352 A 
HETATM   21  O   UNL     1       1.302   7.103  24.901  0.00  0.00    -0.323 OA
HETATM   22  C   UNL     1       1.205   9.124  23.546  0.00  0.00     0.042 A 
HETATM   23  C   UNL     1       0.504  10.322  23.323  0.00  0.00     0.032 A 
ENDBRANCH  12  15
ENDBRANCH   1  11
BRANCH   3  24
HETATM   24  O   UNL     1      -5.111  12.707  22.761  0.00  0.00    -0.360 OA
HETATM   25  H   UNL     1      -4.613  12.159  23.390  0.00  0.00     0.217 HD
ENDBRANCH   3  24
BRANCH  10  26
HETATM   26  C   UNL     1      -0.574  16.778  19.770  0.00  0.00     0.100 C 
BRANCH  26  27
HETATM   27  C   UNL     1       0.323  16.427  20.940  0.00  0.00    -0.052 A 
HETATM   28  C   UNL     1       0.046  16.945  22.212  0.00  0.00     0.007 A 
HETATM   29  C   UNL     1       0.798  16.552  23.316  0.00  0.00     0.001 A 
HETATM   30  C   UNL     1       1.858  15.663  23.164  0.00  0.00     0.007 A 
HETATM   31  C   UNL     1       2.194  15.173  21.896  0.00  0.00    -0.061 A 
HETATM   32  C   UNL     1       1.413  15.547  20.791  0.00  0.00     0.014 A 
HETATM   33  C   UNL     1       3.401  14.298  21.714  0.00  0.00     0.048 C 
ENDBRANCH  26  27
ENDBRANCH  10  26
TORSDOF 5
ENDMDL
MODEL 2
REMARK VINA RESULT:    -9.143      1.786      2.625
REMARK INTER + INTRA:         -12.459
REMARK INTER:                 -11.299
REMARK INTRA:                  -1.160
REMARK UNBOUND:                -0.911
REMARK  5 active torsions:
REMARK  status: ('A' for Active; 'I' for Inactive)
REMARK    1  A    between atoms: C_7  and  N_10 
REMARK       I    between atoms: N_10  and  C_12 
REMARK    2  A    between atoms: C_12  and  C_14 
REMARK    3  A    between atoms: C_16  and  O_17 
REMARK    4  A    between atoms: C_24  and  C_25 
REMARK    5  A    between atoms: C_25  and  C_26 
ROOT
HETATM    1  C   UNL     1      -2.819  14.305  22.182  0.00  0.00     0.066 A 
HETATM    2  C   UNL     1      -1.685  15.159  22.139  0.00  0.00     0.035 A 
HETATM    3  C   UNL     1      -3.793  14.456  21.193  0.00  0.00     0.083 A 
HETATM    4  C   UNL     1      -3.737  15.475  20.230  0.00  0.00     0.069 A 
HETATM    5  C   UNL     1      -2.628  16.320  20.252  0.00  0.00     0.065 A 
HETATM    6  C   UNL     1      -1.600  16.198  21.182  0.00  0.00     0.020 A 
HETATM    7  N   UNL     1      -2.268  17.363  19.443  0.00  0.00    -0.277 N 
HETATM    8  H   UNL     1      -2.768  17.728  18.642  0.00  0.00     0.189 HD
HETATM    9  N   UNL     1      -1.100  17.932  19.764  0.00  0.00    -0.178 NA
HETATM   10  C   UNL     1      -0.696  17.257  20.856  0.00  0.00     0.071 A 
ENDROOT
BRANCH   1  11
HETATM   11  C   UNL     1      -2.762  13.182  23.185  0.00  0.00     0.260 C 
HETATM   12  N   UNL     1      -2.413  13.384  24.547  0.00  0.00    -0.318 N 
HETATM   13  C   UNL     1      -2.303  14.721  25.132  0.00  0.00     0.159 C 
HETATM   14  O   UNL     1      -3.021  12.074  22.701  0.00  0.00    -0.267 OA
BRANCH  12  15
HETATM   15  C   UNL     1      -2.168  12.262  25.445  0.00  0.00     0.039 A 
HETATM   16  C   UNL     1      -0.970  11.529  25.407  0.00  0.00     0.069 A 
HETATM   17  C   UNL     1      -0.762  10.516  26.336  0.00  0.00     0.107 A 
HETATM   18  O   UNL     1       0.355   9.744  26.433  0.00  0.00    -0.323 OA
HETATM   19  C   UNL     1      -1.690  10.206  27.299  0.00  0.00     0.105 A 
HETATM   20  C   UNL     1       0.005   8.891  27.542  0.00  0.00     0.352 A 
HETATM   21  O   UNL     1      -1.281   9.202  28.117  0.00  0.00    -0.323 OA
HETATM   22  C   UNL     1      -2.880  10.884  27.380  0.00  0.00     0.042 A 
HETATM   23  C   UNL     1      -3.119  11.907  26.447  0.00  0.00     0.032 A 
ENDBRANCH  12  15
ENDBRANCH   1  11
BRANCH   3  24
HETATM   24  O   UNL     1      -4.845  13.592  21.089  0.00  0.00    -0.360 OA
HETATM   25  H   UNL     1      -4.813  13.028  21.880  0.00  0.00     0.217 HD
ENDBRANCH   3  24
BRANCH  10  26
HETATM   26  C   UNL     1       0.584  17.646  21.519  0.00  0.00     0.100 C 
BRANCH  26  27
HETATM   27  C   UNL     1       1.494  16.436  21.488  0.00  0.00    -0.052 A 
HETATM   28  C   UNL     1       1.981  15.959  20.263  0.00  0.00     0.007 A 
HETATM   29  C   UNL     1       2.898  14.911  20.225  0.00  0.00     0.001 A 
HETATM   30  C   UNL     1       3.319  14.303  21.404  0.00  0.00     0.007 A 
HETATM   31  C   UNL     1       2.806  14.720  22.638  0.00  0.00    -0.061 A 
HETATM   32  C   UNL     1       1.907  15.797  22.674  0.00  0.00     0.014 A 
HETATM   33  C   UNL     1       3.179  13.996  23.900  0.00  0.00     0.048 C 
ENDBRANCH  26  27
ENDBRANCH  10  26
TORSDOF 5
ENDMDL
MODEL 3
REMARK VINA RESULT:    -9.134      1.515      2.032
REMARK INTER + INTRA:         -12.448
REMARK INTER:                 -11.166
REMARK INTRA:                  -1.282
REMARK UNBOUND:                -0.911
REMARK  5 active torsions:
REMARK  status: ('A' for Active; 'I' for Inactive)
REMARK    1  A    between atoms: C_7  and  N_10 
REMARK       I    between atoms: N_10  and  C_12 
REMARK    2  A    between atoms: C_12  and  C_14 
REMARK    3  A    between atoms: C_16  and  O_17 
REMARK    4  A    between atoms: C_24  and  C_25 
REMARK    5  A    between atoms: C_25  and  C_26 
ROOT
HETATM    1  C   UNL     1      -1.323  12.720  22.179  0.00  0.00     0.066 A 
HETATM    2  C   UNL     1      -0.671  13.982  22.189  0.00  0.00     0.035 A 
HETATM    3  C   UNL     1      -2.429  12.559  21.343  0.00  0.00     0.083 A 
HETATM    4  C   UNL     1      -2.972  13.618  20.599  0.00  0.00     0.069 A 
HETATM    5  C   UNL     1      -2.328  14.852  20.674  0.00  0.00     0.065 A 
HETATM    6  C   UNL     1      -1.195  15.070  21.453  0.00  0.00     0.020 A 
HETATM    7  N   UNL     1      -2.581  16.045  20.054  0.00  0.00    -0.277 N 
HETATM    8  H   UNL     1      -3.321  16.257  19.395  0.00  0.00     0.189 HD
HETATM    9  N   UNL     1      -1.717  17.020  20.360  0.00  0.00    -0.178 NA
HETATM   10  C   UNL     1      -0.884  16.452  21.251  0.00  0.00     0.071 A 
ENDROOT
BRANCH   1  11
HETATM   11  C   UNL     1      -0.629  11.613  22.930  0.00  0.00     0.260 C 
HETATM   12  N   UNL     1      -0.775  11.425  24.331  0.00  0.00    -0.318 N 
HETATM   13  C   UNL     1      -1.779  12.147  25.112  0.00  0.00     0.159 C 
HETATM   14  O   UNL     1       0.093  10.908  22.215  0.00  0.00    -0.267 OA
BRANCH  12  15
HETATM   15  C   UNL     1       0.060  10.480  25.063  0.00  0.00     0.039 A 
HETATM   16  C   UNL     1      -0.480   9.344  25.688  0.00  0.00     0.069 A 
HETATM   17  C   UNL     1       0.373   8.439  26.310  0.00  0.00     0.107 A 
HETATM   18  O   UNL     1      -0.005   7.288  26.930  0.00  0.00    -0.323 OA
HETATM   19  C   UNL     1       1.735   8.615  26.330  0.00  0.00     0.105 A 
HETATM   20  C   UNL     1       1.271   6.783  27.375  0.00  0.00     0.352 A 
HETATM   21  O   UNL     1       2.384   7.606  26.968  0.00  0.00    -0.323 OA
HETATM   22  C   UNL     1       2.317   9.708  25.741  0.00  0.00     0.042 A 
HETATM   23  C   UNL     1       1.475  10.643  25.114  0.00  0.00     0.032 A 
ENDBRANCH  12  15
ENDBRANCH   1  11
BRANCH   3  24
HETATM   24  O   UNL     1      -3.030  11.343  21.179  0.00  0.00    -0.360 OA
HETATM   25  H   UNL     1      -2.842  10.836  21.986  0.00  0.00     0.217 HD
ENDBRANCH   3  24
BRANCH  10  26
HETATM   26  C   UNL     1       0.215  17.270  21.844  0.00  0.00     0.100 C 
BRANCH  26  27
HETATM   27  C   UNL     1       1.524  16.601  21.479  0.00  0.00    -0.052 A 
HETATM   28  C   UNL     1       2.010  16.687  20.167  0.00  0.00     0.007 A 
HETATM   29  C   UNL     1       3.259  16.165  19.838  0.00  0.00     0.001 A 
HETATM   30  C   UNL     1       4.027  15.522  20.804  0.00  0.00     0.007 A 
HETATM   31  C   UNL     1       3.542  15.371  22.109  0.00  0.00    -0.061 A 
HETATM   32  C   UNL     1       2.298  15.926  22.443  0.00  0.00     0.014 A 
HETATM   33  C   UNL     1       4.323  14.586  23.124  0.00  0.00     0.048 C 
ENDBRANCH  26  27
ENDBRANCH  10  26
TORSDOF 5
ENDMDL
MODEL 4
REMARK VINA RESULT:    -9.042      2.559      4.170
REMARK INTER + INTRA:         -12.331
REMARK INTER:                 -11.352
REMARK INTRA:                  -0.979
REMARK UNBOUND:                -0.911
REMARK  5 active torsions:
REMARK  status: ('A' for Active; 'I' for Inactive)
REMARK    1  A    between atoms: C_7  and  N_10 
REMARK       I    between atoms: N_10  and  C_12 
REMARK    2  A    between atoms: C_12  and  C_14 
REMARK    3  A    between atoms: C_16  and  O_17 
REMARK    4  A    between atoms: C_24  and  C_25 
REMARK    5  A    between atoms: C_25  and  C_26 
ROOT
HETATM    1  C   UNL     1      -1.638  11.249  25.191  0.00  0.00     0.066 A 
HETATM    2  C   UNL     1      -1.951  11.652  23.866  0.00  0.00     0.035 A 
HETATM    3  C   UNL     1      -2.437  11.729  26.230  0.00  0.00     0.083 A 
HETATM    4  C   UNL     1      -3.464  12.663  26.021  0.00  0.00     0.069 A 
HETATM    5  C   UNL     1      -3.708  13.067  24.709  0.00  0.00     0.065 A 
HETATM    6  C   UNL     1      -2.978  12.595  23.622  0.00  0.00     0.020 A 
HETATM    7  N   UNL     1      -4.641  13.916  24.181  0.00  0.00    -0.277 N 
HETATM    8  H   UNL     1      -5.360  14.432  24.675  0.00  0.00     0.189 HD
HETATM    9  N   UNL     1      -4.583  14.042  22.850  0.00  0.00    -0.178 NA
HETATM   10  C   UNL     1      -3.540  13.270  22.494  0.00  0.00     0.071 A 
ENDROOT
BRANCH   1  11
HETATM   11  C   UNL     1      -0.585  10.179  25.324  0.00  0.00     0.260 C 
HETATM   12  N   UNL     1       0.762  10.369  24.915  0.00  0.00    -0.318 N 
HETATM   13  C   UNL     1       1.283  11.685  24.544  0.00  0.00     0.159 C 
HETATM   14  O   UNL     1      -1.016   9.119  25.796  0.00  0.00    -0.267 OA
BRANCH  12  15
HETATM   15  C   UNL     1       1.706   9.259  24.866  0.00  0.00     0.039 A 
HETATM   16  C   UNL     1       2.577   8.978  25.932  0.00  0.00     0.069 A 
HETATM   17  C   UNL     1       3.405   7.864  25.859  0.00  0.00     0.107 A 
HETATM   18  O   UNL     1       4.277   7.457  26.822  0.00  0.00    -0.323 OA
HETATM   19  C   UNL     1       3.399   7.019  24.777  0.00  0.00     0.105 A 
HETATM   20  C   UNL     1       4.843   6.284  26.203  0.00  0.00     0.352 A 
HETATM   21  O   UNL     1       4.265   5.982  24.916  0.00  0.00    -0.323 OA
HETATM   22  C   UNL     1       2.573   7.247  23.705  0.00  0.00     0.042 A 
HETATM   23  C   UNL     1       1.733   8.373  23.750  0.00  0.00     0.032 A 
ENDBRANCH  12  15
ENDBRANCH   1  11
BRANCH   3  24
HETATM   24  O   UNL     1      -2.282  11.287  27.513  0.00  0.00    -0.360 OA
HETATM   25  H   UNL     1      -1.673  11.910  27.943  0.00  0.00     0.217 HD
ENDBRANCH   3  24
BRANCH  10  26
HETATM   26  C   UNL     1      -3.155  13.188  21.053  0.00  0.00     0.100 C 
BRANCH  26  27
HETATM   27  C   UNL     1      -2.839  14.594  20.589  0.00  0.00    -0.052 A 
HETATM   28  C   UNL     1      -3.747  15.280  19.770  0.00  0.00     0.007 A 
HETATM   29  C   UNL     1      -3.520  16.609  19.418  0.00  0.00     0.001 A 
HETATM   30  C   UNL     1      -2.370  17.263  19.851  0.00  0.00     0.007 A 
HETATM   31  C   UNL     1      -1.418  16.586  20.622  0.00  0.00    -0.061 A 
HETATM   32  C   UNL     1      -1.667  15.257  21.000  0.00  0.00     0.014 A 
HETATM   33  C   UNL     1      -0.129  17.257  21.000  0.00  0.00     0.048 C 
ENDBRANCH  26  27
ENDBRANCH  10  26
TORSDOF 5
ENDMDL
MODEL 5
REMARK VINA RESULT:    -9.042      1.743      2.426
REMARK INTER + INTRA:         -12.331
REMARK INTER:                 -10.949
REMARK INTRA:                  -1.382
REMARK UNBOUND:                -0.911
REMARK  5 active torsions:
REMARK  status: ('A' for Active; 'I' for Inactive)
REMARK    1  A    between atoms: C_7  and  N_10 
REMARK       I    between atoms: N_10  and  C_12 
REMARK    2  A    between atoms: C_12  and  C_14 
REMARK    3  A    between atoms: C_16  and  O_17 
REMARK    4  A    between atoms: C_24  and  C_25 
REMARK    5  A    between atoms: C_25  and  C_26 
ROOT
HETATM    1  C   UNL     1      -1.144  12.634  22.045  0.00  0.00     0.066 A 
HETATM    2  C   UNL     1      -0.491  13.892  22.128  0.00  0.00     0.035 A 
HETATM    3  C   UNL     1      -2.303  12.546  21.271  0.00  0.00     0.083 A 
HETATM    4  C   UNL     1      -2.890  13.667  20.662  0.00  0.00     0.069 A 
HETATM    5  C   UNL     1      -2.240  14.891  20.808  0.00  0.00     0.065 A 
HETATM    6  C   UNL     1      -1.059  15.042  21.529  0.00  0.00     0.020 A 
HETATM    7  N   UNL     1      -2.530  16.135  20.318  0.00  0.00    -0.277 N 
HETATM    8  H   UNL     1      -3.310  16.403  19.730  0.00  0.00     0.189 HD
HETATM    9  N   UNL     1      -1.646  17.081  20.655  0.00  0.00    -0.178 NA
HETATM   10  C   UNL     1      -0.759  16.437  21.435  0.00  0.00     0.071 A 
ENDROOT
BRANCH   1  11
HETATM   11  C   UNL     1      -0.406  11.466  22.646  0.00  0.00     0.260 C 
HETATM   12  N   UNL     1      -0.650  10.998  23.964  0.00  0.00    -0.318 N 
HETATM   13  C   UNL     1      -1.788  11.465  24.757  0.00  0.00     0.159 C 
HETATM   14  O   UNL     1       0.444  10.978  21.891  0.00  0.00    -0.267 OA
BRANCH  12  15
HETATM   15  C   UNL     1       0.212  10.003  24.591  0.00  0.00     0.039 A 
HETATM   16  C   UNL     1       1.493  10.328  25.068  0.00  0.00     0.069 A 
HETATM   17  C   UNL     1       2.242   9.357  25.723  0.00  0.00     0.107 A 
HETATM   18  O   UNL     1       3.481   9.535  26.256  0.00  0.00    -0.323 OA
HETATM   19  C   UNL     1       1.770   8.084  25.924  0.00  0.00     0.105 A 
HETATM   20  C   UNL     1       3.747   8.218  26.782  0.00  0.00     0.352 A 
HETATM   21  O   UNL     1       2.649   7.300  26.602  0.00  0.00    -0.323 OA
HETATM   22  C   UNL     1       0.529   7.709  25.475  0.00  0.00     0.042 A 
HETATM   23  C   UNL     1      -0.244   8.670  24.803  0.00  0.00     0.032 A 
ENDBRANCH  12  15
ENDBRANCH   1  11
BRANCH   3  24
HETATM   24  O   UNL     1      -2.915  11.348  21.035  0.00  0.00    -0.360 OA
HETATM   25  H   UNL     1      -2.216  10.737  20.749  0.00  0.00     0.217 HD
ENDBRANCH   3  24
BRANCH  10  26
HETATM   26  C   UNL     1       0.378  17.202  22.028  0.00  0.00     0.100 C 
BRANCH  26  27
HETATM   27  C   UNL     1       1.659  16.558  21.541  0.00  0.00    -0.052 A 
HETATM   28  C   UNL     1       2.009  16.638  20.185  0.00  0.00     0.007 A 
HETATM   29  C   UNL     1       3.231  16.140  19.739  0.00  0.00     0.001 A 
HETATM   30  C   UNL     1       4.107  15.527  20.630  0.00  0.00     0.007 A 
HETATM   31  C   UNL     1       3.759  15.381  21.978  0.00  0.00    -0.061 A 
HETATM   32  C   UNL     1       2.541  15.913  22.429  0.00  0.00     0.014 A 
HETATM   33  C   UNL     1       4.656  14.627  22.918  0.00  0.00     0.048 C 
ENDBRANCH  26  27
ENDBRANCH  10  26
TORSDOF 5
ENDMDL
MODEL 6
REMARK VINA RESULT:    -8.919      3.331      7.210
REMARK INTER + INTRA:         -12.176
REMARK INTER:                 -11.377
REMARK INTRA:                  -0.799
REMARK UNBOUND:                -0.911
REMARK  5 active torsions:
REMARK  status: ('A' for Active; 'I' for Inactive)
REMARK    1  A    between atoms: C_7  and  N_10 
REMARK       I    between atoms: N_10  and  C_12 
REMARK    2  A    between atoms: C_12  and  C_14 
REMARK    3  A    between atoms: C_16  and  O_17 
REMARK    4  A    between atoms: C_24  and  C_25 
REMARK    5  A    between atoms: C_25  and  C_26 
ROOT
HETATM    1  C   UNL     1      -1.709  14.096  23.459  0.00  0.00     0.066 A 
HETATM    2  C   UNL     1      -1.595  13.379  24.680  0.00  0.00     0.035 A 
HETATM    3  C   UNL     1      -2.989  14.340  22.958  0.00  0.00     0.083 A 
HETATM    4  C   UNL     1      -4.146  13.820  23.561  0.00  0.00     0.069 A 
HETATM    5  C   UNL     1      -3.984  13.083  24.733  0.00  0.00     0.065 A 
HETATM    6  C   UNL     1      -2.741  12.840  25.310  0.00  0.00     0.020 A 
HETATM    7  N   UNL     1      -4.895  12.488  25.562  0.00  0.00    -0.277 N 
HETATM    8  H   UNL     1      -5.904  12.475  25.467  0.00  0.00     0.189 HD
HETATM    9  N   UNL     1      -4.358  11.878  26.625  0.00  0.00    -0.178 NA
HETATM   10  C   UNL     1      -3.033  12.047  26.464  0.00  0.00     0.071 A 
ENDROOT
BRANCH   1  11
HETATM   11  C   UNL     1      -0.435  14.696  22.925  0.00  0.00     0.260 C 
HETATM   12  N   UNL     1       0.497  13.959  22.147  0.00  0.00    -0.318 N 
HETATM   13  C   UNL     1       0.187  12.630  21.616  0.00  0.00     0.159 C 
HETATM   14  O   UNL     1      -0.271  15.879  23.251  0.00  0.00    -0.267 OA
BRANCH  12  15
HETATM   15  C   UNL     1       1.810  14.499  21.815  0.00  0.00     0.039 A 
HETATM   16  C   UNL     1       2.926  14.295  22.644  0.00  0.00     0.069 A 
HETATM   17  C   UNL     1       4.168  14.772  22.241  0.00  0.00     0.107 A 
HETATM   18  O   UNL     1       5.335  14.627  22.926  0.00  0.00    -0.323 OA
HETATM   19  C   UNL     1       4.345  15.435  21.052  0.00  0.00     0.105 A 
HETATM   20  C   UNL     1       6.256  15.307  22.049  0.00  0.00     0.352 A 
HETATM   21  O   UNL     1       5.638  15.795  20.840  0.00  0.00    -0.323 OA
HETATM   22  C   UNL     1       3.291  15.667  20.206  0.00  0.00     0.042 A 
HETATM   23  C   UNL     1       2.022  15.204  20.595  0.00  0.00     0.032 A 
ENDBRANCH  12  15
ENDBRANCH   1  11
BRANCH   3  24
HETATM   24  O   UNL     1      -3.189  15.131  21.863  0.00  0.00    -0.360 OA
HETATM   25  H   UNL     1      -2.527  15.840  21.915  0.00  0.00     0.217 HD
ENDBRANCH   3  24
BRANCH  10  26
HETATM   26  C   UNL     1      -2.098  11.461  27.470  0.00  0.00     0.100 C 
BRANCH  26  27
HETATM   27  C   UNL     1      -1.526  10.193  26.870  0.00  0.00    -0.052 A 
HETATM   28  C   UNL     1      -1.246  10.135  25.498  0.00  0.00     0.007 A 
HETATM   29  C   UNL     1      -0.626   9.015  24.948  0.00  0.00     0.001 A 
HETATM   30  C   UNL     1      -0.305   7.925  25.752  0.00  0.00     0.007 A 
HETATM   31  C   UNL     1      -0.625   7.932  27.115  0.00  0.00    -0.061 A 
HETATM   32  C   UNL     1      -1.220   9.075  27.670  0.00  0.00     0.014 A 
HETATM   33  C   UNL     1      -0.376   6.715  27.960  0.00  0.00     0.048 C 
ENDBRANCH  26  27
ENDBRANCH  10  26
TORSDOF 5
ENDMDL
MODEL 7
REMARK VINA RESULT:    -8.750      1.670      2.337
REMARK INTER + INTRA:         -11.962
REMARK INTER:                 -11.232
REMARK INTRA:                  -0.730
REMARK UNBOUND:                -0.911
REMARK  5 active torsions:
REMARK  status: ('A' for Active; 'I' for Inactive)
REMARK    1  A    between atoms: C_7  and  N_10 
REMARK       I    between atoms: N_10  and  C_12 
REMARK    2  A    between atoms: C_12  and  C_14 
REMARK    3  A    between atoms: C_16  and  O_17 
REMARK    4  A    between atoms: C_24  and  C_25 
REMARK    5  A    between atoms: C_25  and  C_26 
ROOT
HETATM    1  C   UNL     1      -1.386  12.501  22.458  0.00  0.00     0.066 A 
HETATM    2  C   UNL     1      -0.742  13.751  22.651  0.00  0.00     0.035 A 
HETATM    3  C   UNL     1      -2.305  12.389  21.413  0.00  0.00     0.083 A 
HETATM    4  C   UNL     1      -2.682  13.485  20.621  0.00  0.00     0.069 A 
HETATM    5  C   UNL     1      -2.059  14.706  20.875  0.00  0.00     0.065 A 
HETATM    6  C   UNL     1      -1.102  14.876  21.872  0.00  0.00     0.020 A 
HETATM    7  N   UNL     1      -2.176  15.927  20.268  0.00  0.00    -0.277 N 
HETATM    8  H   UNL     1      -2.768  16.175  19.485  0.00  0.00     0.189 HD
HETATM    9  N   UNL     1      -1.384  16.876  20.781  0.00  0.00    -0.178 NA
HETATM   10  C   UNL     1      -0.749  16.260  21.794  0.00  0.00     0.071 A 
ENDROOT
BRANCH   1  11
HETATM   11  C   UNL     1      -0.863  11.355  23.285  0.00  0.00     0.260 C 
HETATM   12  N   UNL     1      -1.581  10.805  24.380  0.00  0.00    -0.318 N 
HETATM   13  C   UNL     1      -2.975  11.156  24.650  0.00  0.00     0.159 C 
HETATM   14  O   UNL     1       0.256  10.962  22.932  0.00  0.00    -0.267 OA
BRANCH  12  15
HETATM   15  C   UNL     1      -0.968   9.839  25.284  0.00  0.00     0.039 A 
HETATM   16  C   UNL     1      -0.823  10.098  26.657  0.00  0.00     0.069 A 
HETATM   17  C   UNL     1      -0.298   9.110  27.484  0.00  0.00     0.107 A 
HETATM   18  O   UNL     1      -0.124   9.211  28.830  0.00  0.00    -0.323 OA
HETATM   19  C   UNL     1       0.081   7.882  27.003  0.00  0.00     0.105 A 
HETATM   20  C   UNL     1       0.443   7.920  29.132  0.00  0.00     0.352 A 
HETATM   21  O   UNL     1       0.546   7.058  27.979  0.00  0.00    -0.323 OA
HETATM   22  C   UNL     1      -0.033   7.575  25.671  0.00  0.00     0.042 A 
HETATM   23  C   UNL     1      -0.552   8.560  24.813  0.00  0.00     0.032 A 
ENDBRANCH  12  15
ENDBRANCH   1  11
BRANCH   3  24
HETATM   24  O   UNL     1      -2.868  11.190  21.082  0.00  0.00    -0.360 OA
HETATM   25  H   UNL     1      -3.727  11.395  20.677  0.00  0.00     0.217 HD
ENDBRANCH   3  24
BRANCH  10  26
HETATM   26  C   UNL     1       0.216  17.038  22.628  0.00  0.00     0.100 C 
BRANCH  26  27
HETATM   27  C   UNL     1       1.349  16.103  22.999  0.00  0.00    -0.052 A 
HETATM   28  C   UNL     1       1.392  15.532  24.279  0.00  0.00     0.007 A 
HETATM   29  C   UNL     1       2.369  14.593  24.602  0.00  0.00     0.001 A 
HETATM   30  C   UNL     1       3.334  14.234  23.667  0.00  0.00     0.007 A 
HETATM   31  C   UNL     1       3.350  14.830  22.400  0.00  0.00    -0.061 A 
HETATM   32  C   UNL     1       2.345  15.752  22.068  0.00  0.00     0.014 A 
HETATM   33  C   UNL     1       4.453  14.521  21.428  0.00  0.00     0.048 C 
ENDBRANCH  26  27
ENDBRANCH  10  26
TORSDOF 5
ENDMDL
MODEL 8
REMARK VINA RESULT:    -8.742      2.619      4.355
REMARK INTER + INTRA:         -11.953
REMARK INTER:                 -11.106
REMARK INTRA:                  -0.847
REMARK UNBOUND:                -0.911
REMARK  5 active torsions:
REMARK  status: ('A' for Active; 'I' for Inactive)
REMARK    1  A    between atoms: C_7  and  N_10 
REMARK       I    between atoms: N_10  and  C_12 
REMARK    2  A    between atoms: C_12  and  C_14 
REMARK    3  A    between atoms: C_16  and  O_17 
REMARK    4  A    between atoms: C_24  and  C_25 
REMARK    5  A    between atoms: C_25  and  C_26 
ROOT
HETATM    1  C   UNL     1      -1.497  11.119  25.350  0.00  0.00     0.066 A 
HETATM    2  C   UNL     1      -1.767  11.514  24.013  0.00  0.00     0.035 A 
HETATM    3  C   UNL     1      -2.345  11.586  26.357  0.00  0.00     0.083 A 
HETATM    4  C   UNL     1      -3.381  12.499  26.106  0.00  0.00     0.069 A 
HETATM    5  C   UNL     1      -3.582  12.896  24.785  0.00  0.00     0.065 A 
HETATM    6  C   UNL     1      -2.802  12.436  23.728  0.00  0.00     0.020 A 
HETATM    7  N   UNL     1      -4.510  13.727  24.220  0.00  0.00    -0.277 N 
HETATM    8  H   UNL     1      -5.257  14.229  24.684  0.00  0.00     0.189 HD
HETATM    9  N   UNL     1      -4.404  13.851  22.892  0.00  0.00    -0.178 NA
HETATM   10  C   UNL     1      -3.334  13.099  22.577  0.00  0.00     0.071 A 
ENDROOT
BRANCH   1  11
HETATM   11  C   UNL     1      -0.430  10.070  25.525  0.00  0.00     0.260 C 
HETATM   12  N   UNL     1       0.921  10.274  25.140  0.00  0.00    -0.318 N 
HETATM   13  C   UNL     1       1.429  11.591  24.753  0.00  0.00     0.159 C 
HETATM   14  O   UNL     1      -0.853   9.013  26.011  0.00  0.00    -0.267 OA
BRANCH  12  15
HETATM   15  C   UNL     1       1.885   9.180  25.132  0.00  0.00     0.039 A 
HETATM   16  C   UNL     1       1.905   8.217  24.109  0.00  0.00     0.069 A 
HETATM   17  C   UNL     1       2.893   7.239  24.115  0.00  0.00     0.107 A 
HETATM   18  O   UNL     1       3.050   6.263  23.180  0.00  0.00    -0.323 OA
HETATM   19  C   UNL     1       3.859   7.182  25.089  0.00  0.00     0.105 A 
HETATM   20  C   UNL     1       4.200   5.566  23.699  0.00  0.00     0.352 A 
HETATM   21  O   UNL     1       4.739   6.165  24.896  0.00  0.00    -0.323 OA
HETATM   22  C   UNL     1       3.885   8.092  26.115  0.00  0.00     0.042 A 
HETATM   23  C   UNL     1       2.892   9.086  26.137  0.00  0.00     0.032 A 
ENDBRANCH  12  15
ENDBRANCH   1  11
BRANCH   3  24
HETATM   24  O   UNL     1      -2.231  11.149  27.646  0.00  0.00    -0.360 OA
HETATM   25  H   UNL     1      -2.655  10.276  27.675  0.00  0.00     0.217 HD
ENDBRANCH   3  24
BRANCH  10  26
HETATM   26  C   UNL     1      -2.892  13.022  21.153  0.00  0.00     0.100 C 
BRANCH  26  27
HETATM   27  C   UNL     1      -2.717  14.442  20.657  0.00  0.00    -0.052 A 
HETATM   28  C   UNL     1      -3.708  15.031  19.859  0.00  0.00     0.007 A 
HETATM   29  C   UNL     1      -3.611  16.367  19.479  0.00  0.00     0.001 A 
HETATM   30  C   UNL     1      -2.510  17.127  19.861  0.00  0.00     0.007 A 
HETATM   31  C   UNL     1      -1.476  16.550  20.610  0.00  0.00    -0.061 A 
HETATM   32  C   UNL     1      -1.594  15.213  21.017  0.00  0.00     0.014 A 
HETATM   33  C   UNL     1      -0.239  17.339  20.933  0.00  0.00     0.048 C 
ENDBRANCH  26  27
ENDBRANCH  10  26
TORSDOF 5
ENDMDL
MODEL 9
REMARK VINA RESULT:    -8.592      3.370      6.690
REMARK INTER + INTRA:         -11.763
REMARK INTER:                 -10.852
REMARK INTRA:                  -0.911
REMARK UNBOUND:                -0.911
REMARK  5 active torsions:
REMARK  status: ('A' for Active; 'I' for Inactive)
REMARK    1  A    between atoms: C_7  and  N_10 
REMARK       I    between atoms: N_10  and  C_12 
REMARK    2  A    between atoms: C_12  and  C_14 
REMARK    3  A    between atoms: C_16  and  O_17 
REMARK    4  A    between atoms: C_24  and  C_25 
REMARK    5  A    between atoms: C_25  and  C_26 
ROOT
HETATM    1  C   UNL     1      -0.108  12.721  23.650  0.00  0.00     0.066 A 
HETATM    2  C   UNL     1      -1.374  13.327  23.438  0.00  0.00     0.035 A 
HETATM    3  C   UNL     1      -0.069  11.347  23.892  0.00  0.00     0.083 A 
HETATM    4  C   UNL     1      -1.233  10.573  24.029  0.00  0.00     0.069 A 
HETATM    5  C   UNL     1      -2.457  11.217  23.859  0.00  0.00     0.065 A 
HETATM    6  C   UNL     1      -2.566  12.575  23.573  0.00  0.00     0.020 A 
HETATM    7  N   UNL     1      -3.741  10.746  23.891  0.00  0.00    -0.277 N 
HETATM    8  H   UNL     1      -4.048   9.795  24.054  0.00  0.00     0.189 HD
HETATM    9  N   UNL     1      -4.675  11.675  23.655  0.00  0.00    -0.178 NA
HETATM   10  C   UNL     1      -3.974  12.812  23.499  0.00  0.00     0.071 A 
ENDROOT
BRANCH   1  11
HETATM   11  C   UNL     1       1.093  13.596  23.397  0.00  0.00     0.260 C 
HETATM   12  N   UNL     1       1.736  13.673  22.133  0.00  0.00    -0.318 N 
HETATM   13  C   UNL     1       1.151  13.087  20.926  0.00  0.00     0.159 C 
HETATM   14  O   UNL     1       1.474  14.214  24.399  0.00  0.00    -0.267 OA
BRANCH  12  15
HETATM   15  C   UNL     1       3.009  14.364  21.967  0.00  0.00     0.039 A 
HETATM   16  C   UNL     1       4.017  14.307  22.943  0.00  0.00     0.069 A 
HETATM   17  C   UNL     1       5.238  14.925  22.699  0.00  0.00     0.107 A 
HETATM   18  O   UNL     1       6.309  14.930  23.539  0.00  0.00    -0.323 OA
HETATM   19  C   UNL     1       5.496  15.591  21.526  0.00  0.00     0.105 A 
HETATM   20  C   UNL     1       7.254  15.707  22.775  0.00  0.00     0.352 A 
HETATM   21  O   UNL     1       6.754  16.103  21.481  0.00  0.00    -0.323 OA
HETATM   22  C   UNL     1       4.548  15.685  20.540  0.00  0.00     0.042 A 
HETATM   23  C   UNL     1       3.302  15.076  20.767  0.00  0.00     0.032 A 
ENDBRANCH  12  15
ENDBRANCH   1  11
BRANCH   3  24
HETATM   24  O   UNL     1       1.114  10.669  23.977  0.00  0.00    -0.360 OA
HETATM   25  H   UNL     1       1.480  10.648  23.077  0.00  0.00     0.217 HD
ENDBRANCH   3  24
BRANCH  10  26
HETATM   26  C   UNL     1      -4.706  14.088  23.242  0.00  0.00     0.100 C 
BRANCH  26  27
HETATM   27  C   UNL     1      -4.399  14.506  21.819  0.00  0.00    -0.052 A 
HETATM   28  C   UNL     1      -5.073  13.896  20.751  0.00  0.00     0.007 A 
HETATM   29  C   UNL     1      -4.877  14.339  19.445  0.00  0.00     0.001 A 
HETATM   30  C   UNL     1      -3.984  15.372  19.180  0.00  0.00     0.007 A 
HETATM   31  C   UNL     1      -3.254  15.961  20.220  0.00  0.00    -0.061 A 
HETATM   32  C   UNL     1      -3.479  15.534  21.537  0.00  0.00     0.014 A 
HETATM   33  C   UNL     1      -2.213  17.003  19.923  0.00  0.00     0.048 C 
ENDBRANCH  26  27
ENDBRANCH  10  26
TORSDOF 5
ENDMDL
