MODEL 1
REMARK VINA RESULT:    -8.487      0.000      0.000
REMARK INTER + INTRA:         -12.105
REMARK INTER:                 -10.943
REMARK INTRA:                  -1.162
REMARK UNBOUND:                -0.889
REMARK  6 active torsions:
REMARK  status: ('A' for Active; 'I' for Inactive)
REMARK    1  A    between atoms: N_6  and  C_7 
REMARK    2  A    between atoms: C_12  and  N_13 
REMARK       I    between atoms: N_13  and  C_15 
REMARK    3  A    between atoms: C_15  and  C_17 
REMARK    4  A    between atoms: C_19  and  O_20 
REMARK    5  A    between atoms: C_27  and  C_28 
REMARK    6  A    between atoms: C_28  and  C_29 
ROOT
HETATM    1  C   UNL     1       4.421   7.455  22.667  0.00  0.00     0.066 C 
HETATM    2  C   UNL     1       3.874   8.015  21.492  0.00  0.00     0.035 C 
HETATM    3  C   UNL     1       5.579   6.662  22.542  0.00  0.00     0.083 C 
HETATM    4  C   UNL     1       6.130   6.337  21.294  0.00  0.00     0.069 C 
HETATM    5  C   UNL     1       5.427   6.762  20.162  0.00  0.00     0.065 A 
HETATM    6  C   UNL     1       4.291   7.559  20.225  0.00  0.00     0.020 A 
HETATM    7  N   UNL     1       5.641   6.557  18.829  0.00  0.00    -0.277 N 
HETATM    8  H   UNL     1       6.415   6.065  18.399  0.00  0.00     0.189 HD
HETATM    9  N   UNL     1       4.676   7.047  18.032  0.00  0.00    -0.178 NA
HETATM   10  C   UNL     1       3.814   7.643  18.874  0.00  0.00     0.071 A 
ENDROOT
BRANCH   1  11
HETATM   11  C   UNL     1       3.802   7.635  24.040  0.00  0.00     0.260 C 
HETATM   12  N   UNL     1       3.080   6.574  24.678  0.00  0.00    -0.318 N 
HETATM   13  C   UNL     1       2.876   5.286  24.009  0.00  0.00     0.159 C 
HETATM   14  O   UNL     1       4.079   8.712  24.573  0.00  0.00    -0.267 OA
BRANCH  12  15
HETATM   15  C   UNL     1       2.551   6.704  26.029  0.00  0.00     0.037 A 
HETATM   16  C   UNL     1       3.342   6.438  27.158  0.00  0.00     0.032 A 
HETATM   17  C   UNL     1       2.887   6.634  28.472  0.00  0.00     0.031 A 
HETATM   18  C   UNL     1       1.611   7.108  28.748  0.00  0.00     0.030 A 
HETATM   19  C   UNL     1       0.789   7.290  27.627  0.00  0.00     0.031 A 
HETATM   20  C   UNL     1       1.242   7.102  26.303  0.00  0.00     0.032 A 
BRANCH  18  21
HETATM   21  N   UNL     1       1.163   7.347  30.035  0.00  0.00    -0.381 N 
HETATM   22  C   UNL     1       1.000   8.696  30.591  0.00  0.00     0.123 C 
HETATM   23  C   UNL     1       1.476   8.680  32.046  0.00  0.00     0.020 C 
HETATM   24  C   UNL     1       0.791   7.584  32.864  0.00  0.00     0.003 C 
HETATM   25  C   UNL     1       0.876   6.228  32.162  0.00  0.00     0.020 C 
HETATM   26  C   UNL     1       0.362   6.330  30.729  0.00  0.00     0.123 C 
ENDBRANCH  18  21
ENDBRANCH  12  15
ENDBRANCH   1  11
BRANCH   3  27
HETATM   27  O   UNL     1       6.261   6.140  23.615  0.00  0.00    -0.360 OA
HETATM   28  H   UNL     1       6.230   6.802  24.344  0.00  0.00     0.217 HD
ENDBRANCH   3  27
BRANCH  10  29
HETATM   29  C   UNL     1       2.552   8.259  18.307  0.00  0.00     0.100 C 
BRANCH  29  30
HETATM   30  C   UNL     1       1.683   7.224  17.589  0.00  0.00    -0.052 A 
HETATM   31  C   UNL     1       1.452   7.243  16.206  0.00  0.00     0.007 A 
HETATM   32  C   UNL     1       0.649   6.281  15.591  0.00  0.00     0.001 A 
HETATM   33  C   UNL     1      -0.018   5.325  16.355  0.00  0.00     0.007 A 
HETATM   34  C   UNL     1       0.086   5.352  17.752  0.00  0.00    -0.061 A 
HETATM   35  C   UNL     1       0.964   6.274  18.355  0.00  0.00     0.014 A 
HETATM   36  C   UNL     1      -0.757   4.390  18.550  0.00  0.00     0.048 C 
ENDBRANCH  29  30
ENDBRANCH  10  29
TORSDOF 6
ENDMDL
MODEL 2
REMARK VINA RESULT:    -8.412      1.331      1.774
REMARK INTER + INTRA:         -12.005
REMARK INTER:                 -10.696
REMARK INTRA:                  -1.309
REMARK UNBOUND:                -0.889
REMARK  6 active torsions:
REMARK  status: ('A' for Active; 'I' for Inactive)
REMARK    1  A    between atoms: N_6  and  C_7 
REMARK    2  A    between atoms: C_12  and  N_13 
REMARK       I    between atoms: N_13  and  C_15 
REMARK    3  A    between atoms: C_15  and  C_17 
REMARK    4  A    between atoms: C_19  and  O_20 
REMARK    5  A    between atoms: C_27  and  C_28 
REMARK    6  A    between atoms: C_28  and  C_29 
ROOT
HETATM    1  C   UNL     1       4.135   7.518  21.139  0.00  0.00     0.066 C 
HETATM    2  C   UNL     1       3.331   7.772  20.007  0.00  0.00     0.035 C 
HETATM    3  C   UNL     1       5.361   6.851  20.941  0.00  0.00     0.083 C 
HETATM    4  C   UNL     1       5.745   6.353  19.688  0.00  0.00     0.069 C 
HETATM    5  C   UNL     1       4.816   6.466  18.650  0.00  0.00     0.065 A 
HETATM    6  C   UNL     1       3.601   7.126  18.783  0.00  0.00     0.020 A 
HETATM    7  N   UNL     1       4.840   6.030  17.356  0.00  0.00    -0.277 N 
HETATM    8  H   UNL     1       5.599   5.553  16.882  0.00  0.00     0.189 HD
HETATM    9  N   UNL     1       3.699   6.241  16.679  0.00  0.00    -0.178 NA
HETATM   10  C   UNL     1       2.906   6.890  17.550  0.00  0.00     0.071 A 
ENDROOT
BRANCH   1  11
HETATM   11  C   UNL     1       3.725   7.892  22.551  0.00  0.00     0.260 C 
HETATM   12  N   UNL     1       2.999   6.979  23.384  0.00  0.00    -0.318 N 
HETATM   13  C   UNL     1       2.587   5.663  22.887  0.00  0.00     0.159 C 
HETATM   14  O   UNL     1       4.171   8.979  22.927  0.00  0.00    -0.267 OA
BRANCH  12  15
HETATM   15  C   UNL     1       2.670   7.292  24.768  0.00  0.00     0.037 A 
HETATM   16  C   UNL     1       3.440   6.803  25.835  0.00  0.00     0.032 A 
HETATM   17  C   UNL     1       3.198   7.155  27.173  0.00  0.00     0.031 A 
HETATM   18  C   UNL     1       2.171   8.017  27.537  0.00  0.00     0.030 A 
HETATM   19  C   UNL     1       1.346   8.436  26.483  0.00  0.00     0.031 A 
HETATM   20  C   UNL     1       1.588   8.093  25.135  0.00  0.00     0.032 A 
BRANCH  18  21
HETATM   21  N   UNL     1       1.947   8.407  28.846  0.00  0.00    -0.381 N 
HETATM   22  C   UNL     1       3.019   8.844  29.747  0.00  0.00     0.123 C 
HETATM   23  C   UNL     1       2.748   8.265  31.138  0.00  0.00     0.020 C 
HETATM   24  C   UNL     1       1.342   8.600  31.637  0.00  0.00     0.003 C 
HETATM   25  C   UNL     1       0.280   8.247  30.593  0.00  0.00     0.020 C 
HETATM   26  C   UNL     1       0.617   8.882  29.247  0.00  0.00     0.123 C 
ENDBRANCH  18  21
ENDBRANCH  12  15
ENDBRANCH   1  11
BRANCH   3  27
HETATM   27  O   UNL     1       6.275   6.630  21.943  0.00  0.00    -0.360 OA
HETATM   28  H   UNL     1       7.091   7.137  21.727  0.00  0.00     0.217 HD
ENDBRANCH   3  27
BRANCH  10  29
HETATM   29  C   UNL     1       1.493   7.236  17.129  0.00  0.00     0.100 C 
BRANCH  29  30
HETATM   30  C   UNL     1       0.762   6.031  16.535  0.00  0.00    -0.052 A 
HETATM   31  C   UNL     1       0.364   5.959  15.193  0.00  0.00     0.007 A 
HETATM   32  C   UNL     1      -0.306   4.841  14.693  0.00  0.00     0.001 A 
HETATM   33  C   UNL     1      -0.676   3.801  15.544  0.00  0.00     0.007 A 
HETATM   34  C   UNL     1      -0.409   3.894  16.916  0.00  0.00    -0.061 A 
HETATM   35  C   UNL     1       0.340   4.987  17.395  0.00  0.00     0.014 A 
HETATM   36  C   UNL     1      -0.944   2.815  17.822  0.00  0.00     0.048 C 
ENDBRANCH  29  30
ENDBRANCH  10  29
TORSDOF 6
ENDMDL
MODEL 3
REMARK VINA RESULT:    -8.368      0.908      1.829
REMARK INTER + INTRA:         -11.947
REMARK INTER:                 -10.754
REMARK INTRA:                  -1.193
REMARK UNBOUND:                -0.889
REMARK  6 active torsions:
REMARK  status: ('A' for Active; 'I' for Inactive)
REMARK    1  A    between atoms: N_6  and  C_7 
REMARK    2  A    between atoms: C_12  and  N_13 
REMARK       I    between atoms: N_13  and  C_15 
REMARK    3  A    between atoms: C_15  and  C_17 
REMARK    4  A    between atoms: C_19  and  O_20 
REMARK    5  A    between atoms: C_27  and  C_28 
REMARK    6  A    between atoms: C_28  and  C_29 
ROOT
HETATM    1  C   UNL     1       4.510   7.400  21.999  0.00  0.00     0.066 C 
HETATM    2  C   UNL     1       3.741   7.821  20.893  0.00  0.00     0.035 C 
HETATM    3  C   UNL     1       5.690   6.673  21.745  0.00  0.00     0.083 C 
HETATM    4  C   UNL     1       6.057   6.277  20.451  0.00  0.00     0.069 C 
HETATM    5  C   UNL     1       5.153   6.557  19.422  0.00  0.00     0.065 A 
HETATM    6  C   UNL     1       3.984   7.283  19.612  0.00  0.00     0.020 A 
HETATM    7  N   UNL     1       5.166   6.251  18.092  0.00  0.00    -0.277 N 
HETATM    8  H   UNL     1       5.898   5.773  17.578  0.00  0.00     0.189 HD
HETATM    9  N   UNL     1       4.052   6.608  17.431  0.00  0.00    -0.178 NA
HETATM   10  C   UNL     1       3.293   7.220  18.356  0.00  0.00     0.071 A 
ENDROOT
BRANCH   1  11
HETATM   11  C   UNL     1       4.105   7.659  23.438  0.00  0.00     0.260 C 
HETATM   12  N   UNL     1       3.517   6.631  24.245  0.00  0.00    -0.318 N 
HETATM   13  C   UNL     1       3.245   5.299  23.697  0.00  0.00     0.159 C 
HETATM   14  O   UNL     1       4.434   8.773  23.855  0.00  0.00    -0.267 OA
BRANCH  12  15
HETATM   15  C   UNL     1       3.200   6.840  25.651  0.00  0.00     0.037 A 
HETATM   16  C   UNL     1       1.920   7.239  26.066  0.00  0.00     0.032 A 
HETATM   17  C   UNL     1       1.561   7.368  27.417  0.00  0.00     0.031 A 
HETATM   18  C   UNL     1       2.457   7.108  28.447  0.00  0.00     0.030 A 
HETATM   19  C   UNL     1       3.760   6.795  28.036  0.00  0.00     0.031 A 
HETATM   20  C   UNL     1       4.126   6.657  26.680  0.00  0.00     0.032 A 
BRANCH  18  21
HETATM   21  N   UNL     1       2.106   7.189  29.783  0.00  0.00    -0.381 N 
HETATM   22  C   UNL     1       1.401   6.115  30.494  0.00  0.00     0.123 C 
HETATM   23  C   UNL     1       0.363   6.751  31.423  0.00  0.00     0.020 C 
HETATM   24  C   UNL     1       0.982   7.804  32.343  0.00  0.00     0.003 C 
HETATM   25  C   UNL     1       1.818   8.813  31.554  0.00  0.00     0.020 C 
HETATM   26  C   UNL     1       2.839   8.096  30.676  0.00  0.00     0.123 C 
ENDBRANCH  18  21
ENDBRANCH  12  15
ENDBRANCH   1  11
BRANCH   3  27
HETATM   27  O   UNL     1       6.571   6.290  22.727  0.00  0.00    -0.360 OA
HETATM   28  H   UNL     1       6.225   6.617  23.589  0.00  0.00     0.217 HD
ENDBRANCH   3  27
BRANCH  10  29
HETATM   29  C   UNL     1       1.914   7.705  17.960  0.00  0.00     0.100 C 
BRANCH  29  30
HETATM   30  C   UNL     1       0.958   6.543  17.679  0.00  0.00    -0.052 A 
HETATM   31  C   UNL     1       0.421   5.731  18.687  0.00  0.00     0.007 A 
HETATM   32  C   UNL     1      -0.445   4.677  18.386  0.00  0.00     0.001 A 
HETATM   33  C   UNL     1      -0.726   4.352  17.060  0.00  0.00     0.007 A 
HETATM   34  C   UNL     1      -0.107   5.060  16.022  0.00  0.00    -0.061 A 
HETATM   35  C   UNL     1       0.698   6.172  16.337  0.00  0.00     0.014 A 
HETATM   36  C   UNL     1      -0.329   4.591  14.607  0.00  0.00     0.048 C 
ENDBRANCH  29  30
ENDBRANCH  10  29
TORSDOF 6
ENDMDL
MODEL 4
REMARK VINA RESULT:    -7.851      2.265      9.992
REMARK INTER + INTRA:         -11.264
REMARK INTER:                 -10.123
REMARK INTRA:                  -1.141
REMARK UNBOUND:                -0.889
REMARK  6 active torsions:
REMARK  status: ('A' for Active; 'I' for Inactive)
REMARK    1  A    between atoms: N_6  and  C_7 
REMARK    2  A    between atoms: C_12  and  N_13 
REMARK       I    between atoms: N_13  and  C_15 
REMARK    3  A    between atoms: C_15  and  C_17 
REMARK    4  A    between atoms: C_19  and  O_20 
REMARK    5  A    between atoms: C_27  and  C_28 
REMARK    6  A    between atoms: C_28  and  C_29 
ROOT
HETATM    1  C   UNL     1       3.135   6.138  25.368  0.00  0.00     0.066 C 
HETATM    2  C   UNL     1       2.000   6.175  26.205  0.00  0.00     0.035 C 
HETATM    3  C   UNL     1       4.405   6.099  25.979  0.00  0.00     0.083 C 
HETATM    4  C   UNL     1       4.567   6.199  27.368  0.00  0.00     0.069 C 
HETATM    5  C   UNL     1       3.415   6.430  28.126  0.00  0.00     0.065 A 
HETATM    6  C   UNL     1       2.138   6.462  27.579  0.00  0.00     0.020 A 
HETATM    7  N   UNL     1       3.232   6.646  29.461  0.00  0.00    -0.277 N 
HETATM    8  H   UNL     1       3.939   6.636  30.188  0.00  0.00     0.189 HD
HETATM    9  N   UNL     1       1.967   6.936  29.807  0.00  0.00    -0.178 NA
HETATM   10  C   UNL     1       1.276   6.859  28.656  0.00  0.00     0.071 A 
ENDROOT
BRANCH   1  11
HETATM   11  C   UNL     1       3.053   6.177  23.854  0.00  0.00     0.260 C 
HETATM   12  N   UNL     1       3.000   4.973  23.078  0.00  0.00    -0.318 N 
HETATM   13  C   UNL     1       3.067   3.655  23.716  0.00  0.00     0.159 C 
HETATM   14  O   UNL     1       2.922   7.313  23.392  0.00  0.00    -0.267 OA
BRANCH  12  15
HETATM   15  C   UNL     1       2.837   4.994  21.631  0.00  0.00     0.037 A 
HETATM   16  C   UNL     1       1.931   4.143  20.979  0.00  0.00     0.032 A 
HETATM   17  C   UNL     1       1.692   4.197  19.596  0.00  0.00     0.031 A 
HETATM   18  C   UNL     1       2.342   5.106  18.770  0.00  0.00     0.030 A 
HETATM   19  C   UNL     1       3.311   5.896  19.402  0.00  0.00     0.031 A 
HETATM   20  C   UNL     1       3.552   5.852  20.793  0.00  0.00     0.032 A 
BRANCH  18  21
HETATM   21  N   UNL     1       2.086   5.201  17.413  0.00  0.00    -0.381 N 
HETATM   22  C   UNL     1       2.654   6.253  16.561  0.00  0.00     0.123 C 
HETATM   23  C   UNL     1       1.576   6.712  15.576  0.00  0.00     0.020 C 
HETATM   24  C   UNL     1       0.970   5.543  14.800  0.00  0.00     0.003 C 
HETATM   25  C   UNL     1       0.523   4.420  15.738  0.00  0.00     0.020 C 
HETATM   26  C   UNL     1       1.663   4.010  16.666  0.00  0.00     0.123 C 
ENDBRANCH  18  21
ENDBRANCH  12  15
ENDBRANCH   1  11
BRANCH   3  27
HETATM   27  O   UNL     1       5.580   5.966  25.279  0.00  0.00    -0.360 OA
HETATM   28  H   UNL     1       6.063   6.822  25.332  0.00  0.00     0.217 HD
ENDBRANCH   3  27
BRANCH  10  29
HETATM   29  C   UNL     1      -0.200   7.193  28.670  0.00  0.00     0.100 C 
BRANCH  29  30
HETATM   30  C   UNL     1      -0.482   8.564  28.052  0.00  0.00    -0.052 A 
HETATM   31  C   UNL     1      -0.853   9.685  28.807  0.00  0.00     0.007 A 
HETATM   32  C   UNL     1      -1.105  10.918  28.201  0.00  0.00     0.001 A 
HETATM   33  C   UNL     1      -1.080  11.040  26.813  0.00  0.00     0.007 A 
HETATM   34  C   UNL     1      -0.838   9.912  26.017  0.00  0.00    -0.061 A 
HETATM   35  C   UNL     1      -0.503   8.694  26.641  0.00  0.00     0.014 A 
HETATM   36  C   UNL     1      -0.954  10.056  24.522  0.00  0.00     0.048 C 
ENDBRANCH  29  30
ENDBRANCH  10  29
TORSDOF 6
ENDMDL
MODEL 5
REMARK VINA RESULT:    -7.782      2.919     10.329
REMARK INTER + INTRA:         -11.173
REMARK INTER:                  -9.938
REMARK INTRA:                  -1.235
REMARK UNBOUND:                -0.889
REMARK  6 active torsions:
REMARK  status: ('A' for Active; 'I' for Inactive)
REMARK    1  A    between atoms: N_6  and  C_7 
REMARK    2  A    between atoms: C_12  and  N_13 
REMARK       I    between atoms: N_13  and  C_15 
REMARK    3  A    between atoms: C_15  and  C_17 
REMARK    4  A    between atoms: C_19  and  O_20 
REMARK    5  A    between atoms: C_27  and  C_28 
REMARK    6  A    between atoms: C_28  and  C_29 
ROOT
HETATM    1  C   UNL     1       3.568   6.151  23.244  0.00  0.00     0.066 C 
HETATM    2  C   UNL     1       2.590   6.072  24.259  0.00  0.00     0.035 C 
HETATM    3  C   UNL     1       4.876   6.519  23.616  0.00  0.00     0.083 C 
HETATM    4  C   UNL     1       5.200   6.901  24.925  0.00  0.00     0.069 C 
HETATM    5  C   UNL     1       4.145   6.988  25.838  0.00  0.00     0.065 A 
HETATM    6  C   UNL     1       2.840   6.624  25.532  0.00  0.00     0.020 A 
HETATM    7  N   UNL     1       4.102   7.391  27.142  0.00  0.00    -0.277 N 
HETATM    8  H   UNL     1       4.882   7.676  27.724  0.00  0.00     0.189 HD
HETATM    9  N   UNL     1       2.866   7.435  27.667  0.00  0.00    -0.178 NA
HETATM   10  C   UNL     1       2.065   6.995  26.681  0.00  0.00     0.071 A 
ENDROOT
BRANCH   1  11
HETATM   11  C   UNL     1       3.266   5.899  21.779  0.00  0.00     0.260 C 
HETATM   12  N   UNL     1       2.840   4.611  21.315  0.00  0.00    -0.318 N 
HETATM   13  C   UNL     1       2.719   3.476  22.235  0.00  0.00     0.159 C 
HETATM   14  O   UNL     1       3.313   6.913  21.079  0.00  0.00    -0.267 OA
BRANCH  12  15
HETATM   15  C   UNL     1       2.468   4.375  19.927  0.00  0.00     0.037 A 
HETATM   16  C   UNL     1       3.304   3.664  19.052  0.00  0.00     0.032 A 
HETATM   17  C   UNL     1       2.936   3.349  17.733  0.00  0.00     0.031 A 
HETATM   18  C   UNL     1       1.709   3.723  17.199  0.00  0.00     0.030 A 
HETATM   19  C   UNL     1       0.910   4.508  18.041  0.00  0.00     0.031 A 
HETATM   20  C   UNL     1       1.269   4.822  19.369  0.00  0.00     0.032 A 
BRANCH  18  21
HETATM   21  N   UNL     1       1.315   3.383  15.917  0.00  0.00    -0.381 N 
HETATM   22  C   UNL     1       1.269   1.998  15.433  0.00  0.00     0.123 C 
HETATM   23  C   UNL     1       1.781   1.972  13.990  0.00  0.00     0.020 C 
HETATM   24  C   UNL     1       1.040   2.968  13.098  0.00  0.00     0.003 C 
HETATM   25  C   UNL     1       1.006   4.363  13.726  0.00  0.00     0.020 C 
HETATM   26  C   UNL     1       0.462   4.298  15.150  0.00  0.00     0.123 C 
ENDBRANCH  18  21
ENDBRANCH  12  15
ENDBRANCH   1  11
BRANCH   3  27
HETATM   27  O   UNL     1       5.936   6.540  22.740  0.00  0.00    -0.360 OA
HETATM   28  H   UNL     1       6.354   5.649  22.750  0.00  0.00     0.217 HD
ENDBRANCH   3  27
BRANCH  10  29
HETATM   29  C   UNL     1       0.569   6.973  26.915  0.00  0.00     0.100 C 
BRANCH  29  30
HETATM   30  C   UNL     1      -0.038   8.377  26.866  0.00  0.00    -0.052 A 
HETATM   31  C   UNL     1      -0.496   9.055  28.005  0.00  0.00     0.007 A 
HETATM   32  C   UNL     1      -1.048  10.334  27.914  0.00  0.00     0.001 A 
HETATM   33  C   UNL     1      -1.238  10.935  26.672  0.00  0.00     0.007 A 
HETATM   34  C   UNL     1      -0.910  10.237  25.502  0.00  0.00    -0.061 A 
HETATM   35  C   UNL     1      -0.278   8.983  25.608  0.00  0.00     0.014 A 
HETATM   36  C   UNL     1      -1.256  10.864  24.176  0.00  0.00     0.048 C 
ENDBRANCH  29  30
ENDBRANCH  10  29
TORSDOF 6
ENDMDL
MODEL 6
REMARK VINA RESULT:    -7.771      4.388      9.079
REMARK INTER + INTRA:         -11.158
REMARK INTER:                 -10.092
REMARK INTRA:                  -1.066
REMARK UNBOUND:                -0.889
REMARK  6 active torsions:
REMARK  status: ('A' for Active; 'I' for Inactive)
REMARK    1  A    between atoms: N_6  and  C_7 
REMARK    2  A    between atoms: C_12  and  N_13 
REMARK       I    between atoms: N_13  and  C_15 
REMARK    3  A    between atoms: C_15  and  C_17 
REMARK    4  A    between atoms: C_19  and  O_20 
REMARK    5  A    between atoms: C_27  and  C_28 
REMARK    6  A    between atoms: C_28  and  C_29 
ROOT
HETATM    1  C   UNL     1       2.943   5.131  19.266  0.00  0.00     0.066 C 
HETATM    2  C   UNL     1       3.695   5.122  20.460  0.00  0.00     0.035 C 
HETATM    3  C   UNL     1       3.546   5.670  18.111  0.00  0.00     0.083 C 
HETATM    4  C   UNL     1       4.809   6.277  18.143  0.00  0.00     0.069 C 
HETATM    5  C   UNL     1       5.416   6.409  19.395  0.00  0.00     0.065 A 
HETATM    6  C   UNL     1       4.876   5.884  20.563  0.00  0.00     0.020 A 
HETATM    7  N   UNL     1       6.583   7.003  19.782  0.00  0.00    -0.277 N 
HETATM    8  H   UNL     1       7.275   7.445  19.187  0.00  0.00     0.189 HD
HETATM    9  N   UNL     1       6.784   7.016  21.111  0.00  0.00    -0.178 NA
HETATM   10  C   UNL     1       5.727   6.358  21.618  0.00  0.00     0.071 A 
ENDROOT
BRANCH   1  11
HETATM   11  C   UNL     1       1.515   4.628  19.179  0.00  0.00     0.260 C 
HETATM   12  N   UNL     1       1.218   3.226  19.138  0.00  0.00    -0.318 N 
HETATM   13  C   UNL     1       2.288   2.224  19.136  0.00  0.00     0.159 C 
HETATM   14  O   UNL     1       0.667   5.520  19.264  0.00  0.00    -0.267 OA
BRANCH  12  15
HETATM   15  C   UNL     1      -0.150   2.727  19.139  0.00  0.00     0.037 A 
HETATM   16  C   UNL     1      -0.471   1.459  19.650  0.00  0.00     0.032 A 
HETATM   17  C   UNL     1      -1.790   0.985  19.741  0.00  0.00     0.031 A 
HETATM   18  C   UNL     1      -2.878   1.743  19.326  0.00  0.00     0.030 A 
HETATM   19  C   UNL     1      -2.554   2.971  18.733  0.00  0.00     0.031 A 
HETATM   20  C   UNL     1      -1.232   3.458  18.646  0.00  0.00     0.032 A 
BRANCH  18  21
HETATM   21  N   UNL     1      -4.185   1.307  19.448  0.00  0.00    -0.381 N 
HETATM   22  C   UNL     1      -4.985   0.841  18.309  0.00  0.00     0.123 C 
HETATM   23  C   UNL     1      -6.413   1.369  18.473  0.00  0.00     0.020 C 
HETATM   24  C   UNL     1      -7.006   1.012  19.836  0.00  0.00     0.003 C 
HETATM   25  C   UNL     1      -6.061   1.399  20.975  0.00  0.00     0.020 C 
HETATM   26  C   UNL     1      -4.671   0.813  20.742  0.00  0.00     0.123 C 
ENDBRANCH  18  21
ENDBRANCH  12  15
ENDBRANCH   1  11
BRANCH   3  27
HETATM   27  O   UNL     1       2.957   5.651  16.870  0.00  0.00    -0.360 OA
HETATM   28  H   UNL     1       2.593   6.548  16.693  0.00  0.00     0.217 HD
ENDBRANCH   3  27
BRANCH  10  29
HETATM   29  C   UNL     1       5.599   6.236  23.122  0.00  0.00     0.100 C 
BRANCH  29  30
HETATM   30  C   UNL     1       4.407   7.030  23.660  0.00  0.00    -0.052 A 
HETATM   31  C   UNL     1       3.195   6.434  24.035  0.00  0.00     0.007 A 
HETATM   32  C   UNL     1       2.130   7.198  24.518  0.00  0.00     0.001 A 
HETATM   33  C   UNL     1       2.217   8.588  24.554  0.00  0.00     0.007 A 
HETATM   34  C   UNL     1       3.365   9.228  24.068  0.00  0.00    -0.061 A 
HETATM   35  C   UNL     1       4.464   8.446  23.662  0.00  0.00     0.014 A 
HETATM   36  C   UNL     1       3.367  10.734  23.998  0.00  0.00     0.048 C 
ENDBRANCH  29  30
ENDBRANCH  10  29
TORSDOF 6
ENDMDL
MODEL 7
REMARK VINA RESULT:    -7.707      3.924     11.008
REMARK INTER + INTRA:         -11.074
REMARK INTER:                 -10.240
REMARK INTRA:                  -0.834
REMARK UNBOUND:                -0.889
REMARK  6 active torsions:
REMARK  status: ('A' for Active; 'I' for Inactive)
REMARK    1  A    between atoms: N_6  and  C_7 
REMARK    2  A    between atoms: C_12  and  N_13 
REMARK       I    between atoms: N_13  and  C_15 
REMARK    3  A    between atoms: C_15  and  C_17 
REMARK    4  A    between atoms: C_19  and  O_20 
REMARK    5  A    between atoms: C_27  and  C_28 
REMARK    6  A    between atoms: C_28  and  C_29 
ROOT
HETATM    1  C   UNL     1       3.346   5.493  19.162  0.00  0.00     0.066 C 
HETATM    2  C   UNL     1       3.127   5.277  20.540  0.00  0.00     0.035 C 
HETATM    3  C   UNL     1       4.612   5.966  18.762  0.00  0.00     0.083 C 
HETATM    4  C   UNL     1       5.603   6.319  19.688  0.00  0.00     0.069 C 
HETATM    5  C   UNL     1       5.254   6.267  21.040  0.00  0.00     0.065 A 
HETATM    6  C   UNL     1       4.028   5.794  21.493  0.00  0.00     0.020 A 
HETATM    7  N   UNL     1       5.940   6.606  22.171  0.00  0.00    -0.277 N 
HETATM    8  H   UNL     1       6.896   6.938  22.233  0.00  0.00     0.189 HD
HETATM    9  N   UNL     1       5.223   6.510  23.303  0.00  0.00    -0.178 NA
HETATM   10  C   UNL     1       4.028   6.040  22.907  0.00  0.00     0.071 A 
ENDROOT
BRANCH   1  11
HETATM   11  C   UNL     1       2.278   5.277  18.107  0.00  0.00     0.260 C 
HETATM   12  N   UNL     1       2.131   4.017  17.439  0.00  0.00    -0.318 N 
HETATM   13  C   UNL     1       3.038   2.900  17.720  0.00  0.00     0.159 C 
HETATM   14  O   UNL     1       1.505   6.230  17.979  0.00  0.00    -0.267 OA
BRANCH  12  15
HETATM   15  C   UNL     1       1.059   3.769  16.485  0.00  0.00     0.037 A 
HETATM   16  C   UNL     1      -0.112   3.090  16.854  0.00  0.00     0.032 A 
HETATM   17  C   UNL     1      -1.197   2.909  15.980  0.00  0.00     0.031 A 
HETATM   18  C   UNL     1      -1.185   3.394  14.678  0.00  0.00     0.030 A 
HETATM   19  C   UNL     1       0.017   3.994  14.279  0.00  0.00     0.031 A 
HETATM   20  C   UNL     1       1.108   4.186  15.154  0.00  0.00     0.032 A 
BRANCH  18  21
HETATM   21  N   UNL     1      -2.262   3.262  13.820  0.00  0.00    -0.381 N 
HETATM   22  C   UNL     1      -2.722   4.340  12.936  0.00  0.00     0.123 C 
HETATM   23  C   UNL     1      -4.253   4.339  12.928  0.00  0.00     0.020 C 
HETATM   24  C   UNL     1      -4.826   2.965  12.581  0.00  0.00     0.003 C 
HETATM   25  C   UNL     1      -4.204   1.866  13.445  0.00  0.00     0.020 C 
HETATM   26  C   UNL     1      -2.681   1.926  13.376  0.00  0.00     0.123 C 
ENDBRANCH  18  21
ENDBRANCH  12  15
ENDBRANCH   1  11
BRANCH   3  27
HETATM   27  O   UNL     1       4.981   6.125  17.448  0.00  0.00    -0.360 OA
HETATM   28  H   UNL     1       5.403   5.288  17.148  0.00  0.00     0.217 HD
ENDBRANCH   3  27
BRANCH  10  29
HETATM   29  C   UNL     1       2.935   5.866  23.941  0.00  0.00     0.100 C 
BRANCH  29  30
HETATM   30  C   UNL     1       2.366   7.210  24.402  0.00  0.00    -0.052 A 
HETATM   31  C   UNL     1       1.078   7.354  24.937  0.00  0.00     0.007 A 
HETATM   32  C   UNL     1       0.597   8.601  25.342  0.00  0.00     0.001 A 
HETATM   33  C   UNL     1       1.357   9.751  25.140  0.00  0.00     0.007 A 
HETATM   34  C   UNL     1       2.596   9.663  24.491  0.00  0.00    -0.061 A 
HETATM   35  C   UNL     1       3.107   8.393  24.163  0.00  0.00     0.014 A 
HETATM   36  C   UNL     1       3.324  10.943  24.169  0.00  0.00     0.048 C 
ENDBRANCH  29  30
ENDBRANCH  10  29
TORSDOF 6
ENDMDL
MODEL 8
REMARK VINA RESULT:    -7.622      1.879      2.598
REMARK INTER + INTRA:         -10.961
REMARK INTER:                  -9.337
REMARK INTRA:                  -1.624
REMARK UNBOUND:                -0.889
REMARK  6 active torsions:
REMARK  status: ('A' for Active; 'I' for Inactive)
REMARK    1  A    between atoms: N_6  and  C_7 
REMARK    2  A    between atoms: C_12  and  N_13 
REMARK       I    between atoms: N_13  and  C_15 
REMARK    3  A    between atoms: C_15  and  C_17 
REMARK    4  A    between atoms: C_19  and  O_20 
REMARK    5  A    between atoms: C_27  and  C_28 
REMARK    6  A    between atoms: C_28  and  C_29 
ROOT
HETATM    1  C   UNL     1       3.537   7.745  22.725  0.00  0.00     0.066 C 
HETATM    2  C   UNL     1       3.518   6.770  21.704  0.00  0.00     0.035 C 
HETATM    3  C   UNL     1       4.107   8.999  22.430  0.00  0.00     0.083 C 
HETATM    4  C   UNL     1       4.735   9.263  21.205  0.00  0.00     0.069 C 
HETATM    5  C   UNL     1       4.854   8.195  20.311  0.00  0.00     0.065 A 
HETATM    6  C   UNL     1       4.299   6.942  20.543  0.00  0.00     0.020 A 
HETATM    7  N   UNL     1       5.461   8.092  19.092  0.00  0.00    -0.277 N 
HETATM    8  H   UNL     1       5.925   8.828  18.573  0.00  0.00     0.189 HD
HETATM    9  N   UNL     1       5.452   6.853  18.573  0.00  0.00    -0.178 NA
HETATM   10  C   UNL     1       4.767   6.117  19.465  0.00  0.00     0.071 A 
ENDROOT
BRANCH   1  11
HETATM   11  C   UNL     1       3.012   7.490  24.126  0.00  0.00     0.260 C 
HETATM   12  N   UNL     1       3.797   6.795  25.103  0.00  0.00    -0.318 N 
HETATM   13  C   UNL     1       5.123   6.264  24.773  0.00  0.00     0.159 C 
HETATM   14  O   UNL     1       1.927   8.030  24.356  0.00  0.00    -0.267 OA
BRANCH  12  15
HETATM   15  C   UNL     1       3.341   6.616  26.474  0.00  0.00     0.037 A 
HETATM   16  C   UNL     1       3.603   7.572  27.468  0.00  0.00     0.032 A 
HETATM   17  C   UNL     1       3.105   7.468  28.777  0.00  0.00     0.031 A 
HETATM   18  C   UNL     1       2.313   6.401  29.184  0.00  0.00     0.030 A 
HETATM   19  C   UNL     1       2.125   5.401  28.220  0.00  0.00     0.031 A 
HETATM   20  C   UNL     1       2.615   5.503  26.900  0.00  0.00     0.032 A 
BRANCH  18  21
HETATM   21  N   UNL     1       1.780   6.306  30.457  0.00  0.00    -0.381 N 
HETATM   22  C   UNL     1       0.338   6.252  30.721  0.00  0.00     0.123 C 
HETATM   23  C   UNL     1       0.041   7.100  31.961  0.00  0.00     0.020 C 
HETATM   24  C   UNL     1       0.907   6.697  33.155  0.00  0.00     0.003 C 
HETATM   25  C   UNL     1       2.388   6.637  32.776  0.00  0.00     0.020 C 
HETATM   26  C   UNL     1       2.594   5.755  31.548  0.00  0.00     0.123 C 
ENDBRANCH  18  21
ENDBRANCH  12  15
ENDBRANCH   1  11
BRANCH   3  27
HETATM   27  O   UNL     1       4.101  10.059  23.304  0.00  0.00    -0.360 OA
HETATM   28  H   UNL     1       4.772  10.711  22.996  0.00  0.00     0.217 HD
ENDBRANCH   3  27
BRANCH  10  29
HETATM   29  C   UNL     1       4.616   4.631  19.220  0.00  0.00     0.100 C 
BRANCH  29  30
HETATM   30  C   UNL     1       3.172   4.163  19.413  0.00  0.00    -0.052 A 
HETATM   31  C   UNL     1       2.802   3.175  20.336  0.00  0.00     0.007 A 
HETATM   32  C   UNL     1       1.471   2.775  20.476  0.00  0.00     0.001 A 
HETATM   33  C   UNL     1       0.487   3.289  19.634  0.00  0.00     0.007 A 
HETATM   34  C   UNL     1       0.838   4.184  18.615  0.00  0.00    -0.061 A 
HETATM   35  C   UNL     1       2.167   4.643  18.536  0.00  0.00     0.014 A 
HETATM   36  C   UNL     1      -0.229   4.611  17.640  0.00  0.00     0.048 C 
ENDBRANCH  29  30
ENDBRANCH  10  29
TORSDOF 6
ENDMDL
MODEL 9
REMARK VINA RESULT:    -7.584      5.626      8.726
REMARK INTER + INTRA:         -10.911
REMARK INTER:                 -10.022
REMARK INTRA:                  -0.889
REMARK UNBOUND:                -0.889
REMARK  6 active torsions:
REMARK  status: ('A' for Active; 'I' for Inactive)
REMARK    1  A    between atoms: N_6  and  C_7 
REMARK    2  A    between atoms: C_12  and  N_13 
REMARK       I    between atoms: N_13  and  C_15 
REMARK    3  A    between atoms: C_15  and  C_17 
REMARK    4  A    between atoms: C_19  and  O_20 
REMARK    5  A    between atoms: C_27  and  C_28 
REMARK    6  A    between atoms: C_28  and  C_29 
ROOT
HETATM    1  C   UNL     1       0.624   7.149  28.024  0.00  0.00     0.066 C 
HETATM    2  C   UNL     1      -0.327   7.755  27.175  0.00  0.00     0.035 C 
HETATM    3  C   UNL     1       0.854   7.737  29.284  0.00  0.00     0.083 C 
HETATM    4  C   UNL     1       0.249   8.942  29.666  0.00  0.00     0.069 C 
HETATM    5  C   UNL     1      -0.530   9.593  28.704  0.00  0.00     0.065 A 
HETATM    6  C   UNL     1      -0.803   9.053  27.453  0.00  0.00     0.020 A 
HETATM    7  N   UNL     1      -1.184  10.791  28.722  0.00  0.00    -0.277 N 
HETATM    8  H   UNL     1      -1.256  11.440  29.497  0.00  0.00     0.189 HD
HETATM    9  N   UNL     1      -1.752  11.129  27.552  0.00  0.00    -0.178 NA
HETATM   10  C   UNL     1      -1.504  10.085  26.743  0.00  0.00     0.071 A 
ENDROOT
BRANCH   1  11
HETATM   11  C   UNL     1       1.431   5.927  27.628  0.00  0.00     0.260 C 
HETATM   12  N   UNL     1       2.601   6.038  26.808  0.00  0.00    -0.318 N 
HETATM   13  C   UNL     1       3.040   7.335  26.285  0.00  0.00     0.159 C 
HETATM   14  O   UNL     1       1.051   4.884  28.166  0.00  0.00    -0.267 OA
BRANCH  12  15
HETATM   15  C   UNL     1       3.432   4.886  26.488  0.00  0.00     0.037 A 
HETATM   16  C   UNL     1       4.593   4.589  27.220  0.00  0.00     0.032 A 
HETATM   17  C   UNL     1       5.367   3.440  26.990  0.00  0.00     0.031 A 
HETATM   18  C   UNL     1       5.036   2.510  26.012  0.00  0.00     0.030 A 
HETATM   19  C   UNL     1       3.930   2.849  25.221  0.00  0.00     0.031 A 
HETATM   20  C   UNL     1       3.142   3.997  25.452  0.00  0.00     0.032 A 
BRANCH  18  21
HETATM   21  N   UNL     1       5.765   1.353  25.801  0.00  0.00    -0.381 N 
HETATM   22  C   UNL     1       6.480   0.649  26.873  0.00  0.00     0.123 C 
HETATM   23  C   UNL     1       7.823   0.164  26.321  0.00  0.00     0.020 C 
HETATM   24  C   UNL     1       7.657  -0.656  25.041  0.00  0.00     0.003 C 
HETATM   25  C   UNL     1       6.786   0.075  24.018  0.00  0.00     0.020 C 
HETATM   26  C   UNL     1       5.462   0.501  24.645  0.00  0.00     0.123 C 
ENDBRANCH  18  21
ENDBRANCH  12  15
ENDBRANCH   1  11
BRANCH   3  27
HETATM   27  O   UNL     1       1.681   7.191  30.236  0.00  0.00    -0.360 OA
HETATM   28  H   UNL     1       1.146   7.032  31.047  0.00  0.00     0.217 HD
ENDBRANCH   3  27
BRANCH  10  29
HETATM   29  C   UNL     1      -1.959  10.158  25.300  0.00  0.00     0.100 C 
BRANCH  29  30
HETATM   30  C   UNL     1      -1.295  11.314  24.549  0.00  0.00    -0.052 A 
HETATM   31  C   UNL     1      -0.400  12.208  25.153  0.00  0.00     0.007 A 
HETATM   32  C   UNL     1       0.180  13.253  24.431  0.00  0.00     0.001 A 
HETATM   33  C   UNL     1      -0.187  13.486  23.107  0.00  0.00     0.007 A 
HETATM   34  C   UNL     1      -1.174  12.691  22.507  0.00  0.00    -0.061 A 
HETATM   35  C   UNL     1      -1.691  11.590  23.217  0.00  0.00     0.014 A 
HETATM   36  C   UNL     1      -1.641  13.059  21.122  0.00  0.00     0.048 C 
ENDBRANCH  29  30
ENDBRANCH  10  29
TORSDOF 6
ENDMDL
