MODEL 1
REMARK VINA RESULT:    -6.484      0.000      0.000
REMARK INTER + INTRA:          -9.347
REMARK INTER:                  -9.261
REMARK INTRA:                  -0.085
REMARK UNBOUND:                -1.347
REMARK  5 active torsions:
REMARK  status: ('A' for Active; 'I' for Inactive)
REMARK    1  A    between atoms: C_3  and  O_4 
REMARK    2  A    between atoms: C_6  and  O_7 
REMARK    3  A    between atoms: C_8  and  C_9 
REMARK    4  A    between atoms: C_15  and  C_16 
REMARK    5  A    between atoms: C_19  and  O_22 
ROOT
HETATM    1  C   UNL     1       7.548  12.264  20.857  0.00  0.00     0.099 A 
HETATM    2  N   UNL     1       8.619  12.316  20.043  0.00  0.00    -0.173 NA
HETATM    3  N   UNL     1       9.176  13.504  20.259  0.00  0.00    -0.281 N 
HETATM    4  H   UNL     1       9.974  13.767  19.685  0.00  0.00     0.189 HD
HETATM    5  C   UNL     1       8.592  14.210  21.260  0.00  0.00     0.033 A 
HETATM    6  C   UNL     1       9.109  15.519  21.727  0.00  0.00     0.070 C 
HETATM    7  C   UNL     1       7.495  13.461  21.667  0.00  0.00     0.008 A 
ENDROOT
BRANCH   1   8
HETATM    8  C   UNL     1       6.688  11.058  20.850  0.00  0.00     0.028 A 
HETATM    9  C   UNL     1       6.441  10.372  22.050  0.00  0.00     0.019 A 
HETATM   10  C   UNL     1       5.686   9.194  22.088  0.00  0.00     0.037 A 
HETATM   11  C   UNL     1       5.192   8.662  20.907  0.00  0.00     0.068 A 
HETATM   12  C   UNL     1       5.422   9.301  19.697  0.00  0.00     0.074 A 
HETATM   13  C   UNL     1       6.154  10.496  19.670  0.00  0.00     0.081 A 
BRANCH  11  14
HETATM   14  O   UNL     1       4.475   7.504  20.893  0.00  0.00    -0.361 OA
HETATM   15  H   UNL     1       4.859   6.893  21.543  0.00  0.00     0.217 HD
ENDBRANCH  11  14
BRANCH  13  16
HETATM   16  O   UNL     1       6.312  11.111  18.453  0.00  0.00    -0.360 OA
HETATM   17  H   UNL     1       7.010  10.654  17.959  0.00  0.00     0.217 HD
ENDBRANCH  13  16
ENDBRANCH   1   8
BRANCH   7  18
HETATM   18  C   UNL     1       6.537  13.944  22.725  0.00  0.00     0.068 C 
HETATM   19  C   UNL     1       6.711  15.392  23.113  0.00  0.00    -0.015 C 
HETATM   20  C   UNL     1       5.676  16.147  23.526  0.00  0.00     0.006 C 
HETATM   21  C   UNL     1       4.256  15.639  23.569  0.00  0.00     0.166 C 
HETATM   22  C   UNL     1       4.066  14.310  22.878  0.00  0.00     0.006 C 
HETATM   23  C   UNL     1       5.096  13.546  22.472  0.00  0.00    -0.015 C 
BRANCH  21  24
HETATM   24  O   UNL     1       3.745  15.579  24.903  0.00  0.00    -0.383 OA
HETATM   25  C   UNL     1       2.700  14.637  25.120  0.00  0.00     0.202 C 
ENDBRANCH  21  24
ENDBRANCH   7  18
TORSDOF 5
ENDMDL
MODEL 2
REMARK VINA RESULT:    -6.425      1.103      1.474
REMARK INTER + INTRA:          -9.275
REMARK INTER:                  -9.132
REMARK INTRA:                  -0.143
REMARK UNBOUND:                -1.347
REMARK  5 active torsions:
REMARK  status: ('A' for Active; 'I' for Inactive)
REMARK    1  A    between atoms: C_3  and  O_4 
REMARK    2  A    between atoms: C_6  and  O_7 
REMARK    3  A    between atoms: C_8  and  C_9 
REMARK    4  A    between atoms: C_15  and  C_16 
REMARK    5  A    between atoms: C_19  and  O_22 
ROOT
HETATM    1  C   UNL     1       7.778  12.577  20.860  0.00  0.00     0.099 A 
HETATM    2  N   UNL     1       8.913  12.699  20.147  0.00  0.00    -0.173 NA
HETATM    3  N   UNL     1       9.472  13.835  20.554  0.00  0.00    -0.281 N 
HETATM    4  H   UNL     1      10.319  14.144  20.083  0.00  0.00     0.189 HD
HETATM    5  C   UNL     1       8.821  14.427  21.587  0.00  0.00     0.033 A 
HETATM    6  C   UNL     1       9.321  15.653  22.255  0.00  0.00     0.070 C 
HETATM    7  C   UNL     1       7.680  13.664  21.808  0.00  0.00     0.008 A 
ENDROOT
BRANCH   1   8
HETATM    8  C   UNL     1       6.900  11.406  20.633  0.00  0.00     0.028 A 
HETATM    9  C   UNL     1       6.026  11.393  19.533  0.00  0.00     0.019 A 
HETATM   10  C   UNL     1       5.133  10.338  19.309  0.00  0.00     0.037 A 
HETATM   11  C   UNL     1       5.078   9.288  20.211  0.00  0.00     0.068 A 
HETATM   12  C   UNL     1       5.915   9.266  21.318  0.00  0.00     0.074 A 
HETATM   13  C   UNL     1       6.827  10.311  21.520  0.00  0.00     0.081 A 
BRANCH  11  14
HETATM   14  O   UNL     1       4.207   8.254  20.047  0.00  0.00    -0.361 OA
HETATM   15  H   UNL     1       4.674   7.519  19.617  0.00  0.00     0.217 HD
ENDBRANCH  11  14
BRANCH  13  16
HETATM   16  O   UNL     1       7.664  10.216  22.604  0.00  0.00    -0.360 OA
HETATM   17  H   UNL     1       8.166   9.388  22.540  0.00  0.00     0.217 HD
ENDBRANCH  13  16
ENDBRANCH   1   8
BRANCH   7  18
HETATM   18  C   UNL     1       6.648  14.039  22.839  0.00  0.00     0.068 C 
HETATM   19  C   UNL     1       6.600  15.511  23.172  0.00  0.00    -0.015 C 
HETATM   20  C   UNL     1       5.460  16.119  23.548  0.00  0.00     0.006 C 
HETATM   21  C   UNL     1       4.130  15.408  23.600  0.00  0.00     0.166 C 
HETATM   22  C   UNL     1       4.148  14.040  22.959  0.00  0.00     0.006 C 
HETATM   23  C   UNL     1       5.285  13.423  22.591  0.00  0.00    -0.015 C 
BRANCH  21  24
HETATM   24  O   UNL     1       3.616  15.322  24.931  0.00  0.00    -0.383 OA
HETATM   25  C   UNL     1       2.450  14.522  25.091  0.00  0.00     0.202 C 
ENDBRANCH  21  24
ENDBRANCH   7  18
TORSDOF 5
ENDMDL
MODEL 3
REMARK VINA RESULT:    -6.413      2.935      4.826
REMARK INTER + INTRA:          -9.260
REMARK INTER:                  -8.366
REMARK INTRA:                  -0.894
REMARK UNBOUND:                -1.347
REMARK  5 active torsions:
REMARK  status: ('A' for Active; 'I' for Inactive)
REMARK    1  A    between atoms: C_3  and  O_4 
REMARK    2  A    between atoms: C_6  and  O_7 
REMARK    3  A    between atoms: C_8  and  C_9 
REMARK    4  A    between atoms: C_15  and  C_16 
REMARK    5  A    between atoms: C_19  and  O_22 
ROOT
HETATM    1  C   UNL     1       4.223  12.618  21.590  0.00  0.00     0.099 A 
HETATM    2  N   UNL     1       3.988  11.839  20.518  0.00  0.00    -0.173 NA
HETATM    3  N   UNL     1       5.186  11.535  20.025  0.00  0.00    -0.281 N 
HETATM    4  H   UNL     1       5.222  10.998  19.162  0.00  0.00     0.189 HD
HETATM    5  C   UNL     1       6.219  11.985  20.780  0.00  0.00     0.033 A 
HETATM    6  C   UNL     1       7.636  11.682  20.464  0.00  0.00     0.070 C 
HETATM    7  C   UNL     1       5.649  12.734  21.803  0.00  0.00     0.008 A 
ENDROOT
BRANCH   1   8
HETATM    8  C   UNL     1       3.081  13.147  22.369  0.00  0.00     0.028 A 
HETATM    9  C   UNL     1       3.257  13.489  23.720  0.00  0.00     0.019 A 
HETATM   10  C   UNL     1       2.195  13.934  24.516  0.00  0.00     0.037 A 
HETATM   11  C   UNL     1       0.922  14.012  23.974  0.00  0.00     0.068 A 
HETATM   12  C   UNL     1       0.700  13.672  22.647  0.00  0.00     0.074 A 
HETATM   13  C   UNL     1       1.773  13.255  21.848  0.00  0.00     0.081 A 
BRANCH  11  14
HETATM   14  O   UNL     1      -0.145  14.415  24.719  0.00  0.00    -0.361 OA
HETATM   15  H   UNL     1      -0.340  13.730  25.379  0.00  0.00     0.217 HD
ENDBRANCH  11  14
BRANCH  13  16
HETATM   16  O   UNL     1       1.507  12.977  20.530  0.00  0.00    -0.360 OA
HETATM   17  H   UNL     1       1.577  13.797  20.016  0.00  0.00     0.217 HD
ENDBRANCH  13  16
ENDBRANCH   1   8
BRANCH   7  18
HETATM   18  C   UNL     1       6.480  13.467  22.823  0.00  0.00     0.068 C 
HETATM   19  C   UNL     1       6.218  14.953  22.895  0.00  0.00    -0.015 C 
HETATM   20  C   UNL     1       6.356  15.646  24.040  0.00  0.00     0.006 C 
HETATM   21  C   UNL     1       6.713  14.995  25.354  0.00  0.00     0.166 C 
HETATM   22  C   UNL     1       6.653  13.486  25.320  0.00  0.00     0.006 C 
HETATM   23  C   UNL     1       6.524  12.788  24.178  0.00  0.00    -0.015 C 
BRANCH  21  24
HETATM   24  O   UNL     1       7.986  15.427  25.841  0.00  0.00    -0.383 OA
HETATM   25  C   UNL     1       9.118  14.903  25.155  0.00  0.00     0.202 C 
ENDBRANCH  21  24
ENDBRANCH   7  18
TORSDOF 5
ENDMDL
MODEL 4
REMARK VINA RESULT:    -6.337      2.716      4.917
REMARK INTER + INTRA:          -9.165
REMARK INTER:                  -7.891
REMARK INTRA:                  -1.275
REMARK UNBOUND:                -1.347
REMARK  5 active torsions:
REMARK  status: ('A' for Active; 'I' for Inactive)
REMARK    1  A    between atoms: C_3  and  O_4 
REMARK    2  A    between atoms: C_6  and  O_7 
REMARK    3  A    between atoms: C_8  and  C_9 
REMARK    4  A    between atoms: C_15  and  C_16 
REMARK    5  A    between atoms: C_19  and  O_22 
ROOT
HETATM    1  C   UNL     1       7.758  12.670  22.071  0.00  0.00     0.099 A 
HETATM    2  N   UNL     1       8.535  11.964  21.229  0.00  0.00    -0.173 NA
HETATM    3  N   UNL     1       7.702  11.389  20.367  0.00  0.00    -0.281 N 
HETATM    4  H   UNL     1       8.094  10.752  19.678  0.00  0.00     0.189 HD
HETATM    5  C   UNL     1       6.407  11.765  20.523  0.00  0.00     0.033 A 
HETATM    6  C   UNL     1       5.325  11.315  19.614  0.00  0.00     0.070 C 
HETATM    7  C   UNL     1       6.377  12.578  21.650  0.00  0.00     0.008 A 
ENDROOT
BRANCH   1   8
HETATM    8  C   UNL     1       8.386  13.429  23.177  0.00  0.00     0.028 A 
HETATM    9  C   UNL     1       7.927  13.253  24.492  0.00  0.00     0.019 A 
HETATM   10  C   UNL     1       8.445  13.991  25.563  0.00  0.00     0.037 A 
HETATM   11  C   UNL     1       9.417  14.950  25.323  0.00  0.00     0.068 A 
HETATM   12  C   UNL     1       9.891  15.165  24.037  0.00  0.00     0.074 A 
HETATM   13  C   UNL     1       9.388  14.403  22.974  0.00  0.00     0.081 A 
BRANCH  11  14
HETATM   14  O   UNL     1       9.931  15.710  26.331  0.00  0.00    -0.361 OA
HETATM   15  H   UNL     1       9.759  16.645  26.133  0.00  0.00     0.217 HD
ENDBRANCH  11  14
BRANCH  13  16
HETATM   16  O   UNL     1       9.926  14.623  21.731  0.00  0.00    -0.360 OA
HETATM   17  H   UNL     1      10.765  15.101  21.832  0.00  0.00     0.217 HD
ENDBRANCH  13  16
ENDBRANCH   1   8
BRANCH   7  18
HETATM   18  C   UNL     1       5.095  13.145  22.201  0.00  0.00     0.068 C 
HETATM   19  C   UNL     1       4.393  12.255  23.198  0.00  0.00    -0.015 C 
HETATM   20  C   UNL     1       3.648  12.758  24.200  0.00  0.00     0.006 C 
HETATM   21  C   UNL     1       3.507  14.239  24.453  0.00  0.00     0.166 C 
HETATM   22  C   UNL     1       4.466  15.086  23.650  0.00  0.00     0.006 C 
HETATM   23  C   UNL     1       5.206  14.591  22.643  0.00  0.00    -0.015 C 
BRANCH  21  24
HETATM   24  O   UNL     1       2.166  14.694  24.258  0.00  0.00    -0.383 OA
HETATM   25  C   UNL     1       1.673  14.608  22.925  0.00  0.00     0.202 C 
ENDBRANCH  21  24
ENDBRANCH   7  18
TORSDOF 5
ENDMDL
MODEL 5
REMARK VINA RESULT:    -6.328      2.641      4.920
REMARK INTER + INTRA:          -9.155
REMARK INTER:                  -7.769
REMARK INTRA:                  -1.386
REMARK UNBOUND:                -1.347
REMARK  5 active torsions:
REMARK  status: ('A' for Active; 'I' for Inactive)
REMARK    1  A    between atoms: C_3  and  O_4 
REMARK    2  A    between atoms: C_6  and  O_7 
REMARK    3  A    between atoms: C_8  and  C_9 
REMARK    4  A    between atoms: C_15  and  C_16 
REMARK    5  A    between atoms: C_19  and  O_22 
ROOT
HETATM    1  C   UNL     1       7.339  12.472  21.768  0.00  0.00     0.099 A 
HETATM    2  N   UNL     1       8.373  12.253  20.935  0.00  0.00    -0.173 NA
HETATM    3  N   UNL     1       7.864  11.600  19.894  0.00  0.00    -0.281 N 
HETATM    4  H   UNL     1       8.505  11.282  19.172  0.00  0.00     0.189 HD
HETATM    5  C   UNL     1       6.514  11.466  19.939  0.00  0.00     0.033 A 
HETATM    6  C   UNL     1       5.732  10.850  18.839  0.00  0.00     0.070 C 
HETATM    7  C   UNL     1       6.117  11.989  21.164  0.00  0.00     0.008 A 
ENDROOT
BRANCH   1   8
HETATM    8  C   UNL     1       7.574  13.178  23.048  0.00  0.00     0.028 A 
HETATM    9  C   UNL     1       7.206  12.567  24.259  0.00  0.00     0.019 A 
HETATM   10  C   UNL     1       7.351  13.217  25.490  0.00  0.00     0.037 A 
HETATM   11  C   UNL     1       7.840  14.513  25.524  0.00  0.00     0.068 A 
HETATM   12  C   UNL     1       8.205  15.159  24.351  0.00  0.00     0.074 A 
HETATM   13  C   UNL     1       8.084  14.492  23.124  0.00  0.00     0.081 A 
BRANCH  11  14
HETATM   14  O   UNL     1       7.973  15.193  26.698  0.00  0.00    -0.361 OA
HETATM   15  H   UNL     1       7.111  15.570  26.938  0.00  0.00     0.217 HD
ENDBRANCH  11  14
BRANCH  13  16
HETATM   16  O   UNL     1       8.504  15.159  22.001  0.00  0.00    -0.360 OA
HETATM   17  H   UNL     1       7.750  15.266  21.400  0.00  0.00     0.217 HD
ENDBRANCH  13  16
ENDBRANCH   1   8
BRANCH   7  18
HETATM   18  C   UNL     1       4.684  11.961  21.625  0.00  0.00     0.068 C 
HETATM   19  C   UNL     1       4.315  10.751  22.451  0.00  0.00    -0.015 C 
HETATM   20  C   UNL     1       3.372  10.805  23.410  0.00  0.00     0.006 C 
HETATM   21  C   UNL     1       2.660  12.081  23.789  0.00  0.00     0.166 C 
HETATM   22  C   UNL     1       3.270  13.321  23.180  0.00  0.00     0.006 C 
HETATM   23  C   UNL     1       4.205  13.273  22.214  0.00  0.00    -0.015 C 
BRANCH  21  24
HETATM   24  O   UNL     1       1.262  12.025  23.495  0.00  0.00    -0.383 OA
HETATM   25  C   UNL     1       0.606  13.283  23.375  0.00  0.00     0.202 C 
ENDBRANCH  21  24
ENDBRANCH   7  18
TORSDOF 5
ENDMDL
MODEL 6
REMARK VINA RESULT:    -6.310      2.835      4.711
REMARK INTER + INTRA:          -9.132
REMARK INTER:                  -8.040
REMARK INTRA:                  -1.093
REMARK UNBOUND:                -1.347
REMARK  5 active torsions:
REMARK  status: ('A' for Active; 'I' for Inactive)
REMARK    1  A    between atoms: C_3  and  O_4 
REMARK    2  A    between atoms: C_6  and  O_7 
REMARK    3  A    between atoms: C_8  and  C_9 
REMARK    4  A    between atoms: C_15  and  C_16 
REMARK    5  A    between atoms: C_19  and  O_22 
ROOT
HETATM    1  C   UNL     1       7.741  12.180  23.945  0.00  0.00     0.099 A 
HETATM    2  N   UNL     1       8.051  12.887  25.048  0.00  0.00    -0.173 NA
HETATM    3  N   UNL     1       7.733  14.148  24.767  0.00  0.00    -0.281 N 
HETATM    4  H   UNL     1       7.954  14.860  25.459  0.00  0.00     0.189 HD
HETATM    5  C   UNL     1       7.120  14.303  23.566  0.00  0.00     0.033 A 
HETATM    6  C   UNL     1       6.600  15.610  23.093  0.00  0.00     0.070 C 
HETATM    7  C   UNL     1       7.129  13.050  22.966  0.00  0.00     0.008 A 
ENDROOT
BRANCH   1   8
HETATM    8  C   UNL     1       7.991  10.721  23.925  0.00  0.00     0.028 A 
HETATM    9  C   UNL     1       9.308  10.240  23.846  0.00  0.00     0.019 A 
HETATM   10  C   UNL     1       9.593   8.872  23.761  0.00  0.00     0.037 A 
HETATM   11  C   UNL     1       8.551   7.959  23.721  0.00  0.00     0.068 A 
HETATM   12  C   UNL     1       7.234   8.391  23.785  0.00  0.00     0.074 A 
HETATM   13  C   UNL     1       6.956   9.760  23.898  0.00  0.00     0.081 A 
BRANCH  11  14
HETATM   14  O   UNL     1       8.782   6.620  23.613  0.00  0.00    -0.361 OA
HETATM   15  H   UNL     1       9.277   6.327  24.395  0.00  0.00     0.217 HD
ENDBRANCH  11  14
BRANCH  13  16
HETATM   16  O   UNL     1       5.639  10.128  24.005  0.00  0.00    -0.360 OA
HETATM   17  H   UNL     1       5.187   9.509  24.600  0.00  0.00     0.217 HD
ENDBRANCH  13  16
ENDBRANCH   1   8
BRANCH   7  18
HETATM   18  C   UNL     1       6.598  12.819  21.575  0.00  0.00     0.068 C 
HETATM   19  C   UNL     1       7.475  11.952  20.705  0.00  0.00    -0.015 C 
HETATM   20  C   UNL     1       6.965  11.162  19.742  0.00  0.00     0.006 C 
HETATM   21  C   UNL     1       5.482  11.021  19.498  0.00  0.00     0.166 C 
HETATM   22  C   UNL     1       4.628  11.640  20.579  0.00  0.00     0.006 C 
HETATM   23  C   UNL     1       5.131  12.438  21.537  0.00  0.00    -0.015 C 
BRANCH  21  24
HETATM   24  O   UNL     1       5.096  11.524  18.217  0.00  0.00    -0.383 OA
HETATM   25  C   UNL     1       4.082  10.785  17.544  0.00  0.00     0.202 C 
ENDBRANCH  21  24
ENDBRANCH   7  18
TORSDOF 5
ENDMDL
MODEL 7
REMARK VINA RESULT:    -6.281      2.535      5.853
REMARK INTER + INTRA:          -9.096
REMARK INTER:                  -7.785
REMARK INTRA:                  -1.311
REMARK UNBOUND:                -1.347
REMARK  5 active torsions:
REMARK  status: ('A' for Active; 'I' for Inactive)
REMARK    1  A    between atoms: C_3  and  O_4 
REMARK    2  A    between atoms: C_6  and  O_7 
REMARK    3  A    between atoms: C_8  and  C_9 
REMARK    4  A    between atoms: C_15  and  C_16 
REMARK    5  A    between atoms: C_19  and  O_22 
ROOT
HETATM    1  C   UNL     1       4.570  14.695  23.207  0.00  0.00     0.099 A 
HETATM    2  N   UNL     1       4.863  15.972  23.515  0.00  0.00    -0.173 NA
HETATM    3  N   UNL     1       6.175  16.093  23.340  0.00  0.00    -0.281 N 
HETATM    4  H   UNL     1       6.609  16.979  23.586  0.00  0.00     0.189 HD
HETATM    5  C   UNL     1       6.763  14.985  22.822  0.00  0.00     0.033 A 
HETATM    6  C   UNL     1       8.201  14.932  22.463  0.00  0.00     0.070 C 
HETATM    7  C   UNL     1       5.764  14.021  22.746  0.00  0.00     0.008 A 
ENDROOT
BRANCH   1   8
HETATM    8  C   UNL     1       3.171  14.224  23.313  0.00  0.00     0.028 A 
HETATM    9  C   UNL     1       2.597  13.499  22.254  0.00  0.00     0.019 A 
HETATM   10  C   UNL     1       1.260  13.085  22.280  0.00  0.00     0.037 A 
HETATM   11  C   UNL     1       0.462  13.423  23.361  0.00  0.00     0.068 A 
HETATM   12  C   UNL     1       0.984  14.147  24.423  0.00  0.00     0.074 A 
HETATM   13  C   UNL     1       2.331  14.534  24.404  0.00  0.00     0.081 A 
BRANCH  11  14
HETATM   14  O   UNL     1      -0.851  13.062  23.416  0.00  0.00    -0.361 OA
HETATM   15  H   UNL     1      -1.310  13.655  24.034  0.00  0.00     0.217 HD
ENDBRANCH  11  14
BRANCH  13  16
HETATM   16  O   UNL     1       2.808  15.208  25.501  0.00  0.00    -0.360 OA
HETATM   17  H   UNL     1       3.374  14.609  26.015  0.00  0.00     0.217 HD
ENDBRANCH  13  16
ENDBRANCH   1   8
BRANCH   7  18
HETATM   18  C   UNL     1       6.036  12.614  22.282  0.00  0.00     0.068 C 
HETATM   19  C   UNL     1       5.645  11.542  23.270  0.00  0.00    -0.015 C 
HETATM   20  C   UNL     1       5.241  10.321  22.873  0.00  0.00     0.006 C 
HETATM   21  C   UNL     1       5.077   9.944  21.421  0.00  0.00     0.166 C 
HETATM   22  C   UNL     1       5.161  11.118  20.476  0.00  0.00     0.006 C 
HETATM   23  C   UNL     1       5.573  12.338  20.865  0.00  0.00    -0.015 C 
BRANCH  21  24
HETATM   24  O   UNL     1       5.995   8.923  21.022  0.00  0.00    -0.383 OA
HETATM   25  C   UNL     1       5.833   8.432  19.696  0.00  0.00     0.202 C 
ENDBRANCH  21  24
ENDBRANCH   7  18
TORSDOF 5
ENDMDL
MODEL 8
REMARK VINA RESULT:    -6.207      3.483      6.652
REMARK INTER + INTRA:          -9.005
REMARK INTER:                  -7.658
REMARK INTRA:                  -1.347
REMARK UNBOUND:                -1.347
REMARK  5 active torsions:
REMARK  status: ('A' for Active; 'I' for Inactive)
REMARK    1  A    between atoms: C_3  and  O_4 
REMARK    2  A    between atoms: C_6  and  O_7 
REMARK    3  A    between atoms: C_8  and  C_9 
REMARK    4  A    between atoms: C_15  and  C_16 
REMARK    5  A    between atoms: C_19  and  O_22 
ROOT
HETATM    1  C   UNL     1       3.601  13.938  24.412  0.00  0.00     0.099 A 
HETATM    2  N   UNL     1       2.812  14.794  25.086  0.00  0.00    -0.173 NA
HETATM    3  N   UNL     1       1.582  14.591  24.622  0.00  0.00    -0.281 N 
HETATM    4  H   UNL     1       0.838  15.194  24.965  0.00  0.00     0.189 HD
HETATM    5  C   UNL     1       1.492  13.560  23.745  0.00  0.00     0.033 A 
HETATM    6  C   UNL     1       0.201  13.103  23.173  0.00  0.00     0.070 C 
HETATM    7  C   UNL     1       2.792  13.115  23.540  0.00  0.00     0.008 A 
ENDROOT
BRANCH   1   8
HETATM    8  C   UNL     1       5.056  13.921  24.687  0.00  0.00     0.028 A 
HETATM    9  C   UNL     1       5.642  12.784  25.269  0.00  0.00     0.019 A 
HETATM   10  C   UNL     1       7.000  12.741  25.604  0.00  0.00     0.037 A 
HETATM   11  C   UNL     1       7.792  13.859  25.391  0.00  0.00     0.068 A 
HETATM   12  C   UNL     1       7.252  15.007  24.829  0.00  0.00     0.074 A 
HETATM   13  C   UNL     1       5.897  15.033  24.469  0.00  0.00     0.081 A 
BRANCH  11  14
HETATM   14  O   UNL     1       9.112  13.870  25.727  0.00  0.00    -0.361 OA
HETATM   15  H   UNL     1       9.211  14.315  26.584  0.00  0.00     0.217 HD
ENDBRANCH  11  14
BRANCH  13  16
HETATM   16  O   UNL     1       5.426  16.177  23.873  0.00  0.00    -0.360 OA
HETATM   17  H   UNL     1       5.151  15.967  22.967  0.00  0.00     0.217 HD
ENDBRANCH  13  16
ENDBRANCH   1   8
BRANCH   7  18
HETATM   18  C   UNL     1       3.124  12.015  22.566  0.00  0.00     0.068 C 
HETATM   19  C   UNL     1       4.031  12.432  21.434  0.00  0.00    -0.015 C 
HETATM   20  C   UNL     1       4.892  11.572  20.858  0.00  0.00     0.006 C 
HETATM   21  C   UNL     1       5.074  10.152  21.334  0.00  0.00     0.166 C 
HETATM   22  C   UNL     1       4.399   9.863  22.654  0.00  0.00     0.006 C 
HETATM   23  C   UNL     1       3.531  10.714  23.230  0.00  0.00    -0.015 C 
BRANCH  21  24
HETATM   24  O   UNL     1       4.663   9.198  20.352  0.00  0.00    -0.383 OA
HETATM   25  C   UNL     1       4.811   9.606  18.996  0.00  0.00     0.202 C 
ENDBRANCH  21  24
ENDBRANCH   7  18
TORSDOF 5
ENDMDL
MODEL 9
REMARK VINA RESULT:    -6.173      2.879      4.325
REMARK INTER + INTRA:          -8.964
REMARK INTER:                  -7.989
REMARK INTRA:                  -0.974
REMARK UNBOUND:                -1.347
REMARK  5 active torsions:
REMARK  status: ('A' for Active; 'I' for Inactive)
REMARK    1  A    between atoms: C_3  and  O_4 
REMARK    2  A    between atoms: C_6  and  O_7 
REMARK    3  A    between atoms: C_8  and  C_9 
REMARK    4  A    between atoms: C_15  and  C_16 
REMARK    5  A    between atoms: C_19  and  O_22 
ROOT
HETATM    1  C   UNL     1       4.078  11.576  22.919  0.00  0.00     0.099 A 
HETATM    2  N   UNL     1       2.843  11.101  23.165  0.00  0.00    -0.173 NA
HETATM    3  N   UNL     1       2.060  12.172  23.266  0.00  0.00    -0.281 N 
HETATM    4  H   UNL     1       1.085  12.026  23.517  0.00  0.00     0.189 HD
HETATM    5  C   UNL     1       2.692  13.340  22.991  0.00  0.00     0.033 A 
HETATM    6  C   UNL     1       1.987  14.646  22.957  0.00  0.00     0.070 C 
HETATM    7  C   UNL     1       4.028  13.016  22.790  0.00  0.00     0.008 A 
ENDROOT
BRANCH   1   8
HETATM    8  C   UNL     1       5.204  10.628  22.763  0.00  0.00     0.028 A 
HETATM    9  C   UNL     1       6.247  10.623  23.704  0.00  0.00     0.019 A 
HETATM   10  C   UNL     1       7.363   9.789  23.569  0.00  0.00     0.037 A 
HETATM   11  C   UNL     1       7.467   8.964  22.460  0.00  0.00     0.068 A 
HETATM   12  C   UNL     1       6.465   8.944  21.500  0.00  0.00     0.074 A 
HETATM   13  C   UNL     1       5.337   9.761  21.657  0.00  0.00     0.081 A 
BRANCH  11  14
HETATM   14  O   UNL     1       8.548   8.154  22.275  0.00  0.00    -0.361 OA
HETATM   15  H   UNL     1       9.294   8.511  22.784  0.00  0.00     0.217 HD
ENDBRANCH  11  14
BRANCH  13  16
HETATM   16  O   UNL     1       4.355   9.668  20.702  0.00  0.00    -0.360 OA
HETATM   17  H   UNL     1       3.582  10.175  20.998  0.00  0.00     0.217 HD
ENDBRANCH  13  16
ENDBRANCH   1   8
BRANCH   7  18
HETATM   18  C   UNL     1       5.080  14.061  22.527  0.00  0.00     0.068 C 
HETATM   19  C   UNL     1       5.407  14.934  23.715  0.00  0.00    -0.015 C 
HETATM   20  C   UNL     1       6.633  15.461  23.895  0.00  0.00     0.006 C 
HETATM   21  C   UNL     1       7.793  15.171  22.975  0.00  0.00     0.166 C 
HETATM   22  C   UNL     1       7.526  14.054  21.994  0.00  0.00     0.006 C 
HETATM   23  C   UNL     1       6.302  13.531  21.803  0.00  0.00    -0.015 C 
BRANCH  21  24
HETATM   24  O   UNL     1       8.236  16.340  22.281  0.00  0.00    -0.383 OA
HETATM   25  C   UNL     1       9.473  16.214  21.588  0.00  0.00     0.202 C 
ENDBRANCH  21  24
ENDBRANCH   7  18
TORSDOF 5
ENDMDL
