MODEL 1
REMARK VINA RESULT:    -8.196      0.000      0.000
REMARK INTER + INTRA:         -13.429
REMARK INTER:                 -11.164
REMARK INTRA:                  -2.265
REMARK UNBOUND:                -2.598
REMARK  6 active torsions:
REMARK  status: ('A' for Active; 'I' for Inactive)
REMARK    1  A    between atoms: C_7  and  C_8 
REMARK    2  A    between atoms: C_8  and  C_9 
REMARK    3  A    between atoms: C_16  and  C_20 
REMARK    4  A    between atoms: C_17  and  O_19 
REMARK       I    between atoms: C_20  and  N_22 
REMARK    5  A    between atoms: N_22  and  C_24 
REMARK    6  A    between atoms: C_27  and  C_28 
ROOT
HETATM    1  C   UNL     1       6.121  15.259  24.686  0.00  0.00     0.071 A 
HETATM    2  N   UNL     1       5.904  15.213  26.011  0.00  0.00    -0.178 NA
HETATM    3  N   UNL     1       6.988  14.591  26.499  0.00  0.00    -0.277 N 
HETATM    4  H   UNL     1       7.042  14.436  27.499  0.00  0.00     0.189 HD
HETATM    5  C   UNL     1       7.371  14.667  24.339  0.00  0.00     0.020 A 
HETATM    6  C   UNL     1       7.864  14.164  25.538  0.00  0.00     0.065 A 
HETATM    7  C   UNL     1       8.094  14.443  23.153  0.00  0.00     0.035 C 
HETATM    8  C   UNL     1       9.268  13.668  23.206  0.00  0.00     0.066 C 
HETATM    9  C   UNL     1       9.644  13.063  24.414  0.00  0.00     0.083 C 
HETATM   10  C   UNL     1       8.997  13.353  25.617  0.00  0.00     0.069 C 
ENDROOT
BRANCH   8  11
HETATM   11  C   UNL     1      10.087  13.440  21.982  0.00  0.00     0.260 C 
HETATM   12  O   UNL     1      10.940  14.305  21.745  0.00  0.00    -0.267 OA
HETATM   13  N   UNL     1       9.925  12.276  21.201  0.00  0.00    -0.318 N 
HETATM   14  C   UNL     1      10.968  11.967  20.224  0.00  0.00     0.159 C 
BRANCH  13  15
HETATM   15  C   UNL     1       8.758  11.444  21.198  0.00  0.00     0.037 A 
HETATM   16  C   UNL     1       7.753  11.621  20.243  0.00  0.00     0.030 A 
HETATM   17  C   UNL     1       6.558  10.901  20.314  0.00  0.00     0.017 A 
HETATM   18  C   UNL     1       6.339   9.968  21.332  0.00  0.00     0.009 A 
HETATM   19  C   UNL     1       7.372   9.713  22.234  0.00  0.00     0.017 A 
HETATM   20  C   UNL     1       8.583  10.437  22.159  0.00  0.00     0.030 A 
BRANCH  18  21
HETATM   21  C   UNL     1       4.988   9.317  21.383  0.00  0.00     0.155 C 
HETATM   22  O   UNL     1       4.308   9.275  20.353  0.00  0.00    -0.293 OA
HETATM   23  C   UNL     1       4.425   8.760  22.659  0.00  0.00     0.096 C 
ENDBRANCH  18  21
ENDBRANCH  13  15
ENDBRANCH   8  11
BRANCH   9  24
HETATM   24  O   UNL     1      10.640  12.123  24.488  0.00  0.00    -0.360 OA
HETATM   25  H   UNL     1      11.386  12.537  24.975  0.00  0.00     0.217 HD
ENDBRANCH   9  24
BRANCH   1  26
HETATM   26  C   UNL     1       5.046  15.716  23.755  0.00  0.00     0.100 C 
BRANCH  26  27
HETATM   27  C   UNL     1       3.971  14.671  23.547  0.00  0.00    -0.052 A 
HETATM   28  C   UNL     1       2.623  14.812  23.908  0.00  0.00     0.014 A 
HETATM   29  C   UNL     1       1.739  13.725  23.842  0.00  0.00    -0.061 A 
HETATM   30  C   UNL     1       0.361  13.841  24.424  0.00  0.00     0.048 C 
HETATM   31  C   UNL     1       2.189  12.498  23.343  0.00  0.00     0.007 A 
HETATM   32  C   UNL     1       3.506  12.357  22.917  0.00  0.00     0.001 A 
HETATM   33  C   UNL     1       4.388  13.431  23.025  0.00  0.00     0.007 A 
ENDBRANCH  26  27
ENDBRANCH   1  26
TORSDOF 6
ENDMDL
MODEL 2
REMARK VINA RESULT:    -7.971      2.496      5.023
REMARK INTER + INTRA:         -13.132
REMARK INTER:                 -10.990
REMARK INTRA:                  -2.142
REMARK UNBOUND:                -2.598
REMARK  6 active torsions:
REMARK  status: ('A' for Active; 'I' for Inactive)
REMARK    1  A    between atoms: C_7  and  C_8 
REMARK    2  A    between atoms: C_8  and  C_9 
REMARK    3  A    between atoms: C_16  and  C_20 
REMARK    4  A    between atoms: C_17  and  O_19 
REMARK       I    between atoms: C_20  and  N_22 
REMARK    5  A    between atoms: N_22  and  C_24 
REMARK    6  A    between atoms: C_27  and  C_28 
ROOT
HETATM    1  C   UNL     1       4.848  11.151  23.835  0.00  0.00     0.071 A 
HETATM    2  N   UNL     1       4.725  10.072  24.625  0.00  0.00    -0.178 NA
HETATM    3  N   UNL     1       5.887   9.419  24.471  0.00  0.00    -0.277 N 
HETATM    4  H   UNL     1       6.021   8.552  24.979  0.00  0.00     0.189 HD
HETATM    5  C   UNL     1       6.117  11.183  23.185  0.00  0.00     0.020 A 
HETATM    6  C   UNL     1       6.730   9.990  23.557  0.00  0.00     0.065 A 
HETATM    7  C   UNL     1       6.776  12.040  22.284  0.00  0.00     0.035 C 
HETATM    8  C   UNL     1       8.011  11.640  21.741  0.00  0.00     0.066 C 
HETATM    9  C   UNL     1       8.516  10.365  22.036  0.00  0.00     0.083 C 
HETATM   10  C   UNL     1       7.930   9.544  23.001  0.00  0.00     0.069 C 
ENDROOT
BRANCH   8  11
HETATM   11  C   UNL     1       8.763  12.534  20.816  0.00  0.00     0.260 C 
HETATM   12  O   UNL     1       8.925  12.096  19.670  0.00  0.00    -0.267 OA
HETATM   13  N   UNL     1       9.192  13.815  21.225  0.00  0.00    -0.318 N 
HETATM   14  C   UNL     1       9.623  14.747  20.185  0.00  0.00     0.159 C 
BRANCH  13  15
HETATM   15  C   UNL     1       9.362  14.229  22.586  0.00  0.00     0.037 A 
HETATM   16  C   UNL     1      10.517  13.893  23.299  0.00  0.00     0.030 A 
HETATM   17  C   UNL     1      10.630  14.181  24.661  0.00  0.00     0.017 A 
HETATM   18  C   UNL     1       9.601  14.832  25.348  0.00  0.00     0.009 A 
HETATM   19  C   UNL     1       8.485  15.257  24.627  0.00  0.00     0.017 A 
HETATM   20  C   UNL     1       8.372  14.970  23.249  0.00  0.00     0.030 A 
BRANCH  18  21
HETATM   21  C   UNL     1       9.773  15.010  26.828  0.00  0.00     0.155 C 
HETATM   22  O   UNL     1       8.857  15.528  27.475  0.00  0.00    -0.293 OA
HETATM   23  C   UNL     1      11.041  14.622  27.531  0.00  0.00     0.096 C 
ENDBRANCH  18  21
ENDBRANCH  13  15
ENDBRANCH   8  11
BRANCH   9  24
HETATM   24  O   UNL     1       9.590   9.827  21.373  0.00  0.00    -0.360 OA
HETATM   25  H   UNL     1      10.242  10.552  21.253  0.00  0.00     0.217 HD
ENDBRANCH   9  24
BRANCH   1  26
HETATM   26  C   UNL     1       3.678  12.045  23.582  0.00  0.00     0.100 C 
BRANCH  26  27
HETATM   27  C   UNL     1       3.879  13.440  24.133  0.00  0.00    -0.052 A 
HETATM   28  C   UNL     1       3.417  13.893  25.377  0.00  0.00     0.014 A 
HETATM   29  C   UNL     1       3.491  15.250  25.726  0.00  0.00    -0.061 A 
HETATM   30  C   UNL     1       2.810  15.745  26.968  0.00  0.00     0.048 C 
HETATM   31  C   UNL     1       4.097  16.156  24.850  0.00  0.00     0.007 A 
HETATM   32  C   UNL     1       4.621  15.715  23.639  0.00  0.00     0.001 A 
HETATM   33  C   UNL     1       4.506  14.371  23.283  0.00  0.00     0.007 A 
ENDBRANCH  26  27
ENDBRANCH   1  26
TORSDOF 6
ENDMDL
MODEL 3
REMARK VINA RESULT:    -7.924      2.621      5.067
REMARK INTER + INTRA:         -13.071
REMARK INTER:                 -11.206
REMARK INTRA:                  -1.865
REMARK UNBOUND:                -2.598
REMARK  6 active torsions:
REMARK  status: ('A' for Active; 'I' for Inactive)
REMARK    1  A    between atoms: C_7  and  C_8 
REMARK    2  A    between atoms: C_8  and  C_9 
REMARK    3  A    between atoms: C_16  and  C_20 
REMARK    4  A    between atoms: C_17  and  O_19 
REMARK       I    between atoms: C_20  and  N_22 
REMARK    5  A    between atoms: N_22  and  C_24 
REMARK    6  A    between atoms: C_27  and  C_28 
ROOT
HETATM    1  C   UNL     1      10.282  11.419  25.391  0.00  0.00     0.071 A 
HETATM    2  N   UNL     1      10.637  11.628  26.669  0.00  0.00    -0.178 NA
HETATM    3  N   UNL     1      10.796  12.957  26.752  0.00  0.00    -0.277 N 
HETATM    4  H   UNL     1      11.075  13.353  27.643  0.00  0.00     0.189 HD
HETATM    5  C   UNL     1      10.202  12.642  24.663  0.00  0.00     0.020 A 
HETATM    6  C   UNL     1      10.632  13.613  25.562  0.00  0.00     0.065 A 
HETATM    7  C   UNL     1       9.887  13.021  23.345  0.00  0.00     0.035 C 
HETATM    8  C   UNL     1      10.068  14.362  22.958  0.00  0.00     0.066 C 
HETATM    9  C   UNL     1      10.641  15.271  23.861  0.00  0.00     0.083 C 
HETATM   10  C   UNL     1      10.867  14.940  25.198  0.00  0.00     0.069 C 
ENDROOT
BRANCH   8  11
HETATM   11  C   UNL     1       9.709  14.816  21.585  0.00  0.00     0.260 C 
HETATM   12  O   UNL     1      10.631  15.321  20.934  0.00  0.00    -0.267 OA
HETATM   13  N   UNL     1       8.413  14.611  21.064  0.00  0.00    -0.318 N 
HETATM   14  C   UNL     1       8.230  14.779  19.624  0.00  0.00     0.159 C 
BRANCH  13  15
HETATM   15  C   UNL     1       7.238  14.381  21.851  0.00  0.00     0.037 A 
HETATM   16  C   UNL     1       6.602  13.135  21.844  0.00  0.00     0.030 A 
HETATM   17  C   UNL     1       5.387  12.944  22.506  0.00  0.00     0.017 A 
HETATM   18  C   UNL     1       4.779  13.987  23.211  0.00  0.00     0.009 A 
HETATM   19  C   UNL     1       5.450  15.207  23.305  0.00  0.00     0.017 A 
HETATM   20  C   UNL     1       6.681  15.399  22.640  0.00  0.00     0.030 A 
BRANCH  18  21
HETATM   21  C   UNL     1       3.429  13.714  23.806  0.00  0.00     0.155 C 
HETATM   22  O   UNL     1       3.191  12.587  24.250  0.00  0.00    -0.293 OA
HETATM   23  C   UNL     1       2.349  14.757  23.832  0.00  0.00     0.096 C 
ENDBRANCH  18  21
ENDBRANCH  13  15
ENDBRANCH   8  11
BRANCH   9  24
HETATM   24  O   UNL     1      11.049  16.525  23.483  0.00  0.00    -0.360 OA
HETATM   25  H   UNL     1      11.195  16.496  22.512  0.00  0.00     0.217 HD
ENDBRANCH   9  24
BRANCH   1  26
HETATM   26  C   UNL     1      10.193  10.032  24.844  0.00  0.00     0.100 C 
BRANCH  26  27
HETATM   27  C   UNL     1       8.767   9.538  24.730  0.00  0.00    -0.052 A 
HETATM   28  C   UNL     1       8.384   8.202  24.545  0.00  0.00     0.014 A 
HETATM   29  C   UNL     1       7.052   7.863  24.269  0.00  0.00    -0.061 A 
HETATM   30  C   UNL     1       6.700   6.459  23.872  0.00  0.00     0.048 C 
HETATM   31  C   UNL     1       6.075   8.864  24.247  0.00  0.00     0.007 A 
HETATM   32  C   UNL     1       6.424  10.188  24.494  0.00  0.00     0.001 A 
HETATM   33  C   UNL     1       7.758  10.521  24.726  0.00  0.00     0.007 A 
ENDBRANCH  26  27
ENDBRANCH   1  26
TORSDOF 6
ENDMDL
MODEL 4
REMARK VINA RESULT:    -7.871      2.498      5.238
REMARK INTER + INTRA:         -13.000
REMARK INTER:                 -10.297
REMARK INTRA:                  -2.703
REMARK UNBOUND:                -2.598
REMARK  6 active torsions:
REMARK  status: ('A' for Active; 'I' for Inactive)
REMARK    1  A    between atoms: C_7  and  C_8 
REMARK    2  A    between atoms: C_8  and  C_9 
REMARK    3  A    between atoms: C_16  and  C_20 
REMARK    4  A    between atoms: C_17  and  O_19 
REMARK       I    between atoms: C_20  and  N_22 
REMARK    5  A    between atoms: N_22  and  C_24 
REMARK    6  A    between atoms: C_27  and  C_28 
ROOT
HETATM    1  C   UNL     1       6.524   9.859  21.851  0.00  0.00     0.071 A 
HETATM    2  N   UNL     1       6.022   9.392  20.696  0.00  0.00    -0.178 NA
HETATM    3  N   UNL     1       6.562  10.185  19.759  0.00  0.00    -0.277 N 
HETATM    4  H   UNL     1       6.316  10.018  18.790  0.00  0.00     0.189 HD
HETATM    5  C   UNL     1       7.407  10.957  21.631  0.00  0.00     0.020 A 
HETATM    6  C   UNL     1       7.335  11.195  20.263  0.00  0.00     0.065 A 
HETATM    7  C   UNL     1       8.192  11.806  22.434  0.00  0.00     0.035 C 
HETATM    8  C   UNL     1       8.838  12.905  21.837  0.00  0.00     0.066 C 
HETATM    9  C   UNL     1       8.616  13.184  20.480  0.00  0.00     0.083 C 
HETATM   10  C   UNL     1       7.924  12.302  19.649  0.00  0.00     0.069 C 
ENDROOT
BRANCH   8  11
HETATM   11  C   UNL     1       9.711  13.805  22.641  0.00  0.00     0.260 C 
HETATM   12  O   UNL     1      10.925  13.578  22.561  0.00  0.00    -0.267 OA
HETATM   13  N   UNL     1       9.170  14.877  23.383  0.00  0.00    -0.318 N 
HETATM   14  C   UNL     1      10.096  15.897  23.871  0.00  0.00     0.159 C 
BRANCH  13  15
HETATM   15  C   UNL     1       7.805  14.976  23.808  0.00  0.00     0.037 A 
HETATM   16  C   UNL     1       6.800  15.354  22.912  0.00  0.00     0.030 A 
HETATM   17  C   UNL     1       5.493  15.576  23.349  0.00  0.00     0.017 A 
HETATM   18  C   UNL     1       5.144  15.410  24.693  0.00  0.00     0.009 A 
HETATM   19  C   UNL     1       6.115  14.941  25.579  0.00  0.00     0.017 A 
HETATM   20  C   UNL     1       7.436  14.710  25.135  0.00  0.00     0.030 A 
BRANCH  18  21
HETATM   21  C   UNL     1       3.741  15.767  25.085  0.00  0.00     0.155 C 
HETATM   22  O   UNL     1       2.866  15.787  24.213  0.00  0.00    -0.293 OA
HETATM   23  C   UNL     1       3.384  16.146  26.493  0.00  0.00     0.096 C 
ENDBRANCH  18  21
ENDBRANCH  13  15
ENDBRANCH   8  11
BRANCH   9  24
HETATM   24  O   UNL     1       9.027  14.353  19.893  0.00  0.00    -0.360 OA
HETATM   25  H   UNL     1      10.010  14.327  19.866  0.00  0.00     0.217 HD
ENDBRANCH   9  24
BRANCH   1  26
HETATM   26  C   UNL     1       6.014   9.356  23.162  0.00  0.00     0.100 C 
BRANCH  26  27
HETATM   27  C   UNL     1       5.055  10.321  23.825  0.00  0.00    -0.052 A 
HETATM   28  C   UNL     1       3.977  10.955  23.192  0.00  0.00     0.014 A 
HETATM   29  C   UNL     1       3.254  11.970  23.837  0.00  0.00    -0.061 A 
HETATM   30  C   UNL     1       2.243  12.775  23.075  0.00  0.00     0.048 C 
HETATM   31  C   UNL     1       3.567  12.307  25.158  0.00  0.00     0.007 A 
HETATM   32  C   UNL     1       4.590  11.642  25.827  0.00  0.00     0.001 A 
HETATM   33  C   UNL     1       5.330  10.664  25.163  0.00  0.00     0.007 A 
ENDBRANCH  26  27
ENDBRANCH   1  26
TORSDOF 6
ENDMDL
MODEL 5
REMARK VINA RESULT:    -7.870      4.791      9.018
REMARK INTER + INTRA:         -12.998
REMARK INTER:                 -10.101
REMARK INTRA:                  -2.897
REMARK UNBOUND:                -2.598
REMARK  6 active torsions:
REMARK  status: ('A' for Active; 'I' for Inactive)
REMARK    1  A    between atoms: C_7  and  C_8 
REMARK    2  A    between atoms: C_8  and  C_9 
REMARK    3  A    between atoms: C_16  and  C_20 
REMARK    4  A    between atoms: C_17  and  O_19 
REMARK       I    between atoms: C_20  and  N_22 
REMARK    5  A    between atoms: N_22  and  C_24 
REMARK    6  A    between atoms: C_27  and  C_28 
ROOT
HETATM    1  C   UNL     1       1.993   8.316  25.513  0.00  0.00     0.071 A 
HETATM    2  N   UNL     1       2.171   7.605  26.639  0.00  0.00    -0.178 NA
HETATM    3  N   UNL     1       1.063   7.845  27.357  0.00  0.00    -0.277 N 
HETATM    4  H   UNL     1       0.978   7.407  28.267  0.00  0.00     0.189 HD
HETATM    5  C   UNL     1       0.744   9.003  25.521  0.00  0.00     0.020 A 
HETATM    6  C   UNL     1       0.208   8.742  26.777  0.00  0.00     0.065 A 
HETATM    7  C   UNL     1       0.050   9.860  24.645  0.00  0.00     0.035 C 
HETATM    8  C   UNL     1      -1.137  10.471  25.087  0.00  0.00     0.066 C 
HETATM    9  C   UNL     1      -1.558  10.289  26.413  0.00  0.00     0.083 C 
HETATM   10  C   UNL     1      -0.941   9.369  27.263  0.00  0.00     0.069 C 
ENDROOT
BRANCH   8  11
HETATM   11  C   UNL     1      -1.925  11.353  24.179  0.00  0.00     0.260 C 
HETATM   12  O   UNL     1      -2.923  10.831  23.667  0.00  0.00    -0.267 OA
HETATM   13  N   UNL     1      -1.572  12.706  23.987  0.00  0.00    -0.318 N 
HETATM   14  C   UNL     1      -2.560  13.579  23.357  0.00  0.00     0.159 C 
BRANCH  13  15
HETATM   15  C   UNL     1      -0.275  13.261  24.241  0.00  0.00     0.037 A 
HETATM   16  C   UNL     1       0.134  13.562  25.543  0.00  0.00     0.030 A 
HETATM   17  C   UNL     1       1.342  14.220  25.784  0.00  0.00     0.017 A 
HETATM   18  C   UNL     1       2.188  14.582  24.730  0.00  0.00     0.009 A 
HETATM   19  C   UNL     1       1.836  14.202  23.435  0.00  0.00     0.017 A 
HETATM   20  C   UNL     1       0.617  13.531  23.192  0.00  0.00     0.030 A 
BRANCH  18  21
HETATM   21  C   UNL     1       3.415  15.372  25.079  0.00  0.00     0.155 C 
HETATM   22  O   UNL     1       3.670  15.581  26.268  0.00  0.00    -0.293 OA
HETATM   23  C   UNL     1       4.308  15.954  24.022  0.00  0.00     0.096 C 
ENDBRANCH  18  21
ENDBRANCH  13  15
ENDBRANCH   8  11
BRANCH   9  24
HETATM   24  O   UNL     1      -2.571  11.025  26.972  0.00  0.00    -0.360 OA
HETATM   25  H   UNL     1      -2.578  10.817  27.932  0.00  0.00     0.217 HD
ENDBRANCH   9  24
BRANCH   1  26
HETATM   26  C   UNL     1       3.102   8.463  24.524  0.00  0.00     0.100 C 
BRANCH  26  27
HETATM   27  C   UNL     1       3.699   9.854  24.517  0.00  0.00    -0.052 A 
HETATM   28  C   UNL     1       3.966  10.615  23.370  0.00  0.00     0.014 A 
HETATM   29  C   UNL     1       4.686  11.816  23.450  0.00  0.00    -0.061 A 
HETATM   30  C   UNL     1       5.137  12.508  22.197  0.00  0.00     0.048 C 
HETATM   31  C   UNL     1       5.083  12.301  24.701  0.00  0.00     0.007 A 
HETATM   32  C   UNL     1       4.770  11.593  25.857  0.00  0.00     0.001 A 
HETATM   33  C   UNL     1       4.091  10.379  25.763  0.00  0.00     0.007 A 
ENDBRANCH  26  27
ENDBRANCH   1  26
TORSDOF 6
ENDMDL
MODEL 6
REMARK VINA RESULT:    -7.790      1.882      2.558
REMARK INTER + INTRA:         -12.893
REMARK INTER:                 -10.801
REMARK INTRA:                  -2.092
REMARK UNBOUND:                -2.598
REMARK  6 active torsions:
REMARK  status: ('A' for Active; 'I' for Inactive)
REMARK    1  A    between atoms: C_7  and  C_8 
REMARK    2  A    between atoms: C_8  and  C_9 
REMARK    3  A    between atoms: C_16  and  C_20 
REMARK    4  A    between atoms: C_17  and  O_19 
REMARK       I    between atoms: C_20  and  N_22 
REMARK    5  A    between atoms: N_22  and  C_24 
REMARK    6  A    between atoms: C_27  and  C_28 
ROOT
HETATM    1  C   UNL     1       7.372  14.429  26.038  0.00  0.00     0.071 A 
HETATM    2  N   UNL     1       8.093  14.928  27.056  0.00  0.00    -0.178 NA
HETATM    3  N   UNL     1       9.182  15.441  26.466  0.00  0.00    -0.277 N 
HETATM    4  H   UNL     1       9.886  15.876  27.052  0.00  0.00     0.189 HD
HETATM    5  C   UNL     1       8.016  14.647  24.785  0.00  0.00     0.020 A 
HETATM    6  C   UNL     1       9.235  15.230  25.115  0.00  0.00     0.065 A 
HETATM    7  C   UNL     1       7.739  14.357  23.436  0.00  0.00     0.035 C 
HETATM    8  C   UNL     1       8.725  14.614  22.466  0.00  0.00     0.066 C 
HETATM    9  C   UNL     1       9.990  15.067  22.868  0.00  0.00     0.083 C 
HETATM   10  C   UNL     1      10.251  15.453  24.184  0.00  0.00     0.069 C 
ENDROOT
BRANCH   8  11
HETATM   11  C   UNL     1       8.458  14.361  21.022  0.00  0.00     0.260 C 
HETATM   12  O   UNL     1       8.482  15.361  20.294  0.00  0.00    -0.267 OA
HETATM   13  N   UNL     1       8.261  13.051  20.534  0.00  0.00    -0.318 N 
HETATM   14  C   UNL     1       8.333  12.851  19.088  0.00  0.00     0.159 C 
BRANCH  13  15
HETATM   15  C   UNL     1       7.866  11.928  21.332  0.00  0.00     0.037 A 
HETATM   16  C   UNL     1       6.517  11.668  21.588  0.00  0.00     0.030 A 
HETATM   17  C   UNL     1       6.134  10.654  22.468  0.00  0.00     0.017 A 
HETATM   18  C   UNL     1       7.089   9.855  23.105  0.00  0.00     0.009 A 
HETATM   19  C   UNL     1       8.433  10.041  22.785  0.00  0.00     0.017 A 
HETATM   20  C   UNL     1       8.820  11.064  21.890  0.00  0.00     0.030 A 
BRANCH  18  21
HETATM   21  C   UNL     1       6.586   8.858  24.108  0.00  0.00     0.155 C 
HETATM   22  O   UNL     1       5.573   9.127  24.759  0.00  0.00    -0.293 OA
HETATM   23  C   UNL     1       7.308   7.568  24.372  0.00  0.00     0.096 C 
ENDBRANCH  18  21
ENDBRANCH  13  15
ENDBRANCH   8  11
BRANCH   9  24
HETATM   24  O   UNL     1      11.058  15.124  22.010  0.00  0.00    -0.360 OA
HETATM   25  H   UNL     1      11.756  14.542  22.385  0.00  0.00     0.217 HD
ENDBRANCH   9  24
BRANCH   1  26
HETATM   26  C   UNL     1       6.159  13.597  26.301  0.00  0.00     0.100 C 
BRANCH  26  27
HETATM   27  C   UNL     1       4.930  14.114  25.586  0.00  0.00    -0.052 A 
HETATM   28  C   UNL     1       3.979  13.319  24.932  0.00  0.00     0.014 A 
HETATM   29  C   UNL     1       2.972  13.895  24.144  0.00  0.00    -0.061 A 
HETATM   30  C   UNL     1       2.094  13.027  23.291  0.00  0.00     0.048 C 
HETATM   31  C   UNL     1       2.870  15.289  24.065  0.00  0.00     0.007 A 
HETATM   32  C   UNL     1       3.764  16.096  24.761  0.00  0.00     0.001 A 
HETATM   33  C   UNL     1       4.787  15.513  25.507  0.00  0.00     0.007 A 
ENDBRANCH  26  27
ENDBRANCH   1  26
TORSDOF 6
ENDMDL
MODEL 7
REMARK VINA RESULT:    -7.726      2.526      5.246
REMARK INTER + INTRA:         -12.809
REMARK INTER:                 -11.378
REMARK INTRA:                  -1.431
REMARK UNBOUND:                -2.598
REMARK  6 active torsions:
REMARK  status: ('A' for Active; 'I' for Inactive)
REMARK    1  A    between atoms: C_7  and  C_8 
REMARK    2  A    between atoms: C_8  and  C_9 
REMARK    3  A    between atoms: C_16  and  C_20 
REMARK    4  A    between atoms: C_17  and  O_19 
REMARK       I    between atoms: C_20  and  N_22 
REMARK    5  A    between atoms: N_22  and  C_24 
REMARK    6  A    between atoms: C_27  and  C_28 
ROOT
HETATM    1  C   UNL     1       2.033  14.052  24.537  0.00  0.00     0.071 A 
HETATM    2  N   UNL     1       1.980  14.474  25.812  0.00  0.00    -0.178 NA
HETATM    3  N   UNL     1       3.084  13.958  26.372  0.00  0.00    -0.277 N 
HETATM    4  H   UNL     1       3.256  14.145  27.354  0.00  0.00     0.189 HD
HETATM    5  C   UNL     1       3.199  13.270  24.292  0.00  0.00     0.020 A 
HETATM    6  C   UNL     1       3.812  13.157  25.535  0.00  0.00     0.065 A 
HETATM    7  C   UNL     1       3.758  12.597  23.189  0.00  0.00     0.035 C 
HETATM    8  C   UNL     1       4.890  11.785  23.387  0.00  0.00     0.066 C 
HETATM    9  C   UNL     1       5.383  11.590  24.686  0.00  0.00     0.083 C 
HETATM   10  C   UNL     1       4.906  12.323  25.774  0.00  0.00     0.069 C 
ENDROOT
BRANCH   8  11
HETATM   11  C   UNL     1       5.538  11.087  22.241  0.00  0.00     0.260 C 
HETATM   12  O   UNL     1       5.040   9.998  21.932  0.00  0.00    -0.267 OA
HETATM   13  N   UNL     1       6.604  11.683  21.531  0.00  0.00    -0.318 N 
HETATM   14  C   UNL     1       6.964  11.101  20.240  0.00  0.00     0.159 C 
BRANCH  13  15
HETATM   15  C   UNL     1       7.444  12.729  22.035  0.00  0.00     0.037 A 
HETATM   16  C   UNL     1       8.558  12.435  22.827  0.00  0.00     0.030 A 
HETATM   17  C   UNL     1       9.303  13.454  23.425  0.00  0.00     0.017 A 
HETATM   18  C   UNL     1       8.968  14.798  23.236  0.00  0.00     0.009 A 
HETATM   19  C   UNL     1       7.917  15.107  22.373  0.00  0.00     0.017 A 
HETATM   20  C   UNL     1       7.167  14.077  21.762  0.00  0.00     0.030 A 
BRANCH  18  21
HETATM   21  C   UNL     1       9.765  15.815  23.999  0.00  0.00     0.155 C 
HETATM   22  O   UNL     1       9.580  15.927  25.214  0.00  0.00    -0.293 OA
HETATM   23  C   UNL     1      10.743  16.728  23.317  0.00  0.00     0.096 C 
ENDBRANCH  18  21
ENDBRANCH  13  15
ENDBRANCH   8  11
BRANCH   9  24
HETATM   24  O   UNL     1       6.333  10.645  24.978  0.00  0.00    -0.360 OA
HETATM   25  H   UNL     1       6.401  10.603  25.958  0.00  0.00     0.217 HD
ENDBRANCH   9  24
BRANCH   1  26
HETATM   26  C   UNL     1       0.873  14.262  23.619  0.00  0.00     0.100 C 
BRANCH  26  27
HETATM   27  C   UNL     1      -0.266  13.303  23.887  0.00  0.00    -0.052 A 
HETATM   28  C   UNL     1      -0.686  12.878  25.156  0.00  0.00     0.014 A 
HETATM   29  C   UNL     1      -1.630  11.850  25.299  0.00  0.00    -0.061 A 
HETATM   30  C   UNL     1      -1.912  11.272  26.655  0.00  0.00     0.048 C 
HETATM   31  C   UNL     1      -2.215  11.287  24.161  0.00  0.00     0.007 A 
HETATM   32  C   UNL     1      -1.861  11.741  22.894  0.00  0.00     0.001 A 
HETATM   33  C   UNL     1      -0.891  12.734  22.761  0.00  0.00     0.007 A 
ENDBRANCH  26  27
ENDBRANCH   1  26
TORSDOF 6
ENDMDL
MODEL 8
REMARK VINA RESULT:    -7.573      2.522      5.119
REMARK INTER + INTRA:         -12.607
REMARK INTER:                 -10.128
REMARK INTRA:                  -2.479
REMARK UNBOUND:                -2.598
REMARK  6 active torsions:
REMARK  status: ('A' for Active; 'I' for Inactive)
REMARK    1  A    between atoms: C_7  and  C_8 
REMARK    2  A    between atoms: C_8  and  C_9 
REMARK    3  A    between atoms: C_16  and  C_20 
REMARK    4  A    between atoms: C_17  and  O_19 
REMARK       I    between atoms: C_20  and  N_22 
REMARK    5  A    between atoms: N_22  and  C_24 
REMARK    6  A    between atoms: C_27  and  C_28 
ROOT
HETATM    1  C   UNL     1       6.126   9.299  23.855  0.00  0.00     0.071 A 
HETATM    2  N   UNL     1       6.040   8.532  22.755  0.00  0.00    -0.178 NA
HETATM    3  N   UNL     1       7.237   8.670  22.166  0.00  0.00    -0.277 N 
HETATM    4  H   UNL     1       7.403   8.174  21.297  0.00  0.00     0.189 HD
HETATM    5  C   UNL     1       7.406   9.917  23.964  0.00  0.00     0.020 A 
HETATM    6  C   UNL     1       8.070   9.552  22.797  0.00  0.00     0.065 A 
HETATM    7  C   UNL     1       8.041  10.786  24.870  0.00  0.00     0.035 C 
HETATM    8  C   UNL     1       9.308  11.305  24.544  0.00  0.00     0.066 C 
HETATM    9  C   UNL     1       9.871  11.021  23.291  0.00  0.00     0.083 C 
HETATM   10  C   UNL     1       9.304  10.086  22.423  0.00  0.00     0.069 C 
ENDROOT
BRANCH   8  11
HETATM   11  C   UNL     1      10.035  12.196  25.493  0.00  0.00     0.260 C 
HETATM   12  O   UNL     1      11.058  11.715  25.994  0.00  0.00    -0.267 OA
HETATM   13  N   UNL     1       9.598  13.517  25.735  0.00  0.00    -0.318 N 
HETATM   14  C   UNL     1      10.527  14.422  26.408  0.00  0.00     0.159 C 
BRANCH  13  15
HETATM   15  C   UNL     1       8.272  14.002  25.491  0.00  0.00     0.037 A 
HETATM   16  C   UNL     1       7.911  14.505  24.238  0.00  0.00     0.030 A 
HETATM   17  C   UNL     1       6.663  15.096  24.032  0.00  0.00     0.017 A 
HETATM   18  C   UNL     1       5.729  15.186  25.069  0.00  0.00     0.009 A 
HETATM   19  C   UNL     1       6.040  14.603  26.297  0.00  0.00     0.017 A 
HETATM   20  C   UNL     1       7.301  14.000  26.504  0.00  0.00     0.030 A 
BRANCH  18  21
HETATM   21  C   UNL     1       4.455  15.925  24.780  0.00  0.00     0.155 C 
HETATM   22  O   UNL     1       4.311  16.452  23.672  0.00  0.00    -0.293 OA
HETATM   23  C   UNL     1       3.378  16.081  25.813  0.00  0.00     0.096 C 
ENDBRANCH  18  21
ENDBRANCH  13  15
ENDBRANCH   8  11
BRANCH   9  24
HETATM   24  O   UNL     1      10.986  11.667  22.822  0.00  0.00    -0.360 OA
HETATM   25  H   UNL     1      10.783  11.954  21.904  0.00  0.00     0.217 HD
ENDBRANCH   9  24
BRANCH   1  26
HETATM   26  C   UNL     1       4.918   9.565  24.693  0.00  0.00     0.100 C 
BRANCH  26  27
HETATM   27  C   UNL     1       4.225  10.859  24.327  0.00  0.00    -0.052 A 
HETATM   28  C   UNL     1       3.025  11.322  24.885  0.00  0.00     0.014 A 
HETATM   29  C   UNL     1       2.364  12.440  24.355  0.00  0.00    -0.061 A 
HETATM   30  C   UNL     1       0.986  12.795  24.831  0.00  0.00     0.048 C 
HETATM   31  C   UNL     1       2.946  13.149  23.299  0.00  0.00     0.007 A 
HETATM   32  C   UNL     1       4.170  12.745  22.774  0.00  0.00     0.001 A 
HETATM   33  C   UNL     1       4.798  11.608  23.280  0.00  0.00     0.007 A 
ENDBRANCH  26  27
ENDBRANCH   1  26
TORSDOF 6
ENDMDL
MODEL 9
REMARK VINA RESULT:    -7.487      2.814      6.030
REMARK INTER + INTRA:         -12.493
REMARK INTER:                  -9.894
REMARK INTRA:                  -2.598
REMARK UNBOUND:                -2.598
REMARK  6 active torsions:
REMARK  status: ('A' for Active; 'I' for Inactive)
REMARK    1  A    between atoms: C_7  and  C_8 
REMARK    2  A    between atoms: C_8  and  C_9 
REMARK    3  A    between atoms: C_16  and  C_20 
REMARK    4  A    between atoms: C_17  and  O_19 
REMARK       I    between atoms: C_20  and  N_22 
REMARK    5  A    between atoms: N_22  and  C_24 
REMARK    6  A    between atoms: C_27  and  C_28 
ROOT
HETATM    1  C   UNL     1       5.096  10.341  24.199  0.00  0.00     0.071 A 
HETATM    2  N   UNL     1       3.845  10.178  23.736  0.00  0.00    -0.178 NA
HETATM    3  N   UNL     1       3.276  11.382  23.899  0.00  0.00    -0.277 N 
HETATM    4  H   UNL     1       2.309  11.497  23.618  0.00  0.00     0.189 HD
HETATM    5  C   UNL     1       5.318  11.676  24.647  0.00  0.00     0.020 A 
HETATM    6  C   UNL     1       4.082  12.299  24.517  0.00  0.00     0.065 A 
HETATM    7  C   UNL     1       6.393  12.395  25.204  0.00  0.00     0.035 C 
HETATM    8  C   UNL     1       6.171  13.706  25.664  0.00  0.00     0.066 C 
HETATM    9  C   UNL     1       4.872  14.236  25.644  0.00  0.00     0.083 C 
HETATM   10  C   UNL     1       3.817  13.579  25.008  0.00  0.00     0.069 C 
ENDROOT
BRANCH   8  11
HETATM   11  C   UNL     1       7.289  14.518  26.223  0.00  0.00     0.260 C 
HETATM   12  O   UNL     1       7.134  14.904  27.388  0.00  0.00    -0.267 OA
HETATM   13  N   UNL     1       8.461  14.759  25.475  0.00  0.00    -0.318 N 
HETATM   14  C   UNL     1       9.627  15.271  26.193  0.00  0.00     0.159 C 
BRANCH  13  15
HETATM   15  C   UNL     1       8.560  14.665  24.048  0.00  0.00     0.037 A 
HETATM   16  C   UNL     1       7.688  15.377  23.220  0.00  0.00     0.030 A 
HETATM   17  C   UNL     1       7.696  15.189  21.836  0.00  0.00     0.017 A 
HETATM   18  C   UNL     1       8.589  14.298  21.235  0.00  0.00     0.009 A 
HETATM   19  C   UNL     1       9.529  13.653  22.040  0.00  0.00     0.017 A 
HETATM   20  C   UNL     1       9.524  13.847  23.440  0.00  0.00     0.030 A 
BRANCH  18  21
HETATM   21  C   UNL     1       8.456  14.090  19.755  0.00  0.00     0.155 C 
HETATM   22  O   UNL     1       8.126  15.047  19.048  0.00  0.00    -0.293 OA
HETATM   23  C   UNL     1       8.668  12.746  19.122  0.00  0.00     0.096 C 
ENDBRANCH  18  21
ENDBRANCH  13  15
ENDBRANCH   8  11
BRANCH   9  24
HETATM   24  O   UNL     1       4.545  15.408  26.276  0.00  0.00    -0.360 OA
HETATM   25  H   UNL     1       5.278  15.608  26.901  0.00  0.00     0.217 HD
ENDBRANCH   9  24
BRANCH   1  26
HETATM   26  C   UNL     1       6.004   9.166  24.364  0.00  0.00     0.100 C 
BRANCH  26  27
HETATM   27  C   UNL     1       7.411   9.442  23.880  0.00  0.00    -0.052 A 
HETATM   28  C   UNL     1       8.521   9.673  24.705  0.00  0.00     0.014 A 
HETATM   29  C   UNL     1       9.745  10.099  24.168  0.00  0.00    -0.061 A 
HETATM   30  C   UNL     1      10.854  10.536  25.079  0.00  0.00     0.048 C 
HETATM   31  C   UNL     1       9.884  10.228  22.782  0.00  0.00     0.007 A 
HETATM   32  C   UNL     1       8.813   9.940  21.942  0.00  0.00     0.001 A 
HETATM   33  C   UNL     1       7.588   9.558  22.487  0.00  0.00     0.007 A 
ENDBRANCH  26  27
ENDBRANCH   1  26
TORSDOF 6
ENDMDL
