MODEL 1
REMARK VINA RESULT:    -9.811      0.000      0.000
REMARK INTER + INTRA:         -12.682
REMARK INTER:                 -11.590
REMARK INTRA:                  -1.091
REMARK UNBOUND:                -1.151
REMARK  3 active torsions:
REMARK  status: ('A' for Active; 'I' for Inactive)
REMARK       I    between atoms: C_2  and  N_3 
REMARK    1  A    between atoms: C_2  and  C_27 
REMARK    2  A    between atoms: N_3  and  C_4 
REMARK    3  A    between atoms: C_16  and  C_17 
ROOT
HETATM    1  C   UNL     1       7.765  14.882  22.650  0.00  0.00     0.153 A 
HETATM    2  C   UNL     1       6.304  14.522  22.798  0.00  0.00    -0.020 A 
HETATM    3  C   UNL     1       5.383  15.122  23.652  0.00  0.00     0.010 A 
HETATM    4  C   UNL     1       4.068  14.669  23.632  0.00  0.00     0.001 A 
HETATM    5  C   UNL     1       3.693  13.654  22.745  0.00  0.00     0.001 A 
HETATM    6  C   UNL     1       4.629  13.073  21.877  0.00  0.00     0.013 A 
HETATM    7  C   UNL     1       5.956  13.475  21.915  0.00  0.00    -0.016 A 
HETATM    8  C   UNL     1       7.154  13.047  21.177  0.00  0.00    -0.003 A 
HETATM    9  C   UNL     1       8.219  13.903  21.583  0.00  0.00    -0.019 A 
HETATM   10  C   UNL     1       9.499  13.820  21.052  0.00  0.00     0.010 A 
HETATM   11  C   UNL     1       9.751  12.840  20.104  0.00  0.00     0.002 A 
HETATM   12  C   UNL     1       8.731  11.957  19.714  0.00  0.00     0.016 A 
HETATM   13  C   UNL     1       7.416  12.034  20.239  0.00  0.00     0.022 A 
ENDROOT
BRANCH   1  14
HETATM   14  N   UNL     1       8.461  14.673  23.899  0.00  0.00    -0.344 N 
HETATM   15  C   UNL     1       9.621  15.350  24.195  0.00  0.00     0.253 C 
HETATM   16  O   UNL     1      10.138  16.152  23.428  0.00  0.00    -0.268 OA
HETATM   17  H   UNL     1       8.203  13.850  24.422  0.00  0.00     0.163 HD
BRANCH  15  18
HETATM   18  C   UNL     1      10.226  15.064  25.519  0.00  0.00     0.047 A 
HETATM   19  C   UNL     1       9.688  15.594  26.701  0.00  0.00     0.037 A 
HETATM   20  C   UNL     1      10.338  15.349  27.901  0.00  0.00     0.120 A 
HETATM   21  N   UNL     1      11.474  14.637  28.049  0.00  0.00    -0.242 NA
HETATM   22  C   UNL     1      11.953  14.157  26.888  0.00  0.00     0.138 A 
HETATM   23  N   UNL     1      13.101  13.420  26.780  0.00  0.00    -0.350 N 
HETATM   24  C   UNL     1      11.414  14.311  25.615  0.00  0.00     0.027 A 
HETATM   25  H   UNL     1      13.692  13.189  27.566  0.00  0.00     0.166 HD
HETATM   26  C   UNL     1      13.306  13.068  25.471  0.00  0.00     0.090 A 
HETATM   27  C   UNL     1      12.281  13.611  24.726  0.00  0.00     0.033 A 
ENDBRANCH  15  18
ENDBRANCH   1  14
BRANCH  13  28
HETATM   28  C   UNL     1       6.429  11.027  19.824  0.00  0.00     0.140 A 
HETATM   29  N   UNL     1       5.527  11.164  18.873  0.00  0.00    -0.227 NA
HETATM   30  C   UNL     1       4.891   9.957  18.751  0.00  0.00     0.103 A 
HETATM   31  C   UNL     1       3.941   9.526  17.823  0.00  0.00     0.150 A 
HETATM   32  C   UNL     1       5.322   9.079  19.734  0.00  0.00     0.065 A 
HETATM   33  N   UNL     1       3.429   8.269  17.906  0.00  0.00    -0.271 NA
HETATM   34  C   UNL     1       3.853   7.461  18.906  0.00  0.00     0.118 A 
HETATM   35  C   UNL     1       4.804   7.794  19.865  0.00  0.00     0.051 A 
HETATM   36  N   UNL     1       6.288   9.782  20.411  0.00  0.00    -0.338 N 
HETATM   37  H   UNL     1       6.843   9.431  21.177  0.00  0.00     0.167 HD
ENDBRANCH  13  28
TORSDOF 3
ENDMDL
MODEL 2
REMARK VINA RESULT:    -9.748      2.810      9.080
REMARK INTER + INTRA:         -12.608
REMARK INTER:                 -11.641
REMARK INTRA:                  -0.967
REMARK UNBOUND:                -1.151
REMARK  3 active torsions:
REMARK  status: ('A' for Active; 'I' for Inactive)
REMARK       I    between atoms: C_2  and  N_3 
REMARK    1  A    between atoms: C_2  and  C_27 
REMARK    2  A    between atoms: N_3  and  C_4 
REMARK    3  A    between atoms: C_16  and  C_17 
ROOT
HETATM    1  C   UNL     1       5.899  11.021  22.618  0.00  0.00     0.153 A 
HETATM    2  C   UNL     1       6.107  12.498  22.872  0.00  0.00    -0.020 A 
HETATM    3  C   UNL     1       5.209  13.523  22.588  0.00  0.00     0.010 A 
HETATM    4  C   UNL     1       5.569  14.826  22.917  0.00  0.00     0.001 A 
HETATM    5  C   UNL     1       6.794  15.076  23.545  0.00  0.00     0.001 A 
HETATM    6  C   UNL     1       7.678  14.029  23.842  0.00  0.00     0.013 A 
HETATM    7  C   UNL     1       7.363  12.728  23.478  0.00  0.00    -0.016 A 
HETATM    8  C   UNL     1       8.076  11.448  23.614  0.00  0.00    -0.003 A 
HETATM    9  C   UNL     1       7.197  10.432  23.140  0.00  0.00    -0.019 A 
HETATM   10  C   UNL     1       7.522   9.082  23.163  0.00  0.00     0.010 A 
HETATM   11  C   UNL     1       8.769   8.719  23.645  0.00  0.00     0.002 A 
HETATM   12  C   UNL     1       9.671   9.703  24.082  0.00  0.00     0.016 A 
HETATM   13  C   UNL     1       9.352  11.083  24.075  0.00  0.00     0.022 A 
ENDROOT
BRANCH   1  14
HETATM   14  N   UNL     1       5.730  10.775  21.204  0.00  0.00    -0.344 N 
HETATM   15  C   UNL     1       4.991   9.710  20.746  0.00  0.00     0.253 C 
HETATM   16  O   UNL     1       4.446   8.907  21.492  0.00  0.00    -0.268 OA
HETATM   17  H   UNL     1       6.366  11.259  20.587  0.00  0.00     0.163 HD
BRANCH  15  18
HETATM   18  C   UNL     1       4.873   9.581  19.272  0.00  0.00     0.047 A 
HETATM   19  C   UNL     1       4.489  10.665  18.469  0.00  0.00     0.037 A 
HETATM   20  C   UNL     1       4.328  10.464  17.107  0.00  0.00     0.120 A 
HETATM   21  N   UNL     1       4.504   9.294  16.458  0.00  0.00    -0.242 NA
HETATM   22  C   UNL     1       4.865   8.287  17.271  0.00  0.00     0.138 A 
HETATM   23  N   UNL     1       5.083   7.003  16.849  0.00  0.00    -0.350 N 
HETATM   24  C   UNL     1       5.070   8.333  18.646  0.00  0.00     0.027 A 
HETATM   25  H   UNL     1       4.976   6.706  15.891  0.00  0.00     0.166 HD
HETATM   26  C   UNL     1       5.453   6.221  17.912  0.00  0.00     0.090 A 
HETATM   27  C   UNL     1       5.447   7.016  19.039  0.00  0.00     0.033 A 
ENDBRANCH  15  18
ENDBRANCH   1  14
BRANCH  13  28
HETATM   28  C   UNL     1      10.381  12.049  24.487  0.00  0.00     0.140 A 
HETATM   29  N   UNL     1      11.009  12.903  23.704  0.00  0.00    -0.227 NA
HETATM   30  C   UNL     1      11.801  13.675  24.510  0.00  0.00     0.103 A 
HETATM   31  C   UNL     1      12.579  14.795  24.209  0.00  0.00     0.150 A 
HETATM   32  C   UNL     1      11.761  13.212  25.817  0.00  0.00     0.065 A 
HETATM   33  N   UNL     1      13.307  15.401  25.184  0.00  0.00    -0.271 NA
HETATM   34  C   UNL     1      13.266  14.890  26.438  0.00  0.00     0.118 A 
HETATM   35  C   UNL     1      12.511  13.792  26.837  0.00  0.00     0.051 A 
HETATM   36  N   UNL     1      10.864  12.174  25.778  0.00  0.00    -0.338 N 
HETATM   37  H   UNL     1      10.565  11.624  26.569  0.00  0.00     0.167 HD
ENDBRANCH  13  28
TORSDOF 3
ENDMDL
MODEL 3
REMARK VINA RESULT:    -9.671      2.965      9.135
REMARK INTER + INTRA:         -12.518
REMARK INTER:                 -11.465
REMARK INTRA:                  -1.053
REMARK UNBOUND:                -1.151
REMARK  3 active torsions:
REMARK  status: ('A' for Active; 'I' for Inactive)
REMARK       I    between atoms: C_2  and  N_3 
REMARK    1  A    between atoms: C_2  and  C_27 
REMARK    2  A    between atoms: N_3  and  C_4 
REMARK    3  A    between atoms: C_16  and  C_17 
ROOT
HETATM    1  C   UNL     1       6.127  10.340  22.540  0.00  0.00     0.153 A 
HETATM    2  C   UNL     1       6.247  11.841  22.679  0.00  0.00    -0.020 A 
HETATM    3  C   UNL     1       5.285  12.786  22.336  0.00  0.00     0.010 A 
HETATM    4  C   UNL     1       5.569  14.130  22.560  0.00  0.00     0.001 A 
HETATM    5  C   UNL     1       6.785  14.499  23.144  0.00  0.00     0.001 A 
HETATM    6  C   UNL     1       7.736  13.532  23.502  0.00  0.00     0.013 A 
HETATM    7  C   UNL     1       7.495  12.191  23.243  0.00  0.00    -0.016 A 
HETATM    8  C   UNL     1       8.287  10.971  23.461  0.00  0.00    -0.003 A 
HETATM    9  C   UNL     1       7.466   9.870  23.081  0.00  0.00    -0.019 A 
HETATM   10  C   UNL     1       7.872   8.548  23.198  0.00  0.00     0.010 A 
HETATM   11  C   UNL     1       9.146   8.297  23.683  0.00  0.00     0.002 A 
HETATM   12  C   UNL     1       9.992   9.364  24.029  0.00  0.00     0.016 A 
HETATM   13  C   UNL     1       9.589  10.719  23.924  0.00  0.00     0.022 A 
ENDROOT
BRANCH   1  14
HETATM   14  N   UNL     1       5.954   9.978  21.152  0.00  0.00    -0.344 N 
HETATM   15  C   UNL     1       5.219   8.874  20.786  0.00  0.00     0.253 C 
HETATM   16  O   UNL     1       4.683   8.131  21.598  0.00  0.00    -0.268 OA
HETATM   17  H   UNL     1       6.583  10.414  20.494  0.00  0.00     0.163 HD
BRANCH  15  18
HETATM   18  C   UNL     1       5.096   8.624  19.328  0.00  0.00     0.047 A 
HETATM   19  C   UNL     1       5.495   7.406  18.757  0.00  0.00     0.037 A 
HETATM   20  C   UNL     1       5.421   7.257  17.381  0.00  0.00     0.120 A 
HETATM   21  N   UNL     1       4.998   8.197  16.509  0.00  0.00    -0.242 NA
HETATM   22  C   UNL     1       4.634   9.346  17.105  0.00  0.00     0.138 A 
HETATM   23  N   UNL     1       4.188  10.450  16.430  0.00  0.00    -0.350 N 
HETATM   24  C   UNL     1       4.646   9.642  18.464  0.00  0.00     0.027 A 
HETATM   25  H   UNL     1       4.110  10.495  15.425  0.00  0.00     0.166 HD
HETATM   26  C   UNL     1       3.883  11.446  17.320  0.00  0.00     0.090 A 
HETATM   27  C   UNL     1       4.162  10.977  18.586  0.00  0.00     0.033 A 
ENDBRANCH  15  18
ENDBRANCH   1  14
BRANCH  13  28
HETATM   28  C   UNL     1      10.563  11.773  24.244  0.00  0.00     0.140 A 
HETATM   29  N   UNL     1      11.109  12.616  23.391  0.00  0.00    -0.227 NA
HETATM   30  C   UNL     1      11.870  13.487  24.124  0.00  0.00     0.103 A 
HETATM   31  C   UNL     1      12.563  14.635  23.731  0.00  0.00     0.150 A 
HETATM   32  C   UNL     1      11.901  13.102  25.456  0.00  0.00     0.065 A 
HETATM   33  N   UNL     1      13.277  15.345  24.644  0.00  0.00    -0.271 NA
HETATM   34  C   UNL     1      13.308  14.909  25.926  0.00  0.00     0.118 A 
HETATM   35  C   UNL     1      12.640  13.790  26.414  0.00  0.00     0.051 A 
HETATM   36  N   UNL     1      11.075  12.006  25.508  0.00  0.00    -0.338 N 
HETATM   37  H   UNL     1      10.838  11.488  26.340  0.00  0.00     0.167 HD
ENDBRANCH  13  28
TORSDOF 3
ENDMDL
MODEL 4
REMARK VINA RESULT:    -9.506      4.253      8.934
REMARK INTER + INTRA:         -12.324
REMARK INTER:                 -11.438
REMARK INTRA:                  -0.885
REMARK UNBOUND:                -1.151
REMARK  3 active torsions:
REMARK  status: ('A' for Active; 'I' for Inactive)
REMARK       I    between atoms: C_2  and  N_3 
REMARK    1  A    between atoms: C_2  and  C_27 
REMARK    2  A    between atoms: N_3  and  C_4 
REMARK    3  A    between atoms: C_16  and  C_17 
ROOT
HETATM    1  C   UNL     1       3.562  12.992  24.544  0.00  0.00     0.153 A 
HETATM    2  C   UNL     1       4.424  14.166  24.137  0.00  0.00    -0.020 A 
HETATM    3  C   UNL     1       4.030  15.499  24.065  0.00  0.00     0.010 A 
HETATM    4  C   UNL     1       4.977  16.449  23.690  0.00  0.00     0.001 A 
HETATM    5  C   UNL     1       6.293  16.057  23.426  0.00  0.00     0.001 A 
HETATM    6  C   UNL     1       6.678  14.711  23.523  0.00  0.00     0.013 A 
HETATM    7  C   UNL     1       5.740  13.741  23.846  0.00  0.00    -0.016 A 
HETATM    8  C   UNL     1       5.819  12.280  23.989  0.00  0.00    -0.003 A 
HETATM    9  C   UNL     1       4.541  11.837  24.438  0.00  0.00    -0.019 A 
HETATM   10  C   UNL     1       4.261  10.508  24.728  0.00  0.00     0.010 A 
HETATM   11  C   UNL     1       5.267   9.573  24.543  0.00  0.00     0.002 A 
HETATM   12  C   UNL     1       6.525   9.975  24.064  0.00  0.00     0.016 A 
HETATM   13  C   UNL     1       6.830  11.328  23.772  0.00  0.00     0.022 A 
ENDROOT
BRANCH   1  14
HETATM   14  N   UNL     1       2.455  12.841  23.628  0.00  0.00    -0.344 N 
HETATM   15  C   UNL     1       1.252  13.470  23.848  0.00  0.00     0.253 C 
HETATM   16  O   UNL     1       1.039  14.177  24.824  0.00  0.00    -0.268 OA
HETATM   17  H   UNL     1       2.520  12.078  22.971  0.00  0.00     0.163 HD
BRANCH  15  18
HETATM   18  C   UNL     1       0.204  13.254  22.821  0.00  0.00     0.047 A 
HETATM   19  C   UNL     1       0.403  13.618  21.481  0.00  0.00     0.037 A 
HETATM   20  C   UNL     1      -0.639  13.456  20.581  0.00  0.00     0.120 A 
HETATM   21  N   UNL     1      -1.865  12.976  20.876  0.00  0.00    -0.242 NA
HETATM   22  C   UNL     1      -2.008  12.648  22.172  0.00  0.00     0.138 A 
HETATM   23  N   UNL     1      -3.165  12.157  22.714  0.00  0.00    -0.350 N 
HETATM   24  C   UNL     1      -1.060  12.746  23.185  0.00  0.00     0.027 A 
HETATM   25  H   UNL     1      -4.012  12.014  22.184  0.00  0.00     0.166 HD
HETATM   26  C   UNL     1      -2.982  11.907  24.049  0.00  0.00     0.090 A 
HETATM   27  C   UNL     1      -1.691  12.268  24.370  0.00  0.00     0.033 A 
ENDBRANCH  15  18
ENDBRANCH   1  14
BRANCH  13  28
HETATM   28  C   UNL     1       8.150  11.650  23.211  0.00  0.00     0.140 A 
HETATM   29  N   UNL     1       8.578  11.349  22.001  0.00  0.00    -0.227 NA
HETATM   30  C   UNL     1       9.814  11.923  21.861  0.00  0.00     0.103 A 
HETATM   31  C   UNL     1      10.650  12.010  20.746  0.00  0.00     0.150 A 
HETATM   32  C   UNL     1      10.222  12.493  23.058  0.00  0.00     0.065 A 
HETATM   33  N   UNL     1      11.859  12.623  20.847  0.00  0.00    -0.271 NA
HETATM   34  C   UNL     1      12.231  13.131  22.046  0.00  0.00     0.118 A 
HETATM   35  C   UNL     1      11.462  13.108  23.206  0.00  0.00     0.051 A 
HETATM   36  N   UNL     1       9.158  12.298  23.903  0.00  0.00    -0.338 N 
HETATM   37  H   UNL     1       9.097  12.621  24.857  0.00  0.00     0.167 HD
ENDBRANCH  13  28
TORSDOF 3
ENDMDL
MODEL 5
REMARK VINA RESULT:    -9.227      2.700      4.245
REMARK INTER + INTRA:         -11.995
REMARK INTER:                 -10.776
REMARK INTRA:                  -1.219
REMARK UNBOUND:                -1.151
REMARK  3 active torsions:
REMARK  status: ('A' for Active; 'I' for Inactive)
REMARK       I    between atoms: C_2  and  N_3 
REMARK    1  A    between atoms: C_2  and  C_27 
REMARK    2  A    between atoms: N_3  and  C_4 
REMARK    3  A    between atoms: C_16  and  C_17 
ROOT
HETATM    1  C   UNL     1       7.683  10.946  23.839  0.00  0.00     0.153 A 
HETATM    2  C   UNL     1       7.922   9.509  23.432  0.00  0.00    -0.020 A 
HETATM    3  C   UNL     1       8.804   8.613  24.029  0.00  0.00     0.010 A 
HETATM    4  C   UNL     1       8.871   7.317  23.528  0.00  0.00     0.001 A 
HETATM    5  C   UNL     1       8.041   6.934  22.468  0.00  0.00     0.001 A 
HETATM    6  C   UNL     1       7.144   7.844  21.891  0.00  0.00     0.013 A 
HETATM    7  C   UNL     1       7.096   9.155  22.342  0.00  0.00    -0.016 A 
HETATM    8  C   UNL     1       6.308  10.328  21.931  0.00  0.00    -0.003 A 
HETATM    9  C   UNL     1       6.626  11.379  22.839  0.00  0.00    -0.019 A 
HETATM   10  C   UNL     1       6.029  12.632  22.783  0.00  0.00     0.010 A 
HETATM   11  C   UNL     1       5.104  12.870  21.779  0.00  0.00     0.002 A 
HETATM   12  C   UNL     1       4.800  11.865  20.846  0.00  0.00     0.016 A 
HETATM   13  C   UNL     1       5.393  10.578  20.895  0.00  0.00     0.022 A 
ENDROOT
BRANCH   1  14
HETATM   14  N   UNL     1       8.898  11.715  23.701  0.00  0.00    -0.344 N 
HETATM   15  C   UNL     1       9.222  12.710  24.593  0.00  0.00     0.253 C 
HETATM   16  O   UNL     1       8.508  13.013  25.540  0.00  0.00    -0.268 OA
HETATM   17  H   UNL     1       9.362  11.660  22.806  0.00  0.00     0.163 HD
BRANCH  15  18
HETATM   18  C   UNL     1      10.508  13.410  24.355  0.00  0.00     0.047 A 
HETATM   19  C   UNL     1      11.648  13.130  25.123  0.00  0.00     0.037 A 
HETATM   20  C   UNL     1      12.802  13.866  24.901  0.00  0.00     0.120 A 
HETATM   21  N   UNL     1      12.940  14.858  23.996  0.00  0.00    -0.242 NA
HETATM   22  C   UNL     1      11.820  15.091  23.291  0.00  0.00     0.138 A 
HETATM   23  N   UNL     1      11.708  16.059  22.330  0.00  0.00    -0.350 N 
HETATM   24  C   UNL     1      10.596  14.438  23.394  0.00  0.00     0.027 A 
HETATM   25  H   UNL     1      12.458  16.688  22.081  0.00  0.00     0.166 HD
HETATM   26  C   UNL     1      10.450  16.030  21.786  0.00  0.00     0.090 A 
HETATM   27  C   UNL     1       9.737  15.041  22.430  0.00  0.00     0.033 A 
ENDBRANCH  15  18
ENDBRANCH   1  14
BRANCH  13  28
HETATM   28  C   UNL     1       5.067   9.609  19.838  0.00  0.00     0.140 A 
HETATM   29  N   UNL     1       4.316   8.535  19.969  0.00  0.00    -0.227 NA
HETATM   30  C   UNL     1       4.192   7.981  18.723  0.00  0.00     0.103 A 
HETATM   31  C   UNL     1       3.415   6.907  18.284  0.00  0.00     0.150 A 
HETATM   32  C   UNL     1       4.988   8.657  17.810  0.00  0.00     0.065 A 
HETATM   33  N   UNL     1       3.465   6.517  16.982  0.00  0.00    -0.271 NA
HETATM   34  C   UNL     1       4.285   7.184  16.136  0.00  0.00     0.118 A 
HETATM   35  C   UNL     1       5.082   8.272  16.476  0.00  0.00     0.051 A 
HETATM   36  N   UNL     1       5.543   9.678  18.541  0.00  0.00    -0.338 N 
HETATM   37  H   UNL     1       6.156  10.394  18.180  0.00  0.00     0.167 HD
ENDBRANCH  13  28
TORSDOF 3
ENDMDL
MODEL 6
REMARK VINA RESULT:    -9.181      4.949      9.055
REMARK INTER + INTRA:         -11.942
REMARK INTER:                 -10.824
REMARK INTRA:                  -1.118
REMARK UNBOUND:                -1.151
REMARK  3 active torsions:
REMARK  status: ('A' for Active; 'I' for Inactive)
REMARK       I    between atoms: C_2  and  N_3 
REMARK    1  A    between atoms: C_2  and  C_27 
REMARK    2  A    between atoms: N_3  and  C_4 
REMARK    3  A    between atoms: C_16  and  C_17 
ROOT
HETATM    1  C   UNL     1       5.814   9.955  23.379  0.00  0.00     0.153 A 
HETATM    2  C   UNL     1       7.248   9.547  23.639  0.00  0.00    -0.020 A 
HETATM    3  C   UNL     1       7.716   8.255  23.860  0.00  0.00     0.010 A 
HETATM    4  C   UNL     1       9.081   8.072  24.059  0.00  0.00     0.001 A 
HETATM    5  C   UNL     1       9.948   9.168  24.006  0.00  0.00     0.001 A 
HETATM    6  C   UNL     1       9.462  10.461  23.763  0.00  0.00     0.013 A 
HETATM    7  C   UNL     1       8.099  10.674  23.611  0.00  0.00    -0.016 A 
HETATM    8  C   UNL     1       7.294  11.884  23.385  0.00  0.00    -0.003 A 
HETATM    9  C   UNL     1       5.945  11.458  23.210  0.00  0.00    -0.019 A 
HETATM   10  C   UNL     1       4.906  12.334  22.928  0.00  0.00     0.010 A 
HETATM   11  C   UNL     1       5.198  13.686  22.841  0.00  0.00     0.002 A 
HETATM   12  C   UNL     1       6.512  14.140  23.047  0.00  0.00     0.016 A 
HETATM   13  C   UNL     1       7.585  13.257  23.326  0.00  0.00     0.022 A 
ENDROOT
BRANCH   1  14
HETATM   14  N   UNL     1       4.983   9.613  24.510  0.00  0.00    -0.344 N 
HETATM   15  C   UNL     1       4.208   8.477  24.513  0.00  0.00     0.253 C 
HETATM   16  O   UNL     1       4.163   7.700  23.569  0.00  0.00    -0.268 OA
HETATM   17  H   UNL     1       4.810  10.351  25.177  0.00  0.00     0.163 HD
BRANCH  15  18
HETATM   18  C   UNL     1       3.418   8.227  25.744  0.00  0.00     0.047 A 
HETATM   19  C   UNL     1       4.019   7.745  26.916  0.00  0.00     0.037 A 
HETATM   20  C   UNL     1       3.219   7.464  28.012  0.00  0.00     0.120 A 
HETATM   21  N   UNL     1       1.878   7.606  28.064  0.00  0.00    -0.242 NA
HETATM   22  C   UNL     1       1.349   8.064  26.915  0.00  0.00     0.138 A 
HETATM   23  N   UNL     1       0.011   8.271  26.718  0.00  0.00    -0.350 N 
HETATM   24  C   UNL     1       2.018   8.394  25.742  0.00  0.00     0.027 A 
HETATM   25  H   UNL     1      -0.692   8.083  27.418  0.00  0.00     0.166 HD
HETATM   26  C   UNL     1      -0.202   8.756  25.454  0.00  0.00     0.090 A 
HETATM   27  C   UNL     1       1.022   8.836  24.824  0.00  0.00     0.033 A 
ENDBRANCH  15  18
ENDBRANCH   1  14
BRANCH  13  28
HETATM   28  C   UNL     1       8.914  13.824  23.595  0.00  0.00     0.140 A 
HETATM   29  N   UNL     1       9.279  14.480  24.679  0.00  0.00    -0.227 NA
HETATM   30  C   UNL     1      10.619  14.736  24.558  0.00  0.00     0.103 A 
HETATM   31  C   UNL     1      11.519  15.296  25.468  0.00  0.00     0.150 A 
HETATM   32  C   UNL     1      11.079  14.338  23.311  0.00  0.00     0.065 A 
HETATM   33  N   UNL     1      12.821  15.471  25.118  0.00  0.00    -0.271 NA
HETATM   34  C   UNL     1      13.215  15.102  23.876  0.00  0.00     0.118 A 
HETATM   35  C   UNL     1      12.398  14.523  22.910  0.00  0.00     0.051 A 
HETATM   36  N   UNL     1       9.979  13.774  22.713  0.00  0.00    -0.338 N 
HETATM   37  H   UNL     1       9.962  13.345  21.800  0.00  0.00     0.167 HD
ENDBRANCH  13  28
TORSDOF 3
ENDMDL
MODEL 7
REMARK VINA RESULT:    -9.122      3.286      4.266
REMARK INTER + INTRA:         -11.872
REMARK INTER:                 -10.774
REMARK INTRA:                  -1.098
REMARK UNBOUND:                -1.151
REMARK  3 active torsions:
REMARK  status: ('A' for Active; 'I' for Inactive)
REMARK       I    between atoms: C_2  and  N_3 
REMARK    1  A    between atoms: C_2  and  C_27 
REMARK    2  A    between atoms: N_3  and  C_4 
REMARK    3  A    between atoms: C_16  and  C_17 
ROOT
HETATM    1  C   UNL     1       6.717  14.086  22.207  0.00  0.00     0.153 A 
HETATM    2  C   UNL     1       5.693  14.482  23.248  0.00  0.00    -0.020 A 
HETATM    3  C   UNL     1       5.548  15.736  23.834  0.00  0.00     0.010 A 
HETATM    4  C   UNL     1       4.527  15.919  24.761  0.00  0.00     0.001 A 
HETATM    5  C   UNL     1       3.659  14.863  25.061  0.00  0.00     0.001 A 
HETATM    6  C   UNL     1       3.807  13.611  24.447  0.00  0.00     0.013 A 
HETATM    7  C   UNL     1       4.849  13.392  23.557  0.00  0.00    -0.016 A 
HETATM    8  C   UNL     1       5.282  12.213  22.793  0.00  0.00    -0.003 A 
HETATM    9  C   UNL     1       6.365  12.629  21.965  0.00  0.00    -0.019 A 
HETATM   10  C   UNL     1       6.998  11.782  21.066  0.00  0.00     0.010 A 
HETATM   11  C   UNL     1       6.570  10.466  20.997  0.00  0.00     0.002 A 
HETATM   12  C   UNL     1       5.531  10.017  21.829  0.00  0.00     0.016 A 
HETATM   13  C   UNL     1       4.868  10.871  22.745  0.00  0.00     0.022 A 
ENDROOT
BRANCH   1  14
HETATM   14  N   UNL     1       8.053  14.233  22.737  0.00  0.00    -0.344 N 
HETATM   15  C   UNL     1       8.799  15.363  22.495  0.00  0.00     0.253 C 
HETATM   16  O   UNL     1       8.392  16.298  21.817  0.00  0.00    -0.268 OA
HETATM   17  H   UNL     1       8.496  13.391  23.073  0.00  0.00     0.163 HD
BRANCH  15  18
HETATM   18  C   UNL     1      10.147  15.402  23.115  0.00  0.00     0.047 A 
HETATM   19  C   UNL     1      11.313  15.406  22.336  0.00  0.00     0.037 A 
HETATM   20  C   UNL     1      12.543  15.373  22.973  0.00  0.00     0.120 A 
HETATM   21  N   UNL     1      12.737  15.329  24.307  0.00  0.00    -0.242 NA
HETATM   22  C   UNL     1      11.591  15.321  25.009  0.00  0.00     0.138 A 
HETATM   23  N   UNL     1      11.530  15.261  26.375  0.00  0.00    -0.350 N 
HETATM   24  C   UNL     1      10.290  15.357  24.517  0.00  0.00     0.027 A 
HETATM   25  H   UNL     1      12.345  15.204  26.968  0.00  0.00     0.166 HD
HETATM   26  C   UNL     1      10.221  15.287  26.783  0.00  0.00     0.090 A 
HETATM   27  C   UNL     1       9.431  15.340  25.654  0.00  0.00     0.033 A 
ENDBRANCH  15  18
ENDBRANCH   1  14
BRANCH  13  28
HETATM   28  C   UNL     1       3.838  10.300  23.624  0.00  0.00     0.140 A 
HETATM   29  N   UNL     1       2.544  10.548  23.574  0.00  0.00    -0.227 NA
HETATM   30  C   UNL     1       1.947   9.733  24.499  0.00  0.00     0.103 A 
HETATM   31  C   UNL     1       0.594   9.513  24.770  0.00  0.00     0.150 A 
HETATM   32  C   UNL     1       2.903   9.047  25.233  0.00  0.00     0.065 A 
HETATM   33  N   UNL     1       0.229   8.657  25.761  0.00  0.00    -0.271 NA
HETATM   34  C   UNL     1       1.200   8.039  26.476  0.00  0.00     0.118 A 
HETATM   35  C   UNL     1       2.568   8.182  26.269  0.00  0.00     0.051 A 
HETATM   36  N   UNL     1       4.095   9.431  24.670  0.00  0.00    -0.338 N 
HETATM   37  H   UNL     1       5.008   9.094  24.938  0.00  0.00     0.167 HD
ENDBRANCH  13  28
TORSDOF 3
ENDMDL
MODEL 8
REMARK VINA RESULT:    -9.046      3.061      9.343
REMARK INTER + INTRA:         -11.783
REMARK INTER:                 -10.816
REMARK INTRA:                  -0.968
REMARK UNBOUND:                -1.151
REMARK  3 active torsions:
REMARK  status: ('A' for Active; 'I' for Inactive)
REMARK       I    between atoms: C_2  and  N_3 
REMARK    1  A    between atoms: C_2  and  C_27 
REMARK    2  A    between atoms: N_3  and  C_4 
REMARK    3  A    between atoms: C_16  and  C_17 
ROOT
HETATM    1  C   UNL     1       6.090  10.074  22.551  0.00  0.00     0.153 A 
HETATM    2  C   UNL     1       6.092  11.583  22.655  0.00  0.00    -0.020 A 
HETATM    3  C   UNL     1       5.075  12.444  22.251  0.00  0.00     0.010 A 
HETATM    4  C   UNL     1       5.248  13.810  22.450  0.00  0.00     0.001 A 
HETATM    5  C   UNL     1       6.409  14.285  23.069  0.00  0.00     0.001 A 
HETATM    6  C   UNL     1       7.416  13.402  23.487  0.00  0.00     0.013 A 
HETATM    7  C   UNL     1       7.287  12.040  23.254  0.00  0.00    -0.016 A 
HETATM    8  C   UNL     1       8.159  10.889  23.534  0.00  0.00    -0.003 A 
HETATM    9  C   UNL     1       7.438   9.720  23.153  0.00  0.00    -0.019 A 
HETATM   10  C   UNL     1       7.938   8.436  23.320  0.00  0.00     0.010 A 
HETATM   11  C   UNL     1       9.208   8.295  23.858  0.00  0.00     0.002 A 
HETATM   12  C   UNL     1       9.957   9.431  24.206  0.00  0.00     0.016 A 
HETATM   13  C   UNL     1       9.458  10.748  24.051  0.00  0.00     0.022 A 
ENDROOT
BRANCH   1  14
HETATM   14  N   UNL     1       5.998   9.667  21.168  0.00  0.00    -0.344 N 
HETATM   15  C   UNL     1       5.238   8.587  20.787  0.00  0.00     0.253 C 
HETATM   16  O   UNL     1       4.608   7.902  21.584  0.00  0.00    -0.268 OA
HETATM   17  H   UNL     1       6.694  10.047  20.543  0.00  0.00     0.163 HD
BRANCH  15  18
HETATM   18  C   UNL     1       5.207   8.286  19.335  0.00  0.00     0.047 A 
HETATM   19  C   UNL     1       5.139   9.307  18.376  0.00  0.00     0.037 A 
HETATM   20  C   UNL     1       5.042   8.963  17.037  0.00  0.00     0.120 A 
HETATM   21  N   UNL     1       4.998   7.705  16.549  0.00  0.00    -0.242 NA
HETATM   22  C   UNL     1       5.059   6.764  17.507  0.00  0.00     0.138 A 
HETATM   23  N   UNL     1       5.014   5.418  17.262  0.00  0.00    -0.350 N 
HETATM   24  C   UNL     1       5.164   6.952  18.881  0.00  0.00     0.027 A 
HETATM   25  H   UNL     1       4.916   5.023  16.338  0.00  0.00     0.166 HD
HETATM   26  C   UNL     1       5.116   4.727  18.441  0.00  0.00     0.090 A 
HETATM   27  C   UNL     1       5.203   5.651  19.462  0.00  0.00     0.033 A 
ENDBRANCH  15  18
ENDBRANCH   1  14
BRANCH  13  28
HETATM   28  C   UNL     1      10.336  11.880  24.379  0.00  0.00     0.140 A 
HETATM   29  N   UNL     1      10.583  12.354  25.584  0.00  0.00    -0.227 NA
HETATM   30  C   UNL     1      11.528  13.334  25.441  0.00  0.00     0.103 A 
HETATM   31  C   UNL     1      12.220  14.071  26.405  0.00  0.00     0.150 A 
HETATM   32  C   UNL     1      11.788  13.566  24.098  0.00  0.00     0.065 A 
HETATM   33  N   UNL     1      13.115  15.020  26.024  0.00  0.00    -0.271 NA
HETATM   34  C   UNL     1      13.308  15.237  24.701  0.00  0.00     0.118 A 
HETATM   35  C   UNL     1      12.680  14.545  23.670  0.00  0.00     0.051 A 
HETATM   36  N   UNL     1      11.014  12.641  23.443  0.00  0.00    -0.338 N 
HETATM   37  H   UNL     1      10.982  12.503  22.443  0.00  0.00     0.167 HD
ENDBRANCH  13  28
TORSDOF 3
ENDMDL
MODEL 9
REMARK VINA RESULT:    -8.766      5.806      9.033
REMARK INTER + INTRA:         -11.454
REMARK INTER:                 -10.304
REMARK INTRA:                  -1.151
REMARK UNBOUND:                -1.151
REMARK  3 active torsions:
REMARK  status: ('A' for Active; 'I' for Inactive)
REMARK       I    between atoms: C_2  and  N_3 
REMARK    1  A    between atoms: C_2  and  C_27 
REMARK    2  A    between atoms: N_3  and  C_4 
REMARK    3  A    between atoms: C_16  and  C_17 
ROOT
HETATM    1  C   UNL     1       4.091   9.360  24.193  0.00  0.00     0.153 A 
HETATM    2  C   UNL     1       5.574   9.120  24.012  0.00  0.00    -0.020 A 
HETATM    3  C   UNL     1       6.248   7.916  24.197  0.00  0.00     0.010 A 
HETATM    4  C   UNL     1       7.618   7.883  23.958  0.00  0.00     0.001 A 
HETATM    5  C   UNL     1       8.279   9.034  23.516  0.00  0.00     0.001 A 
HETATM    6  C   UNL     1       7.581  10.234  23.317  0.00  0.00     0.013 A 
HETATM    7  C   UNL     1       6.224  10.303  23.595  0.00  0.00    -0.016 A 
HETATM    8  C   UNL     1       5.241  11.396  23.524  0.00  0.00    -0.003 A 
HETATM    9  C   UNL     1       3.971  10.832  23.841  0.00  0.00    -0.019 A 
HETATM   10  C   UNL     1       2.793  11.568  23.826  0.00  0.00     0.010 A 
HETATM   11  C   UNL     1       2.869  12.915  23.513  0.00  0.00     0.002 A 
HETATM   12  C   UNL     1       4.113  13.507  23.235  0.00  0.00     0.016 A 
HETATM   13  C   UNL     1       5.323  12.769  23.237  0.00  0.00     0.022 A 
ENDROOT
BRANCH   1  14
HETATM   14  N   UNL     1       3.705   9.104  25.561  0.00  0.00    -0.344 N 
HETATM   15  C   UNL     1       3.007   7.971  25.908  0.00  0.00     0.253 C 
HETATM   16  O   UNL     1       2.661   7.126  25.092  0.00  0.00    -0.268 OA
HETATM   17  H   UNL     1       3.751   9.889  26.193  0.00  0.00     0.163 HD
BRANCH  15  18
HETATM   18  C   UNL     1       2.691   7.812  27.349  0.00  0.00     0.047 A 
HETATM   19  C   UNL     1       3.689   7.524  28.291  0.00  0.00     0.037 A 
HETATM   20  C   UNL     1       3.323   7.318  29.612  0.00  0.00     0.120 A 
HETATM   21  N   UNL     1       2.064   7.361  30.095  0.00  0.00    -0.242 NA
HETATM   22  C   UNL     1       1.144   7.634  29.153  0.00  0.00     0.138 A 
HETATM   23  N   UNL     1      -0.200   7.713  29.396  0.00  0.00    -0.350 N 
HETATM   24  C   UNL     1       1.356   7.869  27.799  0.00  0.00     0.027 A 
HETATM   25  H   UNL     1      -0.613   7.558  30.305  0.00  0.00     0.166 HD
HETATM   26  C   UNL     1      -0.864   8.022  28.238  0.00  0.00     0.090 A 
HETATM   27  C   UNL     1       0.073   8.119  27.231  0.00  0.00     0.033 A 
ENDBRANCH  15  18
ENDBRANCH   1  14
BRANCH  13  28
HETATM   28  C   UNL     1       6.586  13.482  23.000  0.00  0.00     0.140 A 
HETATM   29  N   UNL     1       7.070  13.846  21.829  0.00  0.00    -0.227 NA
HETATM   30  C   UNL     1       8.206  14.569  22.075  0.00  0.00     0.103 A 
HETATM   31  C   UNL     1       9.034  15.278  21.202  0.00  0.00     0.150 A 
HETATM   32  C   UNL     1       8.509  14.552  23.429  0.00  0.00     0.065 A 
HETATM   33  N   UNL     1      10.135  15.918  21.676  0.00  0.00    -0.271 NA
HETATM   34  C   UNL     1      10.411  15.843  23.000  0.00  0.00     0.118 A 
HETATM   35  C   UNL     1       9.640  15.176  23.947  0.00  0.00     0.051 A 
HETATM   36  N   UNL     1       7.476  13.848  23.995  0.00  0.00    -0.338 N 
HETATM   37  H   UNL     1       7.355  13.671  24.981  0.00  0.00     0.167 HD
ENDBRANCH  13  28
TORSDOF 3
ENDMDL
