MODEL 1
REMARK VINA RESULT:    -8.407      0.000      0.000
REMARK INTER + INTRA:         -12.260
REMARK INTER:                 -11.191
REMARK INTRA:                  -1.069
REMARK UNBOUND:                -1.151
REMARK  6 active torsions:
REMARK  status: ('A' for Active; 'I' for Inactive)
REMARK    1  A    between atoms: C_2  and  C_3 
REMARK    2  A    between atoms: C_3  and  C_4 
REMARK    3  A    between atoms: C_10  and  O_11 
REMARK    4  A    between atoms: C_12  and  C_13 
REMARK       I    between atoms: C_13  and  N_15 
REMARK    5  A    between atoms: N_15  and  C_17 
REMARK    6  A    between atoms: C_20  and  C_21 
ROOT
HETATM    1  C   UNL     1       2.435  15.356  21.567  0.00  0.00     0.260 C 
HETATM    2  O   UNL     1       3.501  15.403  20.941  0.00  0.00    -0.267 OA
HETATM    3  N   UNL     1       2.389  14.742  22.834  0.00  0.00    -0.318 N 
HETATM    4  C   UNL     1       3.614  14.188  23.401  0.00  0.00     0.159 C 
ENDROOT
BRANCH   1   5
HETATM    5  C   UNL     1       1.273  16.090  20.946  0.00  0.00     0.066 C 
HETATM    6  C   UNL     1       1.321  17.295  20.233  0.00  0.00     0.083 C 
HETATM    7  C   UNL     1       0.191  17.870  19.630  0.00  0.00     0.069 C 
HETATM    8  C   UNL     1      -1.039  17.286  19.917  0.00  0.00     0.065 A 
HETATM    9  N   UNL     1      -2.309  17.661  19.587  0.00  0.00    -0.277 N 
HETATM   10  C   UNL     1      -1.174  16.159  20.716  0.00  0.00     0.019 A 
HETATM   11  N   UNL     1      -3.264  16.915  20.146  0.00  0.00    -0.178 NA
HETATM   12  H   UNL     1      -2.593  18.450  19.012  0.00  0.00     0.189 HD
HETATM   13  C   UNL     1      -2.578  15.991  20.841  0.00  0.00     0.067 A 
HETATM   14  C   UNL     1      -0.005  15.534  21.203  0.00  0.00     0.035 C 
BRANCH   6  15
HETATM   15  O   UNL     1       2.435  18.080  20.207  0.00  0.00    -0.360 OA
HETATM   16  H   UNL     1       2.166  18.983  20.450  0.00  0.00     0.217 HD
ENDBRANCH   6  15
BRANCH  13  17
HETATM   17  C   UNL     1      -3.341  14.990  21.650  0.00  0.00     0.062 C 
BRANCH  17  18
HETATM   18  C   UNL     1      -3.610  13.706  20.859  0.00  0.00     0.002 C 
HETATM   19  C   UNL     1      -2.494  12.695  21.032  0.00  0.00     0.005 C 
ENDBRANCH  17  18
ENDBRANCH  13  17
ENDBRANCH   1   5
BRANCH   3  20
HETATM   20  C   UNL     1       1.246  14.576  23.629  0.00  0.00     0.037 C 
HETATM   21  C   UNL     1       0.491  13.420  23.468  0.00  0.00     0.030 C 
HETATM   22  C   UNL     1      -0.707  13.272  24.158  0.00  0.00     0.010 C 
HETATM   23  C   UNL     1      -1.122  14.214  25.113  0.00  0.00    -0.054 C 
HETATM   24  C   UNL     1      -0.272  15.311  25.351  0.00  0.00     0.010 C 
HETATM   25  C   UNL     1       0.906  15.495  24.615  0.00  0.00     0.030 C 
BRANCH  23  26
HETATM   26  C   UNL     1      -2.489  14.091  25.794  0.00  0.00     0.022 C 
HETATM   27  C   UNL     1      -3.581  13.428  24.926  0.00  0.00     0.039 C 
HETATM   28  C   UNL     1      -3.309  11.928  24.762  0.00  0.00     0.272 C 
HETATM   29  N   UNL     1      -3.245  11.211  26.042  0.00  0.00     0.084 N 
HETATM   30  C   UNL     1      -4.569  11.048  26.638  0.00  0.00     0.309 C 
HETATM   31  C   UNL     1      -2.286  11.839  26.963  0.00  0.00     0.272 C 
HETATM   32  C   UNL     1      -2.486  13.348  27.145  0.00  0.00     0.039 C 
ENDBRANCH  23  26
ENDBRANCH   3  20
TORSDOF 6
ENDMDL
MODEL 2
REMARK VINA RESULT:    -8.399      2.530      7.069
REMARK INTER + INTRA:         -12.251
REMARK INTER:                 -11.201
REMARK INTRA:                  -1.050
REMARK UNBOUND:                -1.151
REMARK  6 active torsions:
REMARK  status: ('A' for Active; 'I' for Inactive)
REMARK    1  A    between atoms: C_2  and  C_3 
REMARK    2  A    between atoms: C_3  and  C_4 
REMARK    3  A    between atoms: C_10  and  O_11 
REMARK    4  A    between atoms: C_12  and  C_13 
REMARK       I    between atoms: C_13  and  N_15 
REMARK    5  A    between atoms: N_15  and  C_17 
REMARK    6  A    between atoms: C_20  and  C_21 
ROOT
HETATM    1  C   UNL     1      -3.977  14.054  21.163  0.00  0.00     0.260 C 
HETATM    2  O   UNL     1      -5.121  13.741  20.810  0.00  0.00    -0.267 OA
HETATM    3  N   UNL     1      -3.490  15.350  20.904  0.00  0.00    -0.318 N 
HETATM    4  C   UNL     1      -4.360  16.317  20.241  0.00  0.00     0.159 C 
ENDROOT
BRANCH   1   5
HETATM    5  C   UNL     1      -3.229  13.021  21.968  0.00  0.00     0.066 C 
HETATM    6  C   UNL     1      -2.134  12.256  21.550  0.00  0.00     0.083 C 
HETATM    7  C   UNL     1      -1.458  11.363  22.396  0.00  0.00     0.069 C 
HETATM    8  C   UNL     1      -2.031  11.124  23.641  0.00  0.00     0.065 A 
HETATM    9  N   UNL     1      -1.691  10.249  24.632  0.00  0.00    -0.277 N 
HETATM   10  C   UNL     1      -3.187  11.757  24.077  0.00  0.00     0.019 A 
HETATM   11  N   UNL     1      -2.554  10.211  25.650  0.00  0.00    -0.178 NA
HETATM   12  H   UNL     1      -0.898   9.613  24.653  0.00  0.00     0.189 HD
HETATM   13  C   UNL     1      -3.475  11.132  25.319  0.00  0.00     0.067 A 
HETATM   14  C   UNL     1      -3.770  12.741  23.249  0.00  0.00     0.035 C 
BRANCH   6  15
HETATM   15  O   UNL     1      -1.741  12.203  20.246  0.00  0.00    -0.360 OA
HETATM   16  H   UNL     1      -0.959  11.627  20.196  0.00  0.00     0.217 HD
ENDBRANCH   6  15
BRANCH  13  17
HETATM   17  C   UNL     1      -4.646  11.335  26.229  0.00  0.00     0.062 C 
BRANCH  17  18
HETATM   18  C   UNL     1      -5.580  10.122  26.233  0.00  0.00     0.002 C 
HETATM   19  C   UNL     1      -6.238   9.914  24.883  0.00  0.00     0.005 C 
ENDBRANCH  17  18
ENDBRANCH  13  17
ENDBRANCH   1   5
BRANCH   3  20
HETATM   20  C   UNL     1      -2.205  15.824  21.202  0.00  0.00     0.037 C 
HETATM   21  C   UNL     1      -1.526  16.550  20.230  0.00  0.00     0.030 C 
HETATM   22  C   UNL     1      -0.209  16.940  20.449  0.00  0.00     0.010 C 
HETATM   23  C   UNL     1       0.423  16.721  21.684  0.00  0.00    -0.054 C 
HETATM   24  C   UNL     1      -0.334  16.099  22.696  0.00  0.00     0.010 C 
HETATM   25  C   UNL     1      -1.640  15.652  22.460  0.00  0.00     0.030 C 
BRANCH  23  26
HETATM   26  C   UNL     1       1.903  17.065  21.880  0.00  0.00     0.022 C 
HETATM   27  C   UNL     1       2.652  16.139  22.862  0.00  0.00     0.039 C 
HETATM   28  C   UNL     1       2.855  14.748  22.251  0.00  0.00     0.272 C 
HETATM   29  N   UNL     1       3.605  14.778  20.988  0.00  0.00     0.084 N 
HETATM   30  C   UNL     1       5.025  15.041  21.208  0.00  0.00     0.309 C 
HETATM   31  C   UNL     1       3.001  15.710  20.025  0.00  0.00     0.272 C 
HETATM   32  C   UNL     1       2.743  17.113  20.588  0.00  0.00     0.039 C 
ENDBRANCH  23  26
ENDBRANCH   3  20
TORSDOF 6
ENDMDL
MODEL 3
REMARK VINA RESULT:    -8.331      2.642      7.113
REMARK INTER + INTRA:         -12.160
REMARK INTER:                 -11.366
REMARK INTRA:                  -0.794
REMARK UNBOUND:                -1.151
REMARK  6 active torsions:
REMARK  status: ('A' for Active; 'I' for Inactive)
REMARK    1  A    between atoms: C_2  and  C_3 
REMARK    2  A    between atoms: C_3  and  C_4 
REMARK    3  A    between atoms: C_10  and  O_11 
REMARK    4  A    between atoms: C_12  and  C_13 
REMARK       I    between atoms: C_13  and  N_15 
REMARK    5  A    between atoms: N_15  and  C_17 
REMARK    6  A    between atoms: C_20  and  C_21 
ROOT
HETATM    1  C   UNL     1      -3.952  14.080  21.729  0.00  0.00     0.260 C 
HETATM    2  O   UNL     1      -5.130  13.762  21.517  0.00  0.00    -0.267 OA
HETATM    3  N   UNL     1      -3.466  15.322  21.275  0.00  0.00    -0.318 N 
HETATM    4  C   UNL     1      -4.373  16.230  20.580  0.00  0.00     0.159 C 
ENDROOT
BRANCH   1   5
HETATM    5  C   UNL     1      -3.156  13.127  22.584  0.00  0.00     0.066 C 
HETATM    6  C   UNL     1      -2.574  11.919  22.182  0.00  0.00     0.083 C 
HETATM    7  C   UNL     1      -1.790  11.127  23.036  0.00  0.00     0.069 C 
HETATM    8  C   UNL     1      -1.752  11.499  24.377  0.00  0.00     0.065 A 
HETATM    9  N   UNL     1      -1.186  10.892  25.460  0.00  0.00    -0.277 N 
HETATM   10  C   UNL     1      -2.406  12.619  24.871  0.00  0.00     0.019 A 
HETATM   11  N   UNL     1      -1.460  11.484  26.625  0.00  0.00    -0.178 NA
HETATM   12  H   UNL     1      -0.630  10.041  25.475  0.00  0.00     0.189 HD
HETATM   13  C   UNL     1      -2.208  12.544  26.274  0.00  0.00     0.067 A 
HETATM   14  C   UNL     1      -3.082  13.461  23.960  0.00  0.00     0.035 C 
BRANCH   6  15
HETATM   15  O   UNL     1      -2.856  11.341  20.980  0.00  0.00    -0.360 OA
HETATM   16  H   UNL     1      -3.709  10.880  21.066  0.00  0.00     0.217 HD
ENDBRANCH   6  15
BRANCH  13  17
HETATM   17  C   UNL     1      -2.745  13.431  27.353  0.00  0.00     0.062 C 
BRANCH  17  18
HETATM   18  C   UNL     1      -1.766  14.555  27.705  0.00  0.00     0.002 C 
HETATM   19  C   UNL     1      -1.008  15.043  26.486  0.00  0.00     0.005 C 
ENDBRANCH  17  18
ENDBRANCH  13  17
ENDBRANCH   1   5
BRANCH   3  20
HETATM   20  C   UNL     1      -2.150  15.789  21.402  0.00  0.00     0.037 C 
HETATM   21  C   UNL     1      -1.527  16.320  20.279  0.00  0.00     0.030 C 
HETATM   22  C   UNL     1      -0.188  16.690  20.339  0.00  0.00     0.010 C 
HETATM   23  C   UNL     1       0.529  16.652  21.547  0.00  0.00    -0.054 C 
HETATM   24  C   UNL     1      -0.167  16.232  22.698  0.00  0.00     0.010 C 
HETATM   25  C   UNL     1      -1.498  15.802  22.629  0.00  0.00     0.030 C 
BRANCH  23  26
HETATM   26  C   UNL     1       2.027  16.967  21.581  0.00  0.00     0.022 C 
HETATM   27  C   UNL     1       2.795  16.307  22.747  0.00  0.00     0.039 C 
HETATM   28  C   UNL     1       2.919  14.795  22.532  0.00  0.00     0.272 C 
HETATM   29  N   UNL     1       3.603  14.446  21.279  0.00  0.00     0.084 N 
HETATM   30  C   UNL     1       5.041  14.692  21.360  0.00  0.00     0.309 C 
HETATM   31  C   UNL     1       2.982  15.110  20.124  0.00  0.00     0.272 C 
HETATM   32  C   UNL     1       2.801  16.623  20.292  0.00  0.00     0.039 C 
ENDBRANCH  23  26
ENDBRANCH   3  20
TORSDOF 6
ENDMDL
MODEL 4
REMARK VINA RESULT:    -8.219      4.065      5.855
REMARK INTER + INTRA:         -12.012
REMARK INTER:                 -10.585
REMARK INTRA:                  -1.428
REMARK UNBOUND:                -1.151
REMARK  6 active torsions:
REMARK  status: ('A' for Active; 'I' for Inactive)
REMARK    1  A    between atoms: C_2  and  C_3 
REMARK    2  A    between atoms: C_3  and  C_4 
REMARK    3  A    between atoms: C_10  and  O_11 
REMARK    4  A    between atoms: C_12  and  C_13 
REMARK       I    between atoms: C_13  and  N_15 
REMARK    5  A    between atoms: N_15  and  C_17 
REMARK    6  A    between atoms: C_20  and  C_21 
ROOT
HETATM    1  C   UNL     1      -3.406  13.359  24.641  0.00  0.00     0.260 C 
HETATM    2  O   UNL     1      -4.513  13.906  24.732  0.00  0.00    -0.267 OA
HETATM    3  N   UNL     1      -3.302  11.959  24.759  0.00  0.00    -0.318 N 
HETATM    4  C   UNL     1      -4.512  11.170  24.963  0.00  0.00     0.159 C 
ENDROOT
BRANCH   1   5
HETATM    5  C   UNL     1      -2.252  14.262  24.285  0.00  0.00     0.066 C 
HETATM    6  C   UNL     1      -1.272  14.761  25.152  0.00  0.00     0.083 C 
HETATM    7  C   UNL     1      -0.192  15.543  24.714  0.00  0.00     0.069 C 
HETATM    8  C   UNL     1      -0.220  15.965  23.388  0.00  0.00     0.065 A 
HETATM    9  N   UNL     1       0.602  16.807  22.698  0.00  0.00    -0.277 N 
HETATM   10  C   UNL     1      -1.226  15.608  22.501  0.00  0.00     0.019 A 
HETATM   11  N   UNL     1       0.192  17.078  21.457  0.00  0.00    -0.178 NA
HETATM   12  H   UNL     1       1.444  17.267  23.034  0.00  0.00     0.189 HD
HETATM   13  C   UNL     1      -0.929  16.348  21.326  0.00  0.00     0.067 A 
HETATM   14  C   UNL     1      -2.230  14.718  22.943  0.00  0.00     0.035 C 
BRANCH   6  15
HETATM   15  O   UNL     1      -1.381  14.658  26.507  0.00  0.00    -0.360 OA
HETATM   16  H   UNL     1      -0.626  14.133  26.825  0.00  0.00     0.217 HD
ENDBRANCH   6  15
BRANCH  13  17
HETATM   17  C   UNL     1      -1.701  16.441  20.049  0.00  0.00     0.062 C 
BRANCH  17  18
HETATM   18  C   UNL     1      -3.143  16.900  20.288  0.00  0.00     0.002 C 
HETATM   19  C   UNL     1      -4.145  15.832  19.896  0.00  0.00     0.005 C 
ENDBRANCH  17  18
ENDBRANCH  13  17
ENDBRANCH   1   5
BRANCH   3  20
HETATM   20  C   UNL     1      -2.114  11.215  24.726  0.00  0.00     0.037 C 
HETATM   21  C   UNL     1      -1.425  11.016  25.917  0.00  0.00     0.030 C 
HETATM   22  C   UNL     1      -0.189  10.379  25.905  0.00  0.00     0.010 C 
HETATM   23  C   UNL     1       0.336   9.821  24.728  0.00  0.00    -0.054 C 
HETATM   24  C   UNL     1      -0.446   9.923  23.561  0.00  0.00     0.010 C 
HETATM   25  C   UNL     1      -1.664  10.615  23.556  0.00  0.00     0.030 C 
BRANCH  23  26
HETATM   26  C   UNL     1       1.740   9.210  24.708  0.00  0.00     0.022 C 
HETATM   27  C   UNL     1       2.220   8.659  26.069  0.00  0.00     0.039 C 
HETATM   28  C   UNL     1       1.458   7.382  26.438  0.00  0.00     0.272 C 
HETATM   29  N   UNL     1       1.601   6.316  25.437  0.00  0.00     0.084 N 
HETATM   30  C   UNL     1       2.927   5.704  25.483  0.00  0.00     0.309 C 
HETATM   31  C   UNL     1       1.246   6.790  24.091  0.00  0.00     0.272 C 
HETATM   32  C   UNL     1       1.953   8.085  23.675  0.00  0.00     0.039 C 
ENDBRANCH  23  26
ENDBRANCH   3  20
TORSDOF 6
ENDMDL
MODEL 5
REMARK VINA RESULT:    -8.211      2.761      6.068
REMARK INTER + INTRA:         -12.002
REMARK INTER:                 -10.277
REMARK INTRA:                  -1.725
REMARK UNBOUND:                -1.151
REMARK  6 active torsions:
REMARK  status: ('A' for Active; 'I' for Inactive)
REMARK    1  A    between atoms: C_2  and  C_3 
REMARK    2  A    between atoms: C_3  and  C_4 
REMARK    3  A    between atoms: C_10  and  O_11 
REMARK    4  A    between atoms: C_12  and  C_13 
REMARK       I    between atoms: C_13  and  N_15 
REMARK    5  A    between atoms: N_15  and  C_17 
REMARK    6  A    between atoms: C_20  and  C_21 
ROOT
HETATM    1  C   UNL     1      -3.286  13.133  25.400  0.00  0.00     0.260 C 
HETATM    2  O   UNL     1      -4.304  12.838  26.040  0.00  0.00    -0.267 OA
HETATM    3  N   UNL     1      -2.112  13.512  26.081  0.00  0.00    -0.318 N 
HETATM    4  C   UNL     1      -2.110  13.526  27.540  0.00  0.00     0.159 C 
ENDROOT
BRANCH   1   5
HETATM    5  C   UNL     1      -3.367  12.938  23.907  0.00  0.00     0.066 C 
HETATM    6  C   UNL     1      -3.003  11.795  23.185  0.00  0.00     0.083 C 
HETATM    7  C   UNL     1      -3.179  11.681  21.796  0.00  0.00     0.069 C 
HETATM    8  C   UNL     1      -3.570  12.831  21.117  0.00  0.00     0.065 A 
HETATM    9  N   UNL     1      -3.718  13.078  19.783  0.00  0.00    -0.277 N 
HETATM   10  C   UNL     1      -3.831  14.035  21.756  0.00  0.00     0.019 A 
HETATM   11  N   UNL     1      -3.995  14.351  19.489  0.00  0.00    -0.178 NA
HETATM   12  H   UNL     1      -3.601  12.424  19.014  0.00  0.00     0.189 HD
HETATM   13  C   UNL     1      -4.066  14.946  20.692  0.00  0.00     0.067 A 
HETATM   14  C   UNL     1      -3.765  14.079  23.166  0.00  0.00     0.035 C 
BRANCH   6  15
HETATM   15  O   UNL     1      -2.307  10.769  23.750  0.00  0.00    -0.360 OA
HETATM   16  H   UNL     1      -2.759  10.523  24.575  0.00  0.00     0.217 HD
ENDBRANCH   6  15
BRANCH  13  17
HETATM   17  C   UNL     1      -4.322  16.419  20.749  0.00  0.00     0.062 C 
BRANCH  17  18
HETATM   18  C   UNL     1      -3.431  17.190  19.771  0.00  0.00     0.002 C 
HETATM   19  C   UNL     1      -1.962  17.048  20.117  0.00  0.00     0.005 C 
ENDBRANCH  17  18
ENDBRANCH  13  17
ENDBRANCH   1   5
BRANCH   3  20
HETATM   20  C   UNL     1      -0.908  13.915  25.487  0.00  0.00     0.037 C 
HETATM   21  C   UNL     1      -0.620  15.274  25.435  0.00  0.00     0.030 C 
HETATM   22  C   UNL     1       0.510  15.717  24.756  0.00  0.00     0.010 C 
HETATM   23  C   UNL     1       1.441  14.815  24.216  0.00  0.00    -0.054 C 
HETATM   24  C   UNL     1       1.190  13.441  24.399  0.00  0.00     0.010 C 
HETATM   25  C   UNL     1       0.023  12.990  25.029  0.00  0.00     0.030 C 
BRANCH  23  26
HETATM   26  C   UNL     1       2.628  15.314  23.387  0.00  0.00     0.022 C 
HETATM   27  C   UNL     1       3.201  14.276  22.397  0.00  0.00     0.039 C 
HETATM   28  C   UNL     1       2.232  14.044  21.231  0.00  0.00     0.272 C 
HETATM   29  N   UNL     1       1.928  15.271  20.483  0.00  0.00     0.084 N 
HETATM   30  C   UNL     1       3.051  15.689  19.648  0.00  0.00     0.309 C 
HETATM   31  C   UNL     1       1.458  16.343  21.373  0.00  0.00     0.272 C 
HETATM   32  C   UNL     1       2.370  16.602  22.578  0.00  0.00     0.039 C 
ENDBRANCH  23  26
ENDBRANCH   3  20
TORSDOF 6
ENDMDL
MODEL 6
REMARK VINA RESULT:    -8.069      3.011      7.346
REMARK INTER + INTRA:         -11.815
REMARK INTER:                 -10.676
REMARK INTRA:                  -1.138
REMARK UNBOUND:                -1.151
REMARK  6 active torsions:
REMARK  status: ('A' for Active; 'I' for Inactive)
REMARK    1  A    between atoms: C_2  and  C_3 
REMARK    2  A    between atoms: C_3  and  C_4 
REMARK    3  A    between atoms: C_10  and  O_11 
REMARK    4  A    between atoms: C_12  and  C_13 
REMARK       I    between atoms: C_13  and  N_15 
REMARK    5  A    between atoms: N_15  and  C_17 
REMARK    6  A    between atoms: C_20  and  C_21 
ROOT
HETATM    1  C   UNL     1      -4.302  13.582  22.083  0.00  0.00     0.260 C 
HETATM    2  O   UNL     1      -5.444  13.345  21.666  0.00  0.00    -0.267 OA
HETATM    3  N   UNL     1      -3.431  14.390  21.327  0.00  0.00    -0.318 N 
HETATM    4  C   UNL     1      -3.901  14.961  20.068  0.00  0.00     0.159 C 
ENDROOT
BRANCH   1   5
HETATM    5  C   UNL     1      -3.983  13.061  23.461  0.00  0.00     0.066 C 
HETATM    6  C   UNL     1      -4.512  11.919  24.074  0.00  0.00     0.083 C 
HETATM    7  C   UNL     1      -4.102  11.473  25.341  0.00  0.00     0.069 C 
HETATM    8  C   UNL     1      -3.263  12.317  26.062  0.00  0.00     0.065 A 
HETATM    9  N   UNL     1      -2.783  12.231  27.336  0.00  0.00    -0.277 N 
HETATM   10  C   UNL     1      -2.794  13.525  25.563  0.00  0.00     0.019 A 
HETATM   11  N   UNL     1      -2.092  13.301  27.735  0.00  0.00    -0.178 NA
HETATM   12  H   UNL     1      -2.929  11.479  28.005  0.00  0.00     0.189 HD
HETATM   13  C   UNL     1      -2.093  14.100  26.656  0.00  0.00     0.067 A 
HETATM   14  C   UNL     1      -3.127  13.882  24.238  0.00  0.00     0.035 C 
BRANCH   6  15
HETATM   15  O   UNL     1      -5.578  11.244  23.558  0.00  0.00    -0.360 OA
HETATM   16  H   UNL     1      -5.557  10.340  23.916  0.00  0.00     0.217 HD
ENDBRANCH   6  15
BRANCH  13  17
HETATM   17  C   UNL     1      -1.434  15.440  26.754  0.00  0.00     0.062 C 
BRANCH  17  18
HETATM   18  C   UNL     1      -0.058  15.447  26.083  0.00  0.00     0.002 C 
HETATM   19  C   UNL     1       1.041  15.820  27.059  0.00  0.00     0.005 C 
ENDBRANCH  17  18
ENDBRANCH  13  17
ENDBRANCH   1   5
BRANCH   3  20
HETATM   20  C   UNL     1      -2.103  14.699  21.652  0.00  0.00     0.037 C 
HETATM   21  C   UNL     1      -1.148  13.694  21.554  0.00  0.00     0.030 C 
HETATM   22  C   UNL     1       0.156  13.933  21.973  0.00  0.00     0.010 C 
HETATM   23  C   UNL     1       0.570  15.210  22.387  0.00  0.00    -0.054 C 
HETATM   24  C   UNL     1      -0.388  16.242  22.351  0.00  0.00     0.010 C 
HETATM   25  C   UNL     1      -1.717  15.992  21.987  0.00  0.00     0.030 C 
BRANCH  23  26
HETATM   26  C   UNL     1       1.980  15.438  22.939  0.00  0.00     0.022 C 
HETATM   27  C   UNL     1       2.938  14.238  22.768  0.00  0.00     0.039 C 
HETATM   28  C   UNL     1       3.330  14.061  21.296  0.00  0.00     0.272 C 
HETATM   29  N   UNL     1       3.980  15.249  20.727  0.00  0.00     0.084 N 
HETATM   30  C   UNL     1       5.347  15.407  21.218  0.00  0.00     0.309 C 
HETATM   31  C   UNL     1       3.166  16.457  20.930  0.00  0.00     0.272 C 
HETATM   32  C   UNL     1       2.714  16.672  22.379  0.00  0.00     0.039 C 
ENDBRANCH  23  26
ENDBRANCH   3  20
TORSDOF 6
ENDMDL
MODEL 7
REMARK VINA RESULT:    -7.982      2.157      4.680
REMARK INTER + INTRA:         -11.700
REMARK INTER:                 -10.549
REMARK INTRA:                  -1.151
REMARK UNBOUND:                -1.151
REMARK  6 active torsions:
REMARK  status: ('A' for Active; 'I' for Inactive)
REMARK    1  A    between atoms: C_2  and  C_3 
REMARK    2  A    between atoms: C_3  and  C_4 
REMARK    3  A    between atoms: C_10  and  O_11 
REMARK    4  A    between atoms: C_12  and  C_13 
REMARK       I    between atoms: C_13  and  N_15 
REMARK    5  A    between atoms: N_15  and  C_17 
REMARK    6  A    between atoms: C_20  and  C_21 
ROOT
HETATM    1  C   UNL     1      -3.173  15.940  19.942  0.00  0.00     0.260 C 
HETATM    2  O   UNL     1      -3.617  16.755  19.123  0.00  0.00    -0.267 OA
HETATM    3  N   UNL     1      -3.807  14.693  20.108  0.00  0.00    -0.318 N 
HETATM    4  C   UNL     1      -4.970  14.371  19.287  0.00  0.00     0.159 C 
ENDROOT
BRANCH   1   5
HETATM    5  C   UNL     1      -1.883  16.325  20.622  0.00  0.00     0.066 C 
HETATM    6  C   UNL     1      -0.831  17.070  20.075  0.00  0.00     0.083 C 
HETATM    7  C   UNL     1       0.306  17.439  20.811  0.00  0.00     0.069 C 
HETATM    8  C   UNL     1       0.443  16.879  22.077  0.00  0.00     0.065 A 
HETATM    9  N   UNL     1       1.462  16.945  22.982  0.00  0.00    -0.277 N 
HETATM   10  C   UNL     1      -0.504  16.033  22.637  0.00  0.00     0.019 A 
HETATM   11  N   UNL     1       1.292  16.171  24.057  0.00  0.00    -0.178 NA
HETATM   12  H   UNL     1       2.328  17.472  22.904  0.00  0.00     0.189 HD
HETATM   13  C   UNL     1       0.089  15.608  23.855  0.00  0.00     0.067 A 
HETATM   14  C   UNL     1      -1.695  15.784  21.919  0.00  0.00     0.035 C 
BRANCH   6  15
HETATM   15  O   UNL     1      -0.759  17.358  18.745  0.00  0.00    -0.360 OA
HETATM   16  H   UNL     1      -0.932  18.309  18.638  0.00  0.00     0.217 HD
ENDBRANCH   6  15
BRANCH  13  17
HETATM   17  C   UNL     1      -0.419  14.623  24.860  0.00  0.00     0.062 C 
BRANCH  17  18
HETATM   18  C   UNL     1      -1.721  15.097  25.512  0.00  0.00     0.002 C 
HETATM   19  C   UNL     1      -1.695  14.914  27.017  0.00  0.00     0.005 C 
ENDBRANCH  17  18
ENDBRANCH  13  17
ENDBRANCH   1   5
BRANCH   3  20
HETATM   20  C   UNL     1      -3.443  13.699  21.027  0.00  0.00     0.037 C 
HETATM   21  C   UNL     1      -2.433  12.811  20.675  0.00  0.00     0.030 C 
HETATM   22  C   UNL     1      -2.122  11.746  21.513  0.00  0.00     0.010 C 
HETATM   23  C   UNL     1      -2.725  11.607  22.775  0.00  0.00    -0.054 C 
HETATM   24  C   UNL     1      -3.650  12.597  23.161  0.00  0.00     0.010 C 
HETATM   25  C   UNL     1      -4.010  13.637  22.294  0.00  0.00     0.030 C 
BRANCH  23  26
HETATM   26  C   UNL     1      -2.448  10.379  23.646  0.00  0.00     0.022 C 
HETATM   27  C   UNL     1      -0.967   9.941  23.686  0.00  0.00     0.039 C 
HETATM   28  C   UNL     1      -0.126  10.942  24.487  0.00  0.00     0.272 C 
HETATM   29  N   UNL     1      -0.591  11.108  25.870  0.00  0.00     0.084 N 
HETATM   30  C   UNL     1      -0.255   9.951  26.698  0.00  0.00     0.309 C 
HETATM   31  C   UNL     1      -2.022  11.440  25.921  0.00  0.00     0.272 C 
HETATM   32  C   UNL     1      -2.915  10.492  25.111  0.00  0.00     0.039 C 
ENDBRANCH  23  26
ENDBRANCH   3  20
TORSDOF 6
ENDMDL
MODEL 8
REMARK VINA RESULT:    -7.896      3.273      7.511
REMARK INTER + INTRA:         -11.586
REMARK INTER:                 -10.264
REMARK INTRA:                  -1.321
REMARK UNBOUND:                -1.151
REMARK  6 active torsions:
REMARK  status: ('A' for Active; 'I' for Inactive)
REMARK    1  A    between atoms: C_2  and  C_3 
REMARK    2  A    between atoms: C_3  and  C_4 
REMARK    3  A    between atoms: C_10  and  O_11 
REMARK    4  A    between atoms: C_12  and  C_13 
REMARK       I    between atoms: C_13  and  N_15 
REMARK    5  A    between atoms: N_15  and  C_17 
REMARK    6  A    between atoms: C_20  and  C_21 
ROOT
HETATM    1  C   UNL     1      -3.572  12.577  23.047  0.00  0.00     0.260 C 
HETATM    2  O   UNL     1      -4.632  11.973  23.252  0.00  0.00    -0.267 OA
HETATM    3  N   UNL     1      -3.585  13.969  22.832  0.00  0.00    -0.318 N 
HETATM    4  C   UNL     1      -4.856  14.684  22.881  0.00  0.00     0.159 C 
ENDROOT
BRANCH   1   5
HETATM    5  C   UNL     1      -2.312  11.756  23.166  0.00  0.00     0.066 C 
HETATM    6  C   UNL     1      -1.453  11.374  22.129  0.00  0.00     0.083 C 
HETATM    7  C   UNL     1      -0.262  10.664  22.346  0.00  0.00     0.069 C 
HETATM    8  C   UNL     1      -0.043  10.185  23.634  0.00  0.00     0.065 A 
HETATM    9  N   UNL     1       0.940   9.384  24.139  0.00  0.00    -0.277 N 
HETATM   10  C   UNL     1      -0.914  10.423  24.688  0.00  0.00     0.019 A 
HETATM   11  N   UNL     1       0.757   9.029  25.413  0.00  0.00    -0.178 NA
HETATM   12  H   UNL     1       1.747   9.008  23.649  0.00  0.00     0.189 HD
HETATM   13  C   UNL     1      -0.377   9.661  25.759  0.00  0.00     0.067 A 
HETATM   14  C   UNL     1      -2.039  11.247  24.461  0.00  0.00     0.035 C 
BRANCH   6  15
HETATM   15  O   UNL     1      -1.787  11.524  20.816  0.00  0.00    -0.360 OA
HETATM   16  H   UNL     1      -1.664  12.461  20.584  0.00  0.00     0.217 HD
ENDBRANCH   6  15
BRANCH  13  17
HETATM   17  C   UNL     1      -0.923   9.453  27.136  0.00  0.00     0.062 C 
BRANCH  17  18
HETATM   18  C   UNL     1      -0.174   8.346  27.884  0.00  0.00     0.002 C 
HETATM   19  C   UNL     1      -0.902   7.019  27.802  0.00  0.00     0.005 C 
ENDBRANCH  17  18
ENDBRANCH  13  17
ENDBRANCH   1   5
BRANCH   3  20
HETATM   20  C   UNL     1      -2.471  14.769  22.541  0.00  0.00     0.037 C 
HETATM   21  C   UNL     1      -2.274  15.175  21.227  0.00  0.00     0.030 C 
HETATM   22  C   UNL     1      -1.123  15.875  20.882  0.00  0.00     0.010 C 
HETATM   23  C   UNL     1      -0.200  16.291  21.855  0.00  0.00    -0.054 C 
HETATM   24  C   UNL     1      -0.493  15.979  23.198  0.00  0.00     0.010 C 
HETATM   25  C   UNL     1      -1.620  15.223  23.542  0.00  0.00     0.030 C 
BRANCH  23  26
HETATM   26  C   UNL     1       1.111  16.974  21.453  0.00  0.00     0.022 C 
HETATM   27  C   UNL     1       2.229  16.890  22.515  0.00  0.00     0.039 C 
HETATM   28  C   UNL     1       2.777  15.462  22.617  0.00  0.00     0.272 C 
HETATM   29  N   UNL     1       3.314  14.959  21.345  0.00  0.00     0.084 N 
HETATM   30  C   UNL     1       4.598  15.576  21.018  0.00  0.00     0.309 C 
HETATM   31  C   UNL     1       2.333  15.088  20.258  0.00  0.00     0.272 C 
HETATM   32  C   UNL     1       1.724  16.489  20.125  0.00  0.00     0.039 C 
ENDBRANCH  23  26
ENDBRANCH   3  20
TORSDOF 6
ENDMDL
MODEL 9
REMARK VINA RESULT:    -7.821      3.696      7.715
REMARK INTER + INTRA:         -11.486
REMARK INTER:                 -10.361
REMARK INTRA:                  -1.125
REMARK UNBOUND:                -1.151
REMARK  6 active torsions:
REMARK  status: ('A' for Active; 'I' for Inactive)
REMARK    1  A    between atoms: C_2  and  C_3 
REMARK    2  A    between atoms: C_3  and  C_4 
REMARK    3  A    between atoms: C_10  and  O_11 
REMARK    4  A    between atoms: C_12  and  C_13 
REMARK       I    between atoms: C_13  and  N_15 
REMARK    5  A    between atoms: N_15  and  C_17 
REMARK    6  A    between atoms: C_20  and  C_21 
ROOT
HETATM    1  C   UNL     1      -3.990  11.933  23.819  0.00  0.00     0.260 C 
HETATM    2  O   UNL     1      -5.056  11.345  23.594  0.00  0.00    -0.267 OA
HETATM    3  N   UNL     1      -3.729  13.175  23.208  0.00  0.00    -0.318 N 
HETATM    4  C   UNL     1      -4.738  13.764  22.333  0.00  0.00     0.159 C 
ENDROOT
BRANCH   1   5
HETATM    5  C   UNL     1      -3.093  11.298  24.852  0.00  0.00     0.066 C 
HETATM    6  C   UNL     1      -3.173  11.443  26.242  0.00  0.00     0.083 C 
HETATM    7  C   UNL     1      -2.332  10.756  27.131  0.00  0.00     0.069 C 
HETATM    8  C   UNL     1      -1.275  10.044  26.572  0.00  0.00     0.065 A 
HETATM    9  N   UNL     1      -0.238   9.374  27.153  0.00  0.00    -0.277 N 
HETATM   10  C   UNL     1      -1.063   9.955  25.203  0.00  0.00     0.019 A 
HETATM   11  N   UNL     1       0.665   8.906  26.288  0.00  0.00    -0.178 NA
HETATM   12  H   UNL     1      -0.066   9.237  28.145  0.00  0.00     0.189 HD
HETATM   13  C   UNL     1       0.168   9.257  25.090  0.00  0.00     0.067 A 
HETATM   14  C   UNL     1      -2.001  10.556  24.335  0.00  0.00     0.035 C 
BRANCH   6  15
HETATM   15  O   UNL     1      -3.967  12.383  26.830  0.00  0.00    -0.360 OA
HETATM   16  H   UNL     1      -4.753  12.499  26.269  0.00  0.00     0.217 HD
ENDBRANCH   6  15
BRANCH  13  17
HETATM   17  C   UNL     1       0.957   8.928  23.862  0.00  0.00     0.062 C 
BRANCH  17  18
HETATM   18  C   UNL     1       1.515   7.503  23.909  0.00  0.00     0.002 C 
HETATM   19  C   UNL     1       0.425   6.466  23.721  0.00  0.00     0.005 C 
ENDBRANCH  17  18
ENDBRANCH  13  17
ENDBRANCH   1   5
BRANCH   3  20
HETATM   20  C   UNL     1      -2.550  13.925  23.334  0.00  0.00     0.037 C 
HETATM   21  C   UNL     1      -1.696  14.001  22.241  0.00  0.00     0.030 C 
HETATM   22  C   UNL     1      -0.467  14.641  22.364  0.00  0.00     0.010 C 
HETATM   23  C   UNL     1      -0.112  15.323  23.539  0.00  0.00    -0.054 C 
HETATM   24  C   UNL     1      -1.055  15.341  24.586  0.00  0.00     0.010 C 
HETATM   25  C   UNL     1      -2.267  14.646  24.488  0.00  0.00     0.030 C 
BRANCH  23  26
HETATM   26  C   UNL     1       1.281  15.940  23.698  0.00  0.00     0.022 C 
HETATM   27  C   UNL     1       2.292  15.052  24.457  0.00  0.00     0.039 C 
HETATM   28  C   UNL     1       2.708  13.849  23.602  0.00  0.00     0.272 C 
HETATM   29  N   UNL     1       3.310  14.235  22.319  0.00  0.00     0.084 N 
HETATM   30  C   UNL     1       4.664  14.757  22.491  0.00  0.00     0.309 C 
HETATM   31  C   UNL     1       2.441  15.157  21.572  0.00  0.00     0.272 C 
HETATM   32  C   UNL     1       1.965  16.366  22.384  0.00  0.00     0.039 C 
ENDBRANCH  23  26
ENDBRANCH   3  20
TORSDOF 6
ENDMDL
