MODEL 1
REMARK VINA RESULT:    -9.074      0.000      0.000
REMARK INTER + INTRA:         -12.274
REMARK INTER:                 -10.740
REMARK INTRA:                  -1.534
REMARK UNBOUND:                -1.608
REMARK  3 active torsions:
REMARK  status: ('A' for Active; 'I' for Inactive)
REMARK    1  A    between atoms: C_8  and  C_11 
REMARK    2  A    between atoms: C_17  and  N_24 
REMARK       I    between atoms: N_24  and  C_25 
REMARK    3  A    between atoms: C_25  and  C_27 
ROOT
HETATM    1  C   UNL     1       0.198  13.763  23.467  0.00  0.00    -0.013 A 
HETATM    2  C   UNL     1       1.621  13.799  23.441  0.00  0.00     0.013 A 
HETATM    3  C   UNL     1       2.431  12.982  24.251  0.00  0.00     0.002 A 
HETATM    4  C   UNL     1       1.850  12.053  25.096  0.00  0.00     0.010 A 
HETATM    5  C   UNL     1      -0.381  12.878  24.405  0.00  0.00    -0.005 A 
HETATM    6  C   UNL     1       0.466  12.001  25.150  0.00  0.00    -0.019 A 
HETATM    7  C   UNL     1      -0.336  10.991  25.954  0.00  0.00     0.153 C 
HETATM    8  C   UNL     1      -1.754  11.382  25.605  0.00  0.00    -0.020 C 
HETATM    9  C   UNL     1      -1.769  12.536  24.791  0.00  0.00    -0.016 C 
HETATM   10  C   UNL     1      -2.920  10.756  26.039  0.00  0.00     0.010 C 
HETATM   11  C   UNL     1      -4.143  11.294  25.654  0.00  0.00     0.001 C 
HETATM   12  C   UNL     1      -4.179  12.485  24.924  0.00  0.00     0.001 C 
HETATM   13  C   UNL     1      -2.994  13.131  24.538  0.00  0.00     0.013 C 
ENDROOT
BRANCH   7  14
HETATM   14  N   UNL     1      -0.032   9.640  25.545  0.00  0.00    -0.344 N 
HETATM   15  C   UNL     1       0.732   8.804  26.326  0.00  0.00     0.256 C 
HETATM   16  O   UNL     1       1.251   9.165  27.375  0.00  0.00    -0.268 OA
HETATM   17  H   UNL     1      -0.649   9.224  24.852  0.00  0.00     0.163 HD
BRANCH  15  18
HETATM   18  C   UNL     1       0.896   7.420  25.827  0.00  0.00     0.083 A 
HETATM   19  C   UNL     1       0.218   6.312  26.360  0.00  0.00     0.046 A 
HETATM   20 BR   UNL     1      -0.974   6.389  27.835  0.00  0.00    -0.048 Br
HETATM   21  C   UNL     1       0.460   5.047  25.817  0.00  0.00     0.139 A 
HETATM   22  N   UNL     1       1.299   4.760  24.787  0.00  0.00    -0.240 NA
HETATM   23  C   UNL     1       1.910   5.858  24.319  0.00  0.00     0.158 A 
HETATM   24  C   UNL     1       1.779   7.168  24.760  0.00  0.00     0.121 A 
HETATM   25  N   UNL     1       2.801   5.908  23.287  0.00  0.00    -0.334 N 
HETATM   26  N   UNL     1       2.599   7.998  24.017  0.00  0.00    -0.239 NA
HETATM   27  C   UNL     1       3.180   7.213  23.134  0.00  0.00     0.209 A 
HETATM   28  H   UNL     1       3.107   5.115  22.744  0.00  0.00     0.168 HD
ENDBRANCH  15  18
ENDBRANCH   7  14
BRANCH   1  29
HETATM   29  C   UNL     1      -0.545  14.587  22.480  0.00  0.00    -0.007 C 
HETATM   30  C   UNL     1      -1.494  14.039  21.619  0.00  0.00     0.027 C 
HETATM   31  C   UNL     1      -2.338  14.840  20.843  0.00  0.00    -0.007 A 
HETATM   32  C   UNL     1      -3.480  14.300  20.229  0.00  0.00     0.014 A 
HETATM   33  C   UNL     1      -2.040  16.206  20.735  0.00  0.00     0.066 A 
HETATM   34  C   UNL     1      -4.310  15.108  19.463  0.00  0.00     0.001 A 
HETATM   35  C   UNL     1      -3.970  16.442  19.266  0.00  0.00     0.002 A 
HETATM   36  C   UNL     1      -2.840  16.977  19.898  0.00  0.00     0.032 A 
HETATM   37  N   UNL     1      -1.028  16.758  21.431  0.00  0.00    -0.259 NA
HETATM   38  C   UNL     1      -0.352  15.961  22.306  0.00  0.00     0.129 C 
ENDBRANCH   1  29
TORSDOF 3
ENDMDL
MODEL 2
REMARK VINA RESULT:    -9.051      3.601      8.787
REMARK INTER + INTRA:         -12.246
REMARK INTER:                 -10.618
REMARK INTRA:                  -1.628
REMARK UNBOUND:                -1.608
REMARK  3 active torsions:
REMARK  status: ('A' for Active; 'I' for Inactive)
REMARK    1  A    between atoms: C_8  and  C_11 
REMARK    2  A    between atoms: C_17  and  N_24 
REMARK       I    between atoms: N_24  and  C_25 
REMARK    3  A    between atoms: C_25  and  C_27 
ROOT
HETATM    1  C   UNL     1      -0.028   8.787  25.770  0.00  0.00    -0.013 A 
HETATM    2  C   UNL     1       1.034   8.357  24.926  0.00  0.00     0.013 A 
HETATM    3  C   UNL     1       1.238   8.851  23.625  0.00  0.00     0.002 A 
HETATM    4  C   UNL     1       0.411   9.841  23.124  0.00  0.00     0.010 A 
HETATM    5  C   UNL     1      -0.923   9.726  25.208  0.00  0.00    -0.005 A 
HETATM    6  C   UNL     1      -0.639  10.274  23.920  0.00  0.00    -0.019 A 
HETATM    7  C   UNL     1      -1.591  11.405  23.565  0.00  0.00     0.153 C 
HETATM    8  C   UNL     1      -2.475  11.453  24.790  0.00  0.00    -0.020 C 
HETATM    9  C   UNL     1      -2.143  10.413  25.687  0.00  0.00    -0.016 C 
HETATM   10  C   UNL     1      -3.516  12.346  25.030  0.00  0.00     0.010 C 
HETATM   11  C   UNL     1      -4.257  12.201  26.198  0.00  0.00     0.001 C 
HETATM   12  C   UNL     1      -4.003  11.125  27.053  0.00  0.00     0.001 C 
HETATM   13  C   UNL     1      -2.982  10.205  26.771  0.00  0.00     0.013 C 
ENDROOT
BRANCH   7  14
HETATM   14  N   UNL     1      -0.876  12.643  23.366  0.00  0.00    -0.344 N 
HETATM   15  C   UNL     1      -0.780  13.231  22.126  0.00  0.00     0.256 C 
HETATM   16  O   UNL     1      -1.234  12.717  21.111  0.00  0.00    -0.268 OA
HETATM   17  H   UNL     1      -0.733  13.225  24.188  0.00  0.00     0.163 HD
BRANCH  15  18
HETATM   18  C   UNL     1      -0.090  14.540  22.079  0.00  0.00     0.083 A 
HETATM   19  C   UNL     1      -0.707  15.733  21.668  0.00  0.00     0.046 A 
HETATM   20 BR   UNL     1      -2.499  15.861  21.057  0.00  0.00    -0.048 Br
HETATM   21  C   UNL     1       0.045  16.911  21.652  0.00  0.00     0.139 A 
HETATM   22  N   UNL     1       1.349  17.038  22.011  0.00  0.00    -0.240 NA
HETATM   23  C   UNL     1       1.878  15.868  22.399  0.00  0.00     0.158 A 
HETATM   24  C   UNL     1       1.263  14.625  22.457  0.00  0.00     0.121 A 
HETATM   25  N   UNL     1       3.157  15.663  22.826  0.00  0.00    -0.334 N 
HETATM   26  N   UNL     1       2.166  13.674  22.895  0.00  0.00    -0.239 NA
HETATM   27  C   UNL     1       3.282  14.334  23.125  0.00  0.00     0.209 A 
HETATM   28  H   UNL     1       3.865  16.377  22.908  0.00  0.00     0.168 HD
ENDBRANCH  15  18
ENDBRANCH   7  14
BRANCH   1  29
HETATM   29  C   UNL     1      -0.069   8.279  27.166  0.00  0.00    -0.007 C 
HETATM   30  C   UNL     1       0.641   8.888  28.199  0.00  0.00     0.027 C 
HETATM   31  C   UNL     1       0.439   8.541  29.539  0.00  0.00    -0.007 A 
HETATM   32  C   UNL     1       0.916   9.361  30.574  0.00  0.00     0.014 A 
HETATM   33  C   UNL     1      -0.294   7.379  29.818  0.00  0.00     0.066 A 
HETATM   34  C   UNL     1       0.706   9.004  31.901  0.00  0.00     0.001 A 
HETATM   35  C   UNL     1       0.068   7.803  32.191  0.00  0.00     0.002 A 
HETATM   36  C   UNL     1      -0.422   7.002  31.151  0.00  0.00     0.032 A 
HETATM   37  N   UNL     1      -0.872   6.663  28.836  0.00  0.00    -0.259 NA
HETATM   38  C   UNL     1      -0.788   7.149  27.565  0.00  0.00     0.129 C 
ENDBRANCH   1  29
TORSDOF 3
ENDMDL
MODEL 3
REMARK VINA RESULT:    -8.921      3.269      4.768
REMARK INTER + INTRA:         -12.093
REMARK INTER:                 -10.529
REMARK INTRA:                  -1.565
REMARK UNBOUND:                -1.608
REMARK  3 active torsions:
REMARK  status: ('A' for Active; 'I' for Inactive)
REMARK    1  A    between atoms: C_8  and  C_11 
REMARK    2  A    between atoms: C_17  and  N_24 
REMARK       I    between atoms: N_24  and  C_25 
REMARK    3  A    between atoms: C_25  and  C_27 
ROOT
HETATM    1  C   UNL     1      -1.647  13.091  25.543  0.00  0.00    -0.013 A 
HETATM    2  C   UNL     1      -2.435  13.575  26.625  0.00  0.00     0.013 A 
HETATM    3  C   UNL     1      -2.872  12.763  27.687  0.00  0.00     0.002 A 
HETATM    4  C   UNL     1      -2.500  11.432  27.739  0.00  0.00     0.010 A 
HETATM    5  C   UNL     1      -1.357  11.707  25.559  0.00  0.00    -0.005 A 
HETATM    6  C   UNL     1      -1.740  10.929  26.693  0.00  0.00    -0.019 A 
HETATM    7  C   UNL     1      -1.175   9.520  26.628  0.00  0.00     0.153 C 
HETATM    8  C   UNL     1      -0.422   9.555  25.318  0.00  0.00    -0.020 C 
HETATM    9  C   UNL     1      -0.618  10.791  24.662  0.00  0.00    -0.016 C 
HETATM   10  C   UNL     1       0.334   8.525  24.765  0.00  0.00     0.010 C 
HETATM   11  C   UNL     1       0.914   8.725  23.517  0.00  0.00     0.001 C 
HETATM   12  C   UNL     1       0.658   9.905  22.813  0.00  0.00     0.001 C 
HETATM   13  C   UNL     1      -0.149  10.913  23.363  0.00  0.00     0.013 C 
ENDROOT
BRANCH   7  14
HETATM   14  N   UNL     1      -0.300   9.257  27.747  0.00  0.00    -0.344 N 
HETATM   15  C   UNL     1      -0.141   7.990  28.257  0.00  0.00     0.256 C 
HETATM   16  O   UNL     1      -0.771   7.024  27.844  0.00  0.00    -0.268 OA
HETATM   17  H   UNL     1       0.425   9.947  27.929  0.00  0.00     0.163 HD
BRANCH  15  18
HETATM   18  C   UNL     1       0.849   7.849  29.350  0.00  0.00     0.083 A 
HETATM   19  C   UNL     1       2.230   7.719  29.139  0.00  0.00     0.046 A 
HETATM   20 BR   UNL     1       3.055   7.645  27.431  0.00  0.00    -0.048 Br
HETATM   21  C   UNL     1       3.072   7.580  30.246  0.00  0.00     0.139 A 
HETATM   22  N   UNL     1       2.691   7.569  31.550  0.00  0.00    -0.240 NA
HETATM   23  C   UNL     1       1.364   7.704  31.685  0.00  0.00     0.158 A 
HETATM   24  C   UNL     1       0.409   7.839  30.687  0.00  0.00     0.121 A 
HETATM   25  N   UNL     1       0.672   7.740  32.860  0.00  0.00    -0.334 N 
HETATM   26  N   UNL     1      -0.851   7.934  31.251  0.00  0.00    -0.239 NA
HETATM   27  C   UNL     1      -0.652   7.891  32.552  0.00  0.00     0.209 A 
HETATM   28  H   UNL     1       1.082   7.673  33.779  0.00  0.00     0.168 HD
ENDBRANCH  15  18
ENDBRANCH   7  14
BRANCH   1  29
HETATM   29  C   UNL     1      -1.146  14.070  24.543  0.00  0.00    -0.007 C 
HETATM   30  C   UNL     1      -1.731  14.213  23.287  0.00  0.00     0.027 C 
HETATM   31  C   UNL     1      -1.398  15.269  22.433  0.00  0.00    -0.007 A 
HETATM   32  C   UNL     1      -2.202  15.581  21.325  0.00  0.00     0.014 A 
HETATM   33  C   UNL     1      -0.265  16.037  22.740  0.00  0.00     0.066 A 
HETATM   34  C   UNL     1      -1.860  16.635  20.486  0.00  0.00     0.001 A 
HETATM   35  C   UNL     1      -0.685  17.339  20.723  0.00  0.00     0.002 A 
HETATM   36  C   UNL     1       0.101  17.034  21.842  0.00  0.00     0.032 A 
HETATM   37  N   UNL     1       0.431  15.833  23.873  0.00  0.00    -0.259 NA
HETATM   38  C   UNL     1      -0.046  14.906  24.752  0.00  0.00     0.129 C 
ENDBRANCH   1  29
TORSDOF 3
ENDMDL
MODEL 4
REMARK VINA RESULT:    -8.909      3.747      5.991
REMARK INTER + INTRA:         -12.079
REMARK INTER:                 -10.463
REMARK INTRA:                  -1.616
REMARK UNBOUND:                -1.608
REMARK  3 active torsions:
REMARK  status: ('A' for Active; 'I' for Inactive)
REMARK    1  A    between atoms: C_8  and  C_11 
REMARK    2  A    between atoms: C_17  and  N_24 
REMARK       I    between atoms: N_24  and  C_25 
REMARK    3  A    between atoms: C_25  and  C_27 
ROOT
HETATM    1  C   UNL     1      -0.807  11.576  25.293  0.00  0.00    -0.013 A 
HETATM    2  C   UNL     1      -1.703  12.285  26.142  0.00  0.00     0.013 A 
HETATM    3  C   UNL     1      -2.300  11.719  27.282  0.00  0.00     0.002 A 
HETATM    4  C   UNL     1      -1.990  10.423  27.655  0.00  0.00     0.010 A 
HETATM    5  C   UNL     1      -0.577  10.222  25.631  0.00  0.00    -0.005 A 
HETATM    6  C   UNL     1      -1.128   9.703  26.842  0.00  0.00    -0.019 A 
HETATM    7  C   UNL     1      -0.616   8.304  27.141  0.00  0.00     0.153 C 
HETATM    8  C   UNL     1       0.294   8.055  25.960  0.00  0.00    -0.020 C 
HETATM    9  C   UNL     1       0.230   9.128  25.044  0.00  0.00    -0.016 C 
HETATM   10  C   UNL     1       1.071   6.922  25.733  0.00  0.00     0.010 C 
HETATM   11  C   UNL     1       1.808   6.849  24.556  0.00  0.00     0.001 C 
HETATM   12  C   UNL     1       1.688   7.859  23.597  0.00  0.00     0.001 C 
HETATM   13  C   UNL     1       0.860   8.970  23.820  0.00  0.00     0.013 C 
ENDROOT
BRANCH   7  14
HETATM   14  N   UNL     1       0.103   8.270  28.393  0.00  0.00    -0.344 N 
HETATM   15  C   UNL     1       0.119   7.146  29.186  0.00  0.00     0.256 C 
HETATM   16  O   UNL     1      -0.518   6.135  28.918  0.00  0.00    -0.268 OA
HETATM   17  H   UNL     1       0.845   8.955  28.512  0.00  0.00     0.163 HD
BRANCH  15  18
HETATM   18  C   UNL     1       0.963   7.220  30.400  0.00  0.00     0.083 A 
HETATM   19  C   UNL     1       2.351   7.010  30.401  0.00  0.00     0.046 A 
HETATM   20 BR   UNL     1       3.368   6.545  28.866  0.00  0.00    -0.048 Br
HETATM   21  C   UNL     1       3.046   7.093  31.610  0.00  0.00     0.139 A 
HETATM   22  N   UNL     1       2.513   7.375  32.827  0.00  0.00    -0.240 NA
HETATM   23  C   UNL     1       1.188   7.571  32.759  0.00  0.00     0.158 A 
HETATM   24  C   UNL     1       0.367   7.512  31.642  0.00  0.00     0.121 A 
HETATM   25  N   UNL     1       0.363   7.880  33.802  0.00  0.00    -0.334 N 
HETATM   26  N   UNL     1      -0.944   7.760  32.007  0.00  0.00    -0.239 NA
HETATM   27  C   UNL     1      -0.904   7.995  33.302  0.00  0.00     0.209 A 
HETATM   28  H   UNL     1       0.657   8.003  34.759  0.00  0.00     0.168 HD
ENDBRANCH  15  18
ENDBRANCH   7  14
BRANCH   1  29
HETATM   29  C   UNL     1      -0.149  12.317  24.187  0.00  0.00    -0.007 C 
HETATM   30  C   UNL     1       1.031  13.036  24.374  0.00  0.00     0.027 C 
HETATM   31  C   UNL     1       1.758  13.554  23.298  0.00  0.00    -0.007 A 
HETATM   32  C   UNL     1       3.081  13.994  23.468  0.00  0.00     0.014 A 
HETATM   33  C   UNL     1       1.147  13.578  22.035  0.00  0.00     0.066 A 
HETATM   34  C   UNL     1       3.792  14.505  22.389  0.00  0.00     0.001 A 
HETATM   35  C   UNL     1       3.163  14.627  21.155  0.00  0.00     0.002 A 
HETATM   36  C   UNL     1       1.850  14.168  20.990  0.00  0.00     0.032 A 
HETATM   37  N   UNL     1      -0.067  13.033  21.836  0.00  0.00    -0.259 NA
HETATM   38  C   UNL     1      -0.651  12.385  22.884  0.00  0.00     0.129 C 
ENDBRANCH   1  29
TORSDOF 3
ENDMDL
MODEL 5
REMARK VINA RESULT:    -8.763      3.172      8.983
REMARK INTER + INTRA:         -11.908
REMARK INTER:                 -10.605
REMARK INTRA:                  -1.302
REMARK UNBOUND:                -1.608
REMARK  3 active torsions:
REMARK  status: ('A' for Active; 'I' for Inactive)
REMARK    1  A    between atoms: C_8  and  C_11 
REMARK    2  A    between atoms: C_17  and  N_24 
REMARK       I    between atoms: N_24  and  C_25 
REMARK    3  A    between atoms: C_25  and  C_27 
ROOT
HETATM    1  C   UNL     1      -0.039   8.829  25.767  0.00  0.00    -0.013 A 
HETATM    2  C   UNL     1       1.037   8.424  24.928  0.00  0.00     0.013 A 
HETATM    3  C   UNL     1       1.251   8.943  23.639  0.00  0.00     0.002 A 
HETATM    4  C   UNL     1       0.420   9.932  23.144  0.00  0.00     0.010 A 
HETATM    5  C   UNL     1      -0.938   9.768  25.209  0.00  0.00    -0.005 A 
HETATM    6  C   UNL     1      -0.644  10.340  23.934  0.00  0.00    -0.019 A 
HETATM    7  C   UNL     1      -1.603  11.467  23.587  0.00  0.00     0.153 C 
HETATM    8  C   UNL     1      -2.502  11.486  24.801  0.00  0.00    -0.020 C 
HETATM    9  C   UNL     1      -2.171  10.434  25.685  0.00  0.00    -0.016 C 
HETATM   10  C   UNL     1      -3.556  12.363  25.043  0.00  0.00     0.010 C 
HETATM   11  C   UNL     1      -4.309  12.191  26.199  0.00  0.00     0.001 C 
HETATM   12  C   UNL     1      -4.054  11.104  27.039  0.00  0.00     0.001 C 
HETATM   13  C   UNL     1      -3.020  10.199  26.754  0.00  0.00     0.013 C 
ENDROOT
BRANCH   7  14
HETATM   14  N   UNL     1      -0.899  12.716  23.417  0.00  0.00    -0.344 N 
HETATM   15  C   UNL     1      -0.547  13.183  22.172  0.00  0.00     0.256 C 
HETATM   16  O   UNL     1      -0.748  12.549  21.144  0.00  0.00    -0.268 OA
HETATM   17  H   UNL     1      -0.961  13.382  24.183  0.00  0.00     0.163 HD
BRANCH  15  18
HETATM   18  C   UNL     1       0.096  14.516  22.136  0.00  0.00     0.083 A 
HETATM   19  C   UNL     1       1.310  14.814  22.775  0.00  0.00     0.046 A 
HETATM   20 BR   UNL     1       2.299  13.585  23.831  0.00  0.00    -0.048 Br
HETATM   21  C   UNL     1       1.820  16.112  22.685  0.00  0.00     0.139 A 
HETATM   22  N   UNL     1       1.260  17.152  22.015  0.00  0.00    -0.240 NA
HETATM   23  C   UNL     1       0.109  16.803  21.421  0.00  0.00     0.158 A 
HETATM   24  C   UNL     1      -0.522  15.567  21.432  0.00  0.00     0.121 A 
HETATM   25  N   UNL     1      -0.689  17.613  20.668  0.00  0.00    -0.334 N 
HETATM   26  N   UNL     1      -1.700  15.634  20.710  0.00  0.00    -0.239 NA
HETATM   27  C   UNL     1      -1.757  16.867  20.253  0.00  0.00     0.209 A 
HETATM   28  H   UNL     1      -0.503  18.583  20.461  0.00  0.00     0.168 HD
ENDBRANCH  15  18
ENDBRANCH   7  14
BRANCH   1  29
HETATM   29  C   UNL     1      -0.092   8.297  27.153  0.00  0.00    -0.007 C 
HETATM   30  C   UNL     1       0.591   8.902  28.207  0.00  0.00     0.027 C 
HETATM   31  C   UNL     1       0.375   8.530  29.537  0.00  0.00    -0.007 A 
HETATM   32  C   UNL     1       0.821   9.341  30.593  0.00  0.00     0.014 A 
HETATM   33  C   UNL     1      -0.340   7.349  29.787  0.00  0.00     0.066 A 
HETATM   34  C   UNL     1       0.597   8.959  31.911  0.00  0.00     0.001 A 
HETATM   35  C   UNL     1      -0.022   7.741  32.171  0.00  0.00     0.002 A 
HETATM   36  C   UNL     1      -0.481   6.948  31.111  0.00  0.00     0.032 A 
HETATM   37  N   UNL     1      -0.889   6.640  28.784  0.00  0.00    -0.259 NA
HETATM   38  C   UNL     1      -0.796   7.148  27.522  0.00  0.00     0.129 C 
ENDBRANCH   1  29
TORSDOF 3
ENDMDL
MODEL 6
REMARK VINA RESULT:    -8.662      3.673      8.890
REMARK INTER + INTRA:         -11.789
REMARK INTER:                 -10.316
REMARK INTRA:                  -1.473
REMARK UNBOUND:                -1.608
REMARK  3 active torsions:
REMARK  status: ('A' for Active; 'I' for Inactive)
REMARK    1  A    between atoms: C_8  and  C_11 
REMARK    2  A    between atoms: C_17  and  N_24 
REMARK       I    between atoms: N_24  and  C_25 
REMARK    3  A    between atoms: C_25  and  C_27 
ROOT
HETATM    1  C   UNL     1       0.166   8.655  26.609  0.00  0.00    -0.013 A 
HETATM    2  C   UNL     1       1.290   8.066  25.965  0.00  0.00     0.013 A 
HETATM    3  C   UNL     1       1.650   8.338  24.633  0.00  0.00     0.002 A 
HETATM    4  C   UNL     1       0.922   9.254  23.893  0.00  0.00     0.010 A 
HETATM    5  C   UNL     1      -0.624   9.514  25.810  0.00  0.00    -0.005 A 
HETATM    6  C   UNL     1      -0.185   9.837  24.490  0.00  0.00    -0.019 A 
HETATM    7  C   UNL     1      -1.044  10.920  23.858  0.00  0.00     0.153 C 
HETATM    8  C   UNL     1      -2.048  11.190  24.956  0.00  0.00    -0.020 C 
HETATM    9  C   UNL     1      -1.857  10.301  26.037  0.00  0.00    -0.016 C 
HETATM   10  C   UNL     1      -3.069  12.136  24.935  0.00  0.00     0.010 C 
HETATM   11  C   UNL     1      -3.933  12.202  26.022  0.00  0.00     0.001 C 
HETATM   12  C   UNL     1      -3.816  11.273  27.060  0.00  0.00     0.001 C 
HETATM   13  C   UNL     1      -2.813  10.293  27.041  0.00  0.00     0.013 C 
ENDROOT
BRANCH   7  14
HETATM   14  N   UNL     1      -0.259  12.091  23.545  0.00  0.00    -0.344 N 
HETATM   15  C   UNL     1      -0.589  12.923  22.500  0.00  0.00     0.256 C 
HETATM   16  O   UNL     1      -1.519  12.693  21.737  0.00  0.00    -0.268 OA
HETATM   17  H   UNL     1       0.326  12.460  24.290  0.00  0.00     0.163 HD
BRANCH  15  18
HETATM   18  C   UNL     1       0.252  14.131  22.342  0.00  0.00     0.083 A 
HETATM   19  C   UNL     1       0.109  15.289  23.123  0.00  0.00     0.046 A 
HETATM   20 BR   UNL     1      -1.212  15.523  24.466  0.00  0.00    -0.048 Br
HETATM   21  C   UNL     1       0.951  16.377  22.878  0.00  0.00     0.139 A 
HETATM   22  N   UNL     1       1.936  16.438  21.944  0.00  0.00    -0.240 NA
HETATM   23  C   UNL     1       2.026  15.302  21.238  0.00  0.00     0.158 A 
HETATM   24  C   UNL     1       1.259  14.152  21.358  0.00  0.00     0.121 A 
HETATM   25  N   UNL     1       2.916  15.043  20.236  0.00  0.00    -0.334 N 
HETATM   26  N   UNL     1       1.666  13.215  20.426  0.00  0.00    -0.239 NA
HETATM   27  C   UNL     1       2.670  13.776  19.786  0.00  0.00     0.209 A 
HETATM   28  H   UNL     1       3.624  15.682  19.907  0.00  0.00     0.168 HD
ENDBRANCH  15  18
ENDBRANCH   7  14
BRANCH   1  29
HETATM   29  C   UNL     1      -0.042   8.382  28.054  0.00  0.00    -0.007 C 
HETATM   30  C   UNL     1      -0.364   7.112  28.531  0.00  0.00     0.027 C 
HETATM   31  C   UNL     1      -0.353   6.812  29.896  0.00  0.00    -0.007 A 
HETATM   32  C   UNL     1      -0.369   5.479  30.340  0.00  0.00     0.014 A 
HETATM   33  C   UNL     1      -0.277   7.875  30.808  0.00  0.00     0.066 A 
HETATM   34  C   UNL     1      -0.356   5.195  31.701  0.00  0.00     0.001 A 
HETATM   35  C   UNL     1      -0.382   6.243  32.615  0.00  0.00     0.002 A 
HETATM   36  C   UNL     1      -0.346   7.568  32.163  0.00  0.00     0.032 A 
HETATM   37  N   UNL     1      -0.122   9.144  30.390  0.00  0.00    -0.259 NA
HETATM   38  C   UNL     1       0.038   9.356  29.053  0.00  0.00     0.129 C 
ENDBRANCH   1  29
TORSDOF 3
ENDMDL
MODEL 7
REMARK VINA RESULT:    -8.654      3.721      8.972
REMARK INTER + INTRA:         -11.780
REMARK INTER:                 -10.290
REMARK INTRA:                  -1.490
REMARK UNBOUND:                -1.608
REMARK  3 active torsions:
REMARK  status: ('A' for Active; 'I' for Inactive)
REMARK    1  A    between atoms: C_8  and  C_11 
REMARK    2  A    between atoms: C_17  and  N_24 
REMARK       I    between atoms: N_24  and  C_25 
REMARK    3  A    between atoms: C_25  and  C_27 
ROOT
HETATM    1  C   UNL     1       0.054   8.083  26.811  0.00  0.00    -0.013 A 
HETATM    2  C   UNL     1       0.960   7.214  26.140  0.00  0.00     0.013 A 
HETATM    3  C   UNL     1       1.183   7.251  24.752  0.00  0.00     0.002 A 
HETATM    4  C   UNL     1       0.541   8.197  23.973  0.00  0.00     0.010 A 
HETATM    5  C   UNL     1      -0.668   8.978  25.988  0.00  0.00    -0.005 A 
HETATM    6  C   UNL     1      -0.355   9.051  24.597  0.00  0.00    -0.019 A 
HETATM    7  C   UNL     1      -1.083  10.198  23.915  0.00  0.00     0.153 C 
HETATM    8  C   UNL     1      -1.868  10.786  25.064  0.00  0.00    -0.020 C 
HETATM    9  C   UNL     1      -1.699  10.012  26.233  0.00  0.00    -0.016 C 
HETATM   10  C   UNL     1      -2.697  11.904  25.020  0.00  0.00     0.010 C 
HETATM   11  C   UNL     1      -3.384  12.266  26.173  0.00  0.00     0.001 C 
HETATM   12  C   UNL     1      -3.300  11.461  27.313  0.00  0.00     0.001 C 
HETATM   13  C   UNL     1      -2.499  10.309  27.325  0.00  0.00     0.013 C 
ENDROOT
BRANCH   7  14
HETATM   14  N   UNL     1      -0.149  11.148  23.357  0.00  0.00    -0.344 N 
HETATM   15  C   UNL     1      -0.444  11.871  22.224  0.00  0.00     0.256 C 
HETATM   16  O   UNL     1      -1.477  11.713  21.586  0.00  0.00    -0.268 OA
HETATM   17  H   UNL     1       0.568  11.504  23.984  0.00  0.00     0.163 HD
BRANCH  15  18
HETATM   18  C   UNL     1       0.567  12.870  21.809  0.00  0.00     0.083 A 
HETATM   19  C   UNL     1       1.250  12.826  20.583  0.00  0.00     0.046 A 
HETATM   20 BR   UNL     1       1.034  11.461  19.281  0.00  0.00    -0.048 Br
HETATM   21  C   UNL     1       2.195  13.816  20.300  0.00  0.00     0.139 A 
HETATM   22  N   UNL     1       2.531  14.860  21.102  0.00  0.00    -0.240 NA
HETATM   23  C   UNL     1       1.842  14.849  22.252  0.00  0.00     0.158 A 
HETATM   24  C   UNL     1       0.888  13.933  22.674  0.00  0.00     0.121 A 
HETATM   25  N   UNL     1       1.942  15.762  23.261  0.00  0.00    -0.334 N 
HETATM   26  N   UNL     1       0.431  14.276  23.933  0.00  0.00    -0.239 NA
HETATM   27  C   UNL     1       1.069  15.385  24.244  0.00  0.00     0.209 A 
HETATM   28  H   UNL     1       2.550  16.566  23.259  0.00  0.00     0.168 HD
ENDBRANCH  15  18
ENDBRANCH   7  14
BRANCH   1  29
HETATM   29  C   UNL     1      -0.007   8.028  28.294  0.00  0.00    -0.007 C 
HETATM   30  C   UNL     1      -0.463   6.902  28.977  0.00  0.00     0.027 C 
HETATM   31  C   UNL     1      -0.324   6.772  30.363  0.00  0.00    -0.007 A 
HETATM   32  C   UNL     1      -0.494   5.527  30.990  0.00  0.00     0.014 A 
HETATM   33  C   UNL     1       0.037   7.909  31.102  0.00  0.00     0.066 A 
HETATM   34  C   UNL     1      -0.351   5.413  32.368  0.00  0.00     0.001 A 
HETATM   35  C   UNL     1      -0.093   6.552  33.122  0.00  0.00     0.002 A 
HETATM   36  C   UNL     1       0.095   7.786  32.486  0.00  0.00     0.032 A 
HETATM   37  N   UNL     1       0.336   9.071  30.494  0.00  0.00    -0.259 NA
HETATM   38  C   UNL     1       0.354   9.088  29.131  0.00  0.00     0.129 C 
ENDBRANCH   1  29
TORSDOF 3
ENDMDL
MODEL 8
REMARK VINA RESULT:    -8.429      2.849      3.967
REMARK INTER + INTRA:         -11.516
REMARK INTER:                  -9.907
REMARK INTRA:                  -1.608
REMARK UNBOUND:                -1.608
REMARK  3 active torsions:
REMARK  status: ('A' for Active; 'I' for Inactive)
REMARK    1  A    between atoms: C_8  and  C_11 
REMARK    2  A    between atoms: C_17  and  N_24 
REMARK       I    between atoms: N_24  and  C_25 
REMARK    3  A    between atoms: C_25  and  C_27 
ROOT
HETATM    1  C   UNL     1      -1.731  13.030  25.489  0.00  0.00    -0.013 A 
HETATM    2  C   UNL     1      -2.454  13.487  26.627  0.00  0.00     0.013 A 
HETATM    3  C   UNL     1      -2.790  12.661  27.714  0.00  0.00     0.002 A 
HETATM    4  C   UNL     1      -2.374  11.341  27.735  0.00  0.00     0.010 A 
HETATM    5  C   UNL     1      -1.398  11.656  25.480  0.00  0.00    -0.005 A 
HETATM    6  C   UNL     1      -1.675  10.865  26.636  0.00  0.00    -0.019 A 
HETATM    7  C   UNL     1      -1.073   9.473  26.525  0.00  0.00     0.153 C 
HETATM    8  C   UNL     1      -0.417   9.534  25.165  0.00  0.00    -0.020 C 
HETATM    9  C   UNL     1      -0.698  10.764  24.529  0.00  0.00    -0.016 C 
HETATM   10  C   UNL     1       0.329   8.529  24.556  0.00  0.00     0.010 C 
HETATM   11  C   UNL     1       0.811   8.748  23.270  0.00  0.00     0.001 C 
HETATM   12  C   UNL     1       0.469   9.921  22.591  0.00  0.00     0.001 C 
HETATM   13  C   UNL     1      -0.326  10.902  23.201  0.00  0.00     0.013 C 
ENDROOT
BRANCH   7  14
HETATM   14  N   UNL     1      -0.113   9.236  27.578  0.00  0.00    -0.344 N 
HETATM   15  C   UNL     1       0.038   7.995  28.152  0.00  0.00     0.256 C 
HETATM   16  O   UNL     1      -0.667   7.038  27.857  0.00  0.00    -0.268 OA
HETATM   17  H   UNL     1       0.654   9.900  27.652  0.00  0.00     0.163 HD
BRANCH  15  18
HETATM   18  C   UNL     1       1.115   7.873  29.160  0.00  0.00     0.083 A 
HETATM   19  C   UNL     1       0.884   7.793  30.543  0.00  0.00     0.046 A 
HETATM   20 BR   UNL     1      -0.830   7.881  31.353  0.00  0.00    -0.048 Br
HETATM   21  C   UNL     1       1.979   7.691  31.405  0.00  0.00     0.139 A 
HETATM   22  N   UNL     1       3.288   7.649  31.043  0.00  0.00    -0.240 NA
HETATM   23  C   UNL     1       3.441   7.723  29.713  0.00  0.00     0.158 A 
HETATM   24  C   UNL     1       2.458   7.836  28.740  0.00  0.00     0.121 A 
HETATM   25  N   UNL     1       4.625   7.697  29.034  0.00  0.00    -0.334 N 
HETATM   26  N   UNL     1       3.041   7.900  27.487  0.00  0.00    -0.239 NA
HETATM   27  C   UNL     1       4.336   7.795  27.701  0.00  0.00     0.209 A 
HETATM   28  H   UNL     1       5.536   7.613  29.458  0.00  0.00     0.168 HD
ENDBRANCH  15  18
ENDBRANCH   7  14
BRANCH   1  29
HETATM   29  C   UNL     1      -1.333  14.025  24.460  0.00  0.00    -0.007 C 
HETATM   30  C   UNL     1      -1.995  14.135  23.239  0.00  0.00     0.027 C 
HETATM   31  C   UNL     1      -1.760  15.201  22.364  0.00  0.00    -0.007 A 
HETATM   32  C   UNL     1      -2.640  15.469  21.303  0.00  0.00     0.014 A 
HETATM   33  C   UNL     1      -0.648  16.021  22.605  0.00  0.00     0.066 A 
HETATM   34  C   UNL     1      -2.394  16.533  20.443  0.00  0.00     0.001 A 
HETATM   35  C   UNL     1      -1.241  17.292  20.612  0.00  0.00     0.002 A 
HETATM   36  C   UNL     1      -0.380  17.029  21.684  0.00  0.00     0.032 A 
HETATM   37  N   UNL     1       0.120  15.854  23.697  0.00  0.00    -0.259 NA
HETATM   38  C   UNL     1      -0.263  14.912  24.604  0.00  0.00     0.129 C 
ENDBRANCH   1  29
TORSDOF 3
ENDMDL
MODEL 9
REMARK VINA RESULT:    -8.408      3.613      5.813
REMARK INTER + INTRA:         -11.491
REMARK INTER:                  -9.841
REMARK INTRA:                  -1.650
REMARK UNBOUND:                -1.608
REMARK  3 active torsions:
REMARK  status: ('A' for Active; 'I' for Inactive)
REMARK    1  A    between atoms: C_8  and  C_11 
REMARK    2  A    between atoms: C_17  and  N_24 
REMARK       I    between atoms: N_24  and  C_25 
REMARK    3  A    between atoms: C_25  and  C_27 
ROOT
HETATM    1  C   UNL     1      -0.377  10.826  25.223  0.00  0.00    -0.013 A 
HETATM    2  C   UNL     1      -1.358  11.373  26.097  0.00  0.00     0.013 A 
HETATM    3  C   UNL     1      -1.865  10.688  27.216  0.00  0.00     0.002 A 
HETATM    4  C   UNL     1      -1.376   9.435  27.541  0.00  0.00     0.010 A 
HETATM    5  C   UNL     1       0.041   9.506  25.511  0.00  0.00    -0.005 A 
HETATM    6  C   UNL     1      -0.426   8.872  26.702  0.00  0.00    -0.019 A 
HETATM    7  C   UNL     1       0.277   7.548  26.950  0.00  0.00     0.153 C 
HETATM    8  C   UNL     1       1.207   7.471  25.761  0.00  0.00    -0.020 C 
HETATM    9  C   UNL     1       0.989   8.558  24.885  0.00  0.00    -0.016 C 
HETATM   10  C   UNL     1       2.133   6.466  25.492  0.00  0.00     0.010 C 
HETATM   11  C   UNL     1       2.867   6.540  24.313  0.00  0.00     0.001 C 
HETATM   12  C   UNL     1       2.603   7.557  23.392  0.00  0.00     0.001 C 
HETATM   13  C   UNL     1       1.630   8.533  23.656  0.00  0.00     0.013 C 
ENDROOT
BRANCH   7  14
HETATM   14  N   UNL     1       1.000   7.568  28.200  0.00  0.00    -0.344 N 
HETATM   15  C   UNL     1       0.645   6.758  29.253  0.00  0.00     0.256 C 
HETATM   16  O   UNL     1      -0.334   6.022  29.223  0.00  0.00    -0.268 OA
HETATM   17  H   UNL     1       1.947   7.937  28.172  0.00  0.00     0.163 HD
BRANCH  15  18
HETATM   18  C   UNL     1       1.521   6.819  30.445  0.00  0.00     0.083 A 
HETATM   19  C   UNL     1       1.095   7.269  31.704  0.00  0.00     0.046 A 
HETATM   20 BR   UNL     1      -0.648   7.921  32.079  0.00  0.00    -0.048 Br
HETATM   21  C   UNL     1       2.013   7.296  32.758  0.00  0.00     0.139 A 
HETATM   22  N   UNL     1       3.314   6.912  32.701  0.00  0.00    -0.240 NA
HETATM   23  C   UNL     1       3.658   6.487  31.476  0.00  0.00     0.158 A 
HETATM   24  C   UNL     1       2.865   6.414  30.339  0.00  0.00     0.121 A 
HETATM   25  N   UNL     1       4.885   6.029  31.095  0.00  0.00    -0.334 N 
HETATM   26  N   UNL     1       3.610   5.936  29.276  0.00  0.00    -0.239 NA
HETATM   27  C   UNL     1       4.807   5.699  29.770  0.00  0.00     0.209 A 
HETATM   28  H   UNL     1       5.689   5.948  31.699  0.00  0.00     0.168 HD
ENDBRANCH  15  18
ENDBRANCH   7  14
BRANCH   1  29
HETATM   29  C   UNL     1       0.167  11.692  24.145  0.00  0.00    -0.007 C 
HETATM   30  C   UNL     1       1.153  12.647  24.386  0.00  0.00     0.027 C 
HETATM   31  C   UNL     1       1.810  13.309  23.344  0.00  0.00    -0.007 A 
HETATM   32  C   UNL     1       2.996  14.023  23.579  0.00  0.00     0.014 A 
HETATM   33  C   UNL     1       1.277  13.202  22.051  0.00  0.00     0.066 A 
HETATM   34  C   UNL     1       3.639  14.675  22.534  0.00  0.00     0.001 A 
HETATM   35  C   UNL     1       3.066  14.659  21.267  0.00  0.00     0.002 A 
HETATM   36  C   UNL     1       1.894  13.928  21.038  0.00  0.00     0.032 A 
HETATM   37  N   UNL     1       0.221  12.408  21.794  0.00  0.00    -0.259 NA
HETATM   38  C   UNL     1      -0.266  11.650  22.817  0.00  0.00     0.129 C 
ENDBRANCH   1  29
TORSDOF 3
ENDMDL
