MODEL 1
REMARK VINA RESULT:    -8.117      0.000      0.000
REMARK INTER + INTRA:         -12.906
REMARK INTER:                 -11.321
REMARK INTRA:                  -1.585
REMARK UNBOUND:                -1.942
REMARK  7 active torsions:
REMARK  status: ('A' for Active; 'I' for Inactive)
REMARK    1  A    between atoms: C_7  and  N_8 
REMARK    2  A    between atoms: C_12  and  C_13 
REMARK    3  A    between atoms: C_14  and  O_15 
REMARK    4  A    between atoms: C_17  and  O_18 
REMARK    5  A    between atoms: C_20  and  C_21 
REMARK       I    between atoms: C_21  and  N_23 
REMARK    6  A    between atoms: N_23  and  C_25 
REMARK    7  A    between atoms: C_25  and  C_26 
ROOT
HETATM    1  C   UNL     1       7.015  13.682  21.844  0.00  0.00     0.027 A 
HETATM    2  C   UNL     1       5.951  14.222  22.601  0.00  0.00     0.081 A 
HETATM    3  C   UNL     1       4.673  13.667  22.590  0.00  0.00     0.075 A 
HETATM    4  C   UNL     1       4.432  12.492  21.887  0.00  0.00     0.084 A 
HETATM    5  C   UNL     1       6.700  12.550  21.052  0.00  0.00     0.036 A 
HETATM    6  C   UNL     1       5.448  11.892  21.117  0.00  0.00     0.066 A 
ENDROOT
BRANCH   1   7
HETATM    7  C   UNL     1       8.385  14.278  21.893  0.00  0.00     0.073 A 
HETATM    8  N   UNL     1       9.643  13.688  22.200  0.00  0.00    -0.233 N 
HETATM    9  N   UNL     1      10.629  14.631  22.188  0.00  0.00    -0.179 NA
HETATM   10  C   UNL     1      10.054  15.771  21.859  0.00  0.00     0.141 A 
HETATM   11  C   UNL     1       8.703  15.606  21.599  0.00  0.00     0.053 A 
BRANCH   8  12
HETATM   12  C   UNL     1      10.045  12.373  22.630  0.00  0.00     0.065 A 
HETATM   13  C   UNL     1       9.633  11.855  23.894  0.00  0.00    -0.033 A 
HETATM   14  C   UNL     1       8.891  12.644  24.948  0.00  0.00     0.050 C 
HETATM   15  C   UNL     1       9.917  10.513  24.214  0.00  0.00     0.009 A 
HETATM   16  C   UNL     1      10.628   9.700  23.337  0.00  0.00     0.001 A 
HETATM   17  C   UNL     1      11.061  10.215  22.123  0.00  0.00     0.002 A 
HETATM   18  C   UNL     1      10.753  11.530  21.761  0.00  0.00     0.032 A 
ENDBRANCH   8  12
ENDBRANCH   1   7
BRANCH   2  19
HETATM   19  O   UNL     1       6.070  15.303  23.440  0.00  0.00    -0.360 OA
HETATM   20  H   UNL     1       5.384  15.233  24.124  0.00  0.00     0.217 HD
ENDBRANCH   2  19
BRANCH   6  21
HETATM   21  C   UNL     1       5.283  10.452  20.686  0.00  0.00     0.256 C 
HETATM   22  O   UNL     1       5.383   9.599  21.573  0.00  0.00    -0.267 OA
HETATM   23  N   UNL     1       5.157  10.056  19.349  0.00  0.00    -0.346 N 
HETATM   24  C   UNL     1       4.991  10.929  18.200  0.00  0.00     0.153 C 
BRANCH  23  25
HETATM   25  C   UNL     1       5.357   8.633  19.047  0.00  0.00     0.190 C 
BRANCH  25  26
HETATM   26  C   UNL     1       4.406   8.124  18.017  0.00  0.00     0.070 A 
HETATM   27  O   UNL     1       3.094   8.026  18.397  0.00  0.00    -0.325 OA
HETATM   28  C   UNL     1       2.386   7.654  17.298  0.00  0.00     0.142 A 
HETATM   29  C   UNL     1       3.220   7.501  16.215  0.00  0.00     0.027 A 
HETATM   30  C   UNL     1       4.526   7.806  16.679  0.00  0.00     0.036 A 
ENDBRANCH  25  26
ENDBRANCH  23  25
ENDBRANCH   6  21
BRANCH   4  31
HETATM   31  O   UNL     1       3.176  11.953  21.967  0.00  0.00    -0.360 OA
HETATM   32  H   UNL     1       3.064  11.269  21.285  0.00  0.00     0.217 HD
ENDBRANCH   4  31
TORSDOF 7
ENDMDL
MODEL 2
REMARK VINA RESULT:    -7.837      3.675      5.956
REMARK INTER + INTRA:         -12.529
REMARK INTER:                 -10.719
REMARK INTRA:                  -1.810
REMARK UNBOUND:                -1.942
REMARK  7 active torsions:
REMARK  status: ('A' for Active; 'I' for Inactive)
REMARK    1  A    between atoms: C_7  and  N_8 
REMARK    2  A    between atoms: C_12  and  C_13 
REMARK    3  A    between atoms: C_14  and  O_15 
REMARK    4  A    between atoms: C_17  and  O_18 
REMARK    5  A    between atoms: C_20  and  C_21 
REMARK       I    between atoms: C_21  and  N_23 
REMARK    6  A    between atoms: N_23  and  C_25 
REMARK    7  A    between atoms: C_25  and  C_26 
ROOT
HETATM    1  C   UNL     1       8.965  11.366  24.537  0.00  0.00     0.027 A 
HETATM    2  C   UNL     1       9.677  10.266  24.008  0.00  0.00     0.081 A 
HETATM    3  C   UNL     1       9.039   9.198  23.381  0.00  0.00     0.075 A 
HETATM    4  C   UNL     1       7.664   9.232  23.179  0.00  0.00     0.084 A 
HETATM    5  C   UNL     1       7.555  11.309  24.410  0.00  0.00     0.036 A 
HETATM    6  C   UNL     1       6.890  10.301  23.671  0.00  0.00     0.066 A 
ENDROOT
BRANCH   1   7
HETATM    7  C   UNL     1       9.673  12.514  25.181  0.00  0.00     0.073 A 
HETATM    8  N   UNL     1       9.341  13.897  25.234  0.00  0.00    -0.233 N 
HETATM    9  N   UNL     1      10.318  14.599  25.878  0.00  0.00    -0.179 NA
HETATM   10  C   UNL     1      11.224  13.720  26.255  0.00  0.00     0.141 A 
HETATM   11  C   UNL     1      10.854  12.426  25.922  0.00  0.00     0.053 A 
BRANCH   8  12
HETATM   12  C   UNL     1       8.286  14.688  24.652  0.00  0.00     0.065 A 
HETATM   13  C   UNL     1       8.326  15.071  23.278  0.00  0.00    -0.033 A 
HETATM   14  C   UNL     1       9.496  14.834  22.351  0.00  0.00     0.050 C 
HETATM   15  C   UNL     1       7.208  15.711  22.709  0.00  0.00     0.009 A 
HETATM   16  C   UNL     1       6.088  16.016  23.474  0.00  0.00     0.001 A 
HETATM   17  C   UNL     1       6.064  15.678  24.821  0.00  0.00     0.002 A 
HETATM   18  C   UNL     1       7.142  14.999  25.400  0.00  0.00     0.032 A 
ENDBRANCH   8  12
ENDBRANCH   1   7
BRANCH   2  19
HETATM   19  O   UNL     1      11.046  10.155  24.020  0.00  0.00    -0.360 OA
HETATM   20  H   UNL     1      11.361  10.183  23.102  0.00  0.00     0.217 HD
ENDBRANCH   2  19
BRANCH   6  21
HETATM   21  C   UNL     1       5.496  10.507  23.121  0.00  0.00     0.256 C 
HETATM   22  O   UNL     1       5.419  10.943  21.968  0.00  0.00    -0.267 OA
HETATM   23  N   UNL     1       4.335  10.351  23.887  0.00  0.00    -0.346 N 
HETATM   24  C   UNL     1       4.251   9.817  25.235  0.00  0.00     0.153 C 
BRANCH  23  25
HETATM   25  C   UNL     1       3.091  10.913  23.344  0.00  0.00     0.190 C 
BRANCH  25  26
HETATM   26  C   UNL     1       2.832  12.302  23.822  0.00  0.00     0.070 A 
HETATM   27  O   UNL     1       1.602  12.828  23.525  0.00  0.00    -0.325 OA
HETATM   28  C   UNL     1       1.527  14.040  24.134  0.00  0.00     0.142 A 
HETATM   29  C   UNL     1       2.692  14.312  24.815  0.00  0.00     0.027 A 
HETATM   30  C   UNL     1       3.535  13.189  24.613  0.00  0.00     0.036 A 
ENDBRANCH  25  26
ENDBRANCH  23  25
ENDBRANCH   6  21
BRANCH   4  31
HETATM   31  O   UNL     1       7.099   8.188  22.496  0.00  0.00    -0.360 OA
HETATM   32  H   UNL     1       6.499   7.695  23.081  0.00  0.00     0.217 HD
ENDBRANCH   4  31
TORSDOF 7
ENDMDL
MODEL 3
REMARK VINA RESULT:    -7.730      2.479      4.768
REMARK INTER + INTRA:         -12.384
REMARK INTER:                 -10.689
REMARK INTRA:                  -1.695
REMARK UNBOUND:                -1.942
REMARK  7 active torsions:
REMARK  status: ('A' for Active; 'I' for Inactive)
REMARK    1  A    between atoms: C_7  and  N_8 
REMARK    2  A    between atoms: C_12  and  C_13 
REMARK    3  A    between atoms: C_14  and  O_15 
REMARK    4  A    between atoms: C_17  and  O_18 
REMARK    5  A    between atoms: C_20  and  C_21 
REMARK       I    between atoms: C_21  and  N_23 
REMARK    6  A    between atoms: N_23  and  C_25 
REMARK    7  A    between atoms: C_25  and  C_26 
ROOT
HETATM    1  C   UNL     1       9.475  11.739  24.625  0.00  0.00     0.027 A 
HETATM    2  C   UNL     1      10.422  10.864  24.047  0.00  0.00     0.081 A 
HETATM    3  C   UNL     1      10.046   9.746  23.305  0.00  0.00     0.075 A 
HETATM    4  C   UNL     1       8.703   9.511  23.035  0.00  0.00     0.084 A 
HETATM    5  C   UNL     1       8.114  11.402  24.421  0.00  0.00     0.036 A 
HETATM    6  C   UNL     1       7.703  10.347  23.569  0.00  0.00     0.066 A 
ENDROOT
BRANCH   1   7
HETATM    7  C   UNL     1       9.901  12.948  25.395  0.00  0.00     0.073 A 
HETATM    8  N   UNL     1       9.336  14.252  25.462  0.00  0.00    -0.233 N 
HETATM    9  N   UNL     1      10.101  15.065  26.246  0.00  0.00    -0.179 NA
HETATM   10  C   UNL     1      11.095  14.325  26.696  0.00  0.00     0.141 A 
HETATM   11  C   UNL     1      10.989  13.010  26.269  0.00  0.00     0.053 A 
BRANCH   8  12
HETATM   12  C   UNL     1       8.234  14.893  24.789  0.00  0.00     0.065 A 
HETATM   13  C   UNL     1       8.331  15.272  23.417  0.00  0.00    -0.033 A 
HETATM   14  C   UNL     1       9.592  15.190  22.587  0.00  0.00     0.050 C 
HETATM   15  C   UNL     1       7.186  15.755  22.754  0.00  0.00     0.009 A 
HETATM   16  C   UNL     1       5.979  15.910  23.425  0.00  0.00     0.001 A 
HETATM   17  C   UNL     1       5.894  15.577  24.770  0.00  0.00     0.002 A 
HETATM   18  C   UNL     1       7.003  15.051  25.441  0.00  0.00     0.032 A 
ENDBRANCH   8  12
ENDBRANCH   1   7
BRANCH   2  19
HETATM   19  O   UNL     1      11.782  11.039  24.122  0.00  0.00    -0.360 OA
HETATM   20  H   UNL     1      12.016  11.200  25.051  0.00  0.00     0.217 HD
ENDBRANCH   2  19
BRANCH   6  21
HETATM   21  C   UNL     1       6.317  10.306  22.966  0.00  0.00     0.256 C 
HETATM   22  O   UNL     1       5.576   9.397  23.352  0.00  0.00    -0.267 OA
HETATM   23  N   UNL     1       5.904  11.149  21.928  0.00  0.00    -0.346 N 
HETATM   24  C   UNL     1       6.636  12.282  21.387  0.00  0.00     0.153 C 
BRANCH  23  25
HETATM   25  C   UNL     1       4.680  10.777  21.206  0.00  0.00     0.190 C 
BRANCH  25  26
HETATM   26  C   UNL     1       4.961  10.135  19.890  0.00  0.00     0.070 A 
HETATM   27  O   UNL     1       4.335  10.681  18.801  0.00  0.00    -0.325 OA
HETATM   28  C   UNL     1       4.801  10.031  17.702  0.00  0.00     0.142 A 
HETATM   29  C   UNL     1       5.715   9.068  18.063  0.00  0.00     0.027 A 
HETATM   30  C   UNL     1       5.819   9.135  19.476  0.00  0.00     0.036 A 
ENDBRANCH  25  26
ENDBRANCH  23  25
ENDBRANCH   6  21
BRANCH   4  31
HETATM   31  O   UNL     1       8.396   8.437  22.242  0.00  0.00    -0.360 OA
HETATM   32  H   UNL     1       9.030   7.717  22.399  0.00  0.00     0.217 HD
ENDBRANCH   4  31
TORSDOF 7
ENDMDL
MODEL 4
REMARK VINA RESULT:    -7.675      1.834      2.551
REMARK INTER + INTRA:         -12.309
REMARK INTER:                 -10.577
REMARK INTRA:                  -1.732
REMARK UNBOUND:                -1.942
REMARK  7 active torsions:
REMARK  status: ('A' for Active; 'I' for Inactive)
REMARK    1  A    between atoms: C_7  and  N_8 
REMARK    2  A    between atoms: C_12  and  C_13 
REMARK    3  A    between atoms: C_14  and  O_15 
REMARK    4  A    between atoms: C_17  and  O_18 
REMARK    5  A    between atoms: C_20  and  C_21 
REMARK       I    between atoms: C_21  and  N_23 
REMARK    6  A    between atoms: N_23  and  C_25 
REMARK    7  A    between atoms: C_25  and  C_26 
ROOT
HETATM    1  C   UNL     1       6.944  14.225  22.206  0.00  0.00     0.027 A 
HETATM    2  C   UNL     1       6.001  14.933  22.985  0.00  0.00     0.081 A 
HETATM    3  C   UNL     1       4.671  14.531  23.090  0.00  0.00     0.075 A 
HETATM    4  C   UNL     1       4.253  13.349  22.489  0.00  0.00     0.084 A 
HETATM    5  C   UNL     1       6.452  13.088  21.519  0.00  0.00     0.036 A 
HETATM    6  C   UNL     1       5.141  12.586  21.705  0.00  0.00     0.066 A 
ENDROOT
BRANCH   1   7
HETATM    7  C   UNL     1       8.373  14.660  22.130  0.00  0.00     0.073 A 
HETATM    8  N   UNL     1       9.574  13.952  22.416  0.00  0.00    -0.233 N 
HETATM    9  N   UNL     1      10.656  14.770  22.272  0.00  0.00    -0.179 NA
HETATM   10  C   UNL     1      10.192  15.940  21.882  0.00  0.00     0.141 A 
HETATM   11  C   UNL     1       8.817  15.915  21.710  0.00  0.00     0.053 A 
BRANCH   8  12
HETATM   12  C   UNL     1       9.853  12.635  22.930  0.00  0.00     0.065 A 
HETATM   13  C   UNL     1       9.404  12.242  24.227  0.00  0.00    -0.033 A 
HETATM   14  C   UNL     1       8.748  13.165  25.228  0.00  0.00     0.050 C 
HETATM   15  C   UNL     1       9.562  10.903  24.634  0.00  0.00     0.009 A 
HETATM   16  C   UNL     1      10.186   9.971  23.811  0.00  0.00     0.001 A 
HETATM   17  C   UNL     1      10.656  10.362  22.565  0.00  0.00     0.002 A 
HETATM   18  C   UNL     1      10.471  11.675  22.117  0.00  0.00     0.032 A 
ENDBRANCH   8  12
ENDBRANCH   1   7
BRANCH   2  19
HETATM   19  O   UNL     1       6.297  16.045  23.735  0.00  0.00    -0.360 OA
HETATM   20  H   UNL     1       6.274  15.793  24.672  0.00  0.00     0.217 HD
ENDBRANCH   2  19
BRANCH   6  21
HETATM   21  C   UNL     1       4.787  11.149  21.391  0.00  0.00     0.256 C 
HETATM   22  O   UNL     1       4.057  10.573  22.203  0.00  0.00    -0.267 OA
HETATM   23  N   UNL     1       5.343  10.435  20.323  0.00  0.00    -0.346 N 
HETATM   24  C   UNL     1       6.184  10.970  19.267  0.00  0.00     0.153 C 
BRANCH  23  25
HETATM   25  C   UNL     1       5.190   8.974  20.339  0.00  0.00     0.190 C 
BRANCH  25  26
HETATM   26  C   UNL     1       6.272   8.292  21.106  0.00  0.00     0.070 A 
HETATM   27  O   UNL     1       6.607   7.030  20.691  0.00  0.00    -0.325 OA
HETATM   28  C   UNL     1       7.671   6.633  21.438  0.00  0.00     0.142 A 
HETATM   29  C   UNL     1       8.025   7.614  22.335  0.00  0.00     0.027 A 
HETATM   30  C   UNL     1       7.121   8.686  22.120  0.00  0.00     0.036 A 
ENDBRANCH  25  26
ENDBRANCH  23  25
ENDBRANCH   6  21
BRANCH   4  31
HETATM   31  O   UNL     1       2.952  12.966  22.683  0.00  0.00    -0.360 OA
HETATM   32  H   UNL     1       2.419  13.732  22.959  0.00  0.00     0.217 HD
ENDBRANCH   4  31
TORSDOF 7
ENDMDL
MODEL 5
REMARK VINA RESULT:    -7.639      2.433      3.566
REMARK INTER + INTRA:         -12.261
REMARK INTER:                 -11.240
REMARK INTRA:                  -1.021
REMARK UNBOUND:                -1.942
REMARK  7 active torsions:
REMARK  status: ('A' for Active; 'I' for Inactive)
REMARK    1  A    between atoms: C_7  and  N_8 
REMARK    2  A    between atoms: C_12  and  C_13 
REMARK    3  A    between atoms: C_14  and  O_15 
REMARK    4  A    between atoms: C_17  and  O_18 
REMARK    5  A    between atoms: C_20  and  C_21 
REMARK       I    between atoms: C_21  and  N_23 
REMARK    6  A    between atoms: N_23  and  C_25 
REMARK    7  A    between atoms: C_25  and  C_26 
ROOT
HETATM    1  C   UNL     1       5.929  12.527  22.531  0.00  0.00     0.027 A 
HETATM    2  C   UNL     1       6.715  11.707  23.372  0.00  0.00     0.081 A 
HETATM    3  C   UNL     1       7.121  10.428  22.996  0.00  0.00     0.075 A 
HETATM    4  C   UNL     1       6.830   9.953  21.723  0.00  0.00     0.084 A 
HETATM    5  C   UNL     1       5.559  11.962  21.285  0.00  0.00     0.036 A 
HETATM    6  C   UNL     1       6.059  10.719  20.827  0.00  0.00     0.066 A 
ENDROOT
BRANCH   1   7
HETATM    7  C   UNL     1       5.528  13.907  22.944  0.00  0.00     0.073 A 
HETATM    8  N   UNL     1       6.310  15.078  23.148  0.00  0.00    -0.233 N 
HETATM    9  N   UNL     1       5.527  16.104  23.590  0.00  0.00    -0.179 NA
HETATM   10  C   UNL     1       4.294  15.640  23.641  0.00  0.00     0.141 A 
HETATM   11  C   UNL     1       4.221  14.331  23.193  0.00  0.00     0.053 A 
BRANCH   8  12
HETATM   12  C   UNL     1       7.725  15.347  23.108  0.00  0.00     0.065 A 
HETATM   13  C   UNL     1       8.528  15.238  24.282  0.00  0.00    -0.033 A 
HETATM   14  C   UNL     1       7.991  14.989  25.673  0.00  0.00     0.050 C 
HETATM   15  C   UNL     1       9.927  15.360  24.174  0.00  0.00     0.009 A 
HETATM   16  C   UNL     1      10.532  15.628  22.950  0.00  0.00     0.001 A 
HETATM   17  C   UNL     1       9.748  15.771  21.814  0.00  0.00     0.002 A 
HETATM   18  C   UNL     1       8.360  15.609  21.885  0.00  0.00     0.032 A 
ENDBRANCH   8  12
ENDBRANCH   1   7
BRANCH   2  19
HETATM   19  O   UNL     1       7.184  12.090  24.605  0.00  0.00    -0.360 OA
HETATM   20  H   UNL     1       8.082  11.734  24.712  0.00  0.00     0.217 HD
ENDBRANCH   2  19
BRANCH   6  21
HETATM   21  C   UNL     1       6.081  10.364  19.357  0.00  0.00     0.256 C 
HETATM   22  O   UNL     1       6.763  11.090  18.627  0.00  0.00    -0.267 OA
HETATM   23  N   UNL     1       5.284   9.360  18.794  0.00  0.00    -0.346 N 
HETATM   24  C   UNL     1       4.460   8.403  19.512  0.00  0.00     0.153 C 
BRANCH  23  25
HETATM   25  C   UNL     1       5.141   9.356  17.333  0.00  0.00     0.190 C 
BRANCH  25  26
HETATM   26  C   UNL     1       4.276   8.243  16.843  0.00  0.00     0.070 A 
HETATM   27  O   UNL     1       2.938   8.514  16.739  0.00  0.00    -0.325 OA
HETATM   28  C   UNL     1       2.350   7.423  16.180  0.00  0.00     0.142 A 
HETATM   29  C   UNL     1       3.287   6.447  15.927  0.00  0.00     0.027 A 
HETATM   30  C   UNL     1       4.531   6.977  16.355  0.00  0.00     0.036 A 
ENDBRANCH  25  26
ENDBRANCH  23  25
ENDBRANCH   6  21
BRANCH   4  31
HETATM   31  O   UNL     1       7.314   8.717  21.383  0.00  0.00    -0.360 OA
HETATM   32  H   UNL     1       7.103   8.523  20.454  0.00  0.00     0.217 HD
ENDBRANCH   4  31
TORSDOF 7
ENDMDL
MODEL 6
REMARK VINA RESULT:    -7.583      3.675      7.794
REMARK INTER + INTRA:         -12.185
REMARK INTER:                 -10.587
REMARK INTRA:                  -1.598
REMARK UNBOUND:                -1.942
REMARK  7 active torsions:
REMARK  status: ('A' for Active; 'I' for Inactive)
REMARK    1  A    between atoms: C_7  and  N_8 
REMARK    2  A    between atoms: C_12  and  C_13 
REMARK    3  A    between atoms: C_14  and  O_15 
REMARK    4  A    between atoms: C_17  and  O_18 
REMARK    5  A    between atoms: C_20  and  C_21 
REMARK       I    between atoms: C_21  and  N_23 
REMARK    6  A    between atoms: N_23  and  C_25 
REMARK    7  A    between atoms: C_25  and  C_26 
ROOT
HETATM    1  C   UNL     1       7.255   9.805  23.723  0.00  0.00     0.027 A 
HETATM    2  C   UNL     1       7.879   8.554  23.931  0.00  0.00     0.081 A 
HETATM    3  C   UNL     1       9.264   8.400  23.900  0.00  0.00     0.075 A 
HETATM    4  C   UNL     1      10.083   9.512  23.748  0.00  0.00     0.084 A 
HETATM    5  C   UNL     1       8.122  10.894  23.460  0.00  0.00     0.036 A 
HETATM    6  C   UNL     1       9.532  10.792  23.546  0.00  0.00     0.066 A 
ENDROOT
BRANCH   1   7
HETATM    7  C   UNL     1       5.768   9.953  23.788  0.00  0.00     0.073 A 
HETATM    8  N   UNL     1       4.949  11.116  23.750  0.00  0.00    -0.233 N 
HETATM    9  N   UNL     1       3.636  10.781  23.909  0.00  0.00    -0.179 NA
HETATM   10  C   UNL     1       3.594   9.468  24.011  0.00  0.00     0.141 A 
HETATM   11  C   UNL     1       4.852   8.902  23.875  0.00  0.00     0.053 A 
BRANCH   8  12
HETATM   12  C   UNL     1       5.231  12.528  23.711  0.00  0.00     0.065 A 
HETATM   13  C   UNL     1       5.549  13.181  22.482  0.00  0.00    -0.033 A 
HETATM   14  C   UNL     1       5.768  12.475  21.164  0.00  0.00     0.050 C 
HETATM   15  C   UNL     1       5.668  14.584  22.458  0.00  0.00     0.009 A 
HETATM   16  C   UNL     1       5.525  15.337  23.618  0.00  0.00     0.001 A 
HETATM   17  C   UNL     1       5.253  14.700  24.821  0.00  0.00     0.002 A 
HETATM   18  C   UNL     1       5.083  13.311  24.865  0.00  0.00     0.032 A 
ENDBRANCH   8  12
ENDBRANCH   1   7
BRANCH   2  19
HETATM   19  O   UNL     1       7.205   7.393  24.218  0.00  0.00    -0.360 OA
HETATM   20  H   UNL     1       7.316   7.203  25.164  0.00  0.00     0.217 HD
ENDBRANCH   2  19
BRANCH   6  21
HETATM   21  C   UNL     1      10.406  12.006  23.765  0.00  0.00     0.256 C 
HETATM   22  O   UNL     1      10.392  12.496  24.898  0.00  0.00    -0.267 OA
HETATM   23  N   UNL     1      11.101  12.651  22.735  0.00  0.00    -0.346 N 
HETATM   24  C   UNL     1      11.247  12.189  21.365  0.00  0.00     0.153 C 
BRANCH  23  25
HETATM   25  C   UNL     1      11.616  13.998  23.012  0.00  0.00     0.190 C 
BRANCH  25  26
HETATM   26  C   UNL     1      10.680  15.073  22.572  0.00  0.00     0.070 A 
HETATM   27  O   UNL     1      11.229  16.100  21.852  0.00  0.00    -0.325 OA
HETATM   28  C   UNL     1      10.208  16.906  21.460  0.00  0.00     0.142 A 
HETATM   29  C   UNL     1       9.006  16.420  21.921  0.00  0.00     0.027 A 
HETATM   30  C   UNL     1       9.311  15.236  22.639  0.00  0.00     0.036 A 
ENDBRANCH  25  26
ENDBRANCH  23  25
ENDBRANCH   6  21
BRANCH   4  31
HETATM   31  O   UNL     1      11.437   9.310  23.795  0.00  0.00    -0.360 OA
HETATM   32  H   UNL     1      11.688   8.598  23.181  0.00  0.00     0.217 HD
ENDBRANCH   4  31
TORSDOF 7
ENDMDL
MODEL 7
REMARK VINA RESULT:    -7.489      2.742      7.778
REMARK INTER + INTRA:         -12.058
REMARK INTER:                 -10.116
REMARK INTRA:                  -1.942
REMARK UNBOUND:                -1.942
REMARK  7 active torsions:
REMARK  status: ('A' for Active; 'I' for Inactive)
REMARK    1  A    between atoms: C_7  and  N_8 
REMARK    2  A    between atoms: C_12  and  C_13 
REMARK    3  A    between atoms: C_14  and  O_15 
REMARK    4  A    between atoms: C_17  and  O_18 
REMARK    5  A    between atoms: C_20  and  C_21 
REMARK       I    between atoms: C_21  and  N_23 
REMARK    6  A    between atoms: N_23  and  C_25 
REMARK    7  A    between atoms: C_25  and  C_26 
ROOT
HETATM    1  C   UNL     1       7.235   9.640  23.644  0.00  0.00     0.027 A 
HETATM    2  C   UNL     1       7.902   8.419  23.886  0.00  0.00     0.081 A 
HETATM    3  C   UNL     1       9.292   8.324  23.922  0.00  0.00     0.075 A 
HETATM    4  C   UNL     1      10.069   9.471  23.805  0.00  0.00     0.084 A 
HETATM    5  C   UNL     1       8.065  10.766  23.418  0.00  0.00     0.036 A 
HETATM    6  C   UNL     1       9.473  10.725  23.572  0.00  0.00     0.066 A 
ENDROOT
BRANCH   1   7
HETATM    7  C   UNL     1       5.742   9.723  23.637  0.00  0.00     0.073 A 
HETATM    8  N   UNL     1       4.826   9.879  22.558  0.00  0.00    -0.233 N 
HETATM    9  N   UNL     1       3.549   9.973  23.027  0.00  0.00    -0.179 NA
HETATM   10  C   UNL     1       3.619   9.852  24.337  0.00  0.00     0.141 A 
HETATM   11  C   UNL     1       4.919   9.627  24.761  0.00  0.00     0.053 A 
BRANCH   8  12
HETATM   12  C   UNL     1       4.986  10.080  21.141  0.00  0.00     0.065 A 
HETATM   13  C   UNL     1       5.303  11.367  20.611  0.00  0.00    -0.033 A 
HETATM   14  C   UNL     1       5.353  12.643  21.421  0.00  0.00     0.050 C 
HETATM   15  C   UNL     1       5.601  11.494  19.241  0.00  0.00     0.009 A 
HETATM   16  C   UNL     1       5.549  10.395  18.390  0.00  0.00     0.001 A 
HETATM   17  C   UNL     1       5.205   9.150  18.897  0.00  0.00     0.002 A 
HETATM   18  C   UNL     1       4.949   8.987  20.263  0.00  0.00     0.032 A 
ENDBRANCH   8  12
ENDBRANCH   1   7
BRANCH   2  19
HETATM   19  O   UNL     1       7.267   7.229  24.144  0.00  0.00    -0.360 OA
HETATM   20  H   UNL     1       6.382   7.427  24.493  0.00  0.00     0.217 HD
ENDBRANCH   2  19
BRANCH   6  21
HETATM   21  C   UNL     1      10.281  11.977  23.828  0.00  0.00     0.256 C 
HETATM   22  O   UNL     1      10.197  12.464  24.960  0.00  0.00    -0.267 OA
HETATM   23  N   UNL     1      10.991  12.654  22.829  0.00  0.00    -0.346 N 
HETATM   24  C   UNL     1      11.216  12.201  21.467  0.00  0.00     0.153 C 
BRANCH  23  25
HETATM   25  C   UNL     1      11.433  14.023  23.128  0.00  0.00     0.190 C 
BRANCH  25  26
HETATM   26  C   UNL     1      10.502  15.057  22.591  0.00  0.00     0.070 A 
HETATM   27  O   UNL     1      11.076  16.098  21.911  0.00  0.00    -0.325 OA
HETATM   28  C   UNL     1      10.066  16.861  21.417  0.00  0.00     0.142 A 
HETATM   29  C   UNL     1       8.845  16.334  21.773  0.00  0.00     0.027 A 
HETATM   30  C   UNL     1       9.127  15.169  22.531  0.00  0.00     0.036 A 
ENDBRANCH  25  26
ENDBRANCH  23  25
ENDBRANCH   6  21
BRANCH   4  31
HETATM   31  O   UNL     1      11.427   9.329  23.917  0.00  0.00    -0.360 OA
HETATM   32  H   UNL     1      11.871  10.141  23.618  0.00  0.00     0.217 HD
ENDBRANCH   4  31
TORSDOF 7
ENDMDL
MODEL 8
REMARK VINA RESULT:    -7.476      2.128      3.535
REMARK INTER + INTRA:         -12.041
REMARK INTER:                 -10.498
REMARK INTRA:                  -1.544
REMARK UNBOUND:                -1.942
REMARK  7 active torsions:
REMARK  status: ('A' for Active; 'I' for Inactive)
REMARK    1  A    between atoms: C_7  and  N_8 
REMARK    2  A    between atoms: C_12  and  C_13 
REMARK    3  A    between atoms: C_14  and  O_15 
REMARK    4  A    between atoms: C_17  and  O_18 
REMARK    5  A    between atoms: C_20  and  C_21 
REMARK       I    between atoms: C_21  and  N_23 
REMARK    6  A    between atoms: N_23  and  C_25 
REMARK    7  A    between atoms: C_25  and  C_26 
ROOT
HETATM    1  C   UNL     1       7.437  11.219  21.394  0.00  0.00     0.027 A 
HETATM    2  C   UNL     1       7.191  10.098  22.219  0.00  0.00     0.081 A 
HETATM    3  C   UNL     1       6.104   9.250  22.017  0.00  0.00     0.075 A 
HETATM    4  C   UNL     1       5.268   9.441  20.923  0.00  0.00     0.084 A 
HETATM    5  C   UNL     1       6.498  11.444  20.357  0.00  0.00     0.036 A 
HETATM    6  C   UNL     1       5.458  10.532  20.052  0.00  0.00     0.066 A 
ENDROOT
BRANCH   1   7
HETATM    7  C   UNL     1       8.626  12.099  21.612  0.00  0.00     0.073 A 
HETATM    8  N   UNL     1       8.786  13.258  22.423  0.00  0.00    -0.233 N 
HETATM    9  N   UNL     1      10.035  13.784  22.262  0.00  0.00    -0.179 NA
HETATM   10  C   UNL     1      10.669  12.995  21.419  0.00  0.00     0.141 A 
HETATM   11  C   UNL     1       9.888  11.914  21.043  0.00  0.00     0.053 A 
BRANCH   8  12
HETATM   12  C   UNL     1       7.887  14.028  23.244  0.00  0.00     0.065 A 
HETATM   13  C   UNL     1       7.865  13.866  24.662  0.00  0.00    -0.033 A 
HETATM   14  C   UNL     1       8.637  12.811  25.420  0.00  0.00     0.050 C 
HETATM   15  C   UNL     1       7.085  14.741  25.443  0.00  0.00     0.009 A 
HETATM   16  C   UNL     1       6.303  15.727  24.852  0.00  0.00     0.001 A 
HETATM   17  C   UNL     1       6.294  15.860  23.470  0.00  0.00     0.002 A 
HETATM   18  C   UNL     1       7.096  15.035  22.674  0.00  0.00     0.032 A 
ENDBRANCH   8  12
ENDBRANCH   1   7
BRANCH   2  19
HETATM   19  O   UNL     1       8.001   9.712  23.259  0.00  0.00    -0.360 OA
HETATM   20  H   UNL     1       8.925   9.782  22.967  0.00  0.00     0.217 HD
ENDBRANCH   2  19
BRANCH   6  21
HETATM   21  C   UNL     1       4.800  10.503  18.691  0.00  0.00     0.256 C 
HETATM   22  O   UNL     1       3.894  11.321  18.501  0.00  0.00    -0.267 OA
HETATM   23  N   UNL     1       5.079   9.534  17.721  0.00  0.00    -0.346 N 
HETATM   24  C   UNL     1       6.129   8.532  17.773  0.00  0.00     0.153 C 
BRANCH  23  25
HETATM   25  C   UNL     1       4.134   9.410  16.603  0.00  0.00     0.190 C 
BRANCH  25  26
HETATM   26  C   UNL     1       3.241   8.223  16.733  0.00  0.00     0.070 A 
HETATM   27  O   UNL     1       2.722   7.986  17.978  0.00  0.00    -0.325 OA
HETATM   28  C   UNL     1       1.861   6.941  17.861  0.00  0.00     0.142 A 
HETATM   29  C   UNL     1       1.820   6.492  16.561  0.00  0.00     0.027 A 
HETATM   30  C   UNL     1       2.711   7.321  15.832  0.00  0.00     0.036 A 
ENDBRANCH  25  26
ENDBRANCH  23  25
ENDBRANCH   6  21
BRANCH   4  31
HETATM   31  O   UNL     1       4.257   8.537  20.735  0.00  0.00    -0.360 OA
HETATM   32  H   UNL     1       3.451   8.842  21.187  0.00  0.00     0.217 HD
ENDBRANCH   4  31
TORSDOF 7
ENDMDL
MODEL 9
REMARK VINA RESULT:    -7.455      2.422      3.307
REMARK INTER + INTRA:         -12.012
REMARK INTER:                 -10.219
REMARK INTRA:                  -1.793
REMARK UNBOUND:                -1.942
REMARK  7 active torsions:
REMARK  status: ('A' for Active; 'I' for Inactive)
REMARK    1  A    between atoms: C_7  and  N_8 
REMARK    2  A    between atoms: C_12  and  C_13 
REMARK    3  A    between atoms: C_14  and  O_15 
REMARK    4  A    between atoms: C_17  and  O_18 
REMARK    5  A    between atoms: C_20  and  C_21 
REMARK       I    between atoms: C_21  and  N_23 
REMARK    6  A    between atoms: N_23  and  C_25 
REMARK    7  A    between atoms: C_25  and  C_26 
ROOT
HETATM    1  C   UNL     1       7.090  14.278  22.173  0.00  0.00     0.027 A 
HETATM    2  C   UNL     1       6.088  14.931  22.926  0.00  0.00     0.081 A 
HETATM    3  C   UNL     1       4.797  14.421  23.045  0.00  0.00     0.075 A 
HETATM    4  C   UNL     1       4.483  13.188  22.488  0.00  0.00     0.084 A 
HETATM    5  C   UNL     1       6.699  13.080  21.528  0.00  0.00     0.036 A 
HETATM    6  C   UNL     1       5.434  12.475  21.732  0.00  0.00     0.066 A 
ENDROOT
BRANCH   1   7
HETATM    7  C   UNL     1       8.477  14.829  22.082  0.00  0.00     0.073 A 
HETATM    8  N   UNL     1       9.739  14.206  22.294  0.00  0.00    -0.233 N 
HETATM    9  N   UNL     1      10.748  15.115  22.165  0.00  0.00    -0.179 NA
HETATM   10  C   UNL     1      10.182  16.263  21.853  0.00  0.00     0.141 A 
HETATM   11  C   UNL     1       8.808  16.137  21.719  0.00  0.00     0.053 A 
BRANCH   8  12
HETATM   12  C   UNL     1      10.137  12.891  22.727  0.00  0.00     0.065 A 
HETATM   13  C   UNL     1       9.933  12.468  24.075  0.00  0.00    -0.033 A 
HETATM   14  C   UNL     1       9.441  13.359  25.192  0.00  0.00     0.050 C 
HETATM   15  C   UNL     1      10.194  11.128  24.423  0.00  0.00     0.009 A 
HETATM   16  C   UNL     1      10.687  10.226  23.487  0.00  0.00     0.001 A 
HETATM   17  C   UNL     1      10.920  10.646  22.185  0.00  0.00     0.002 A 
HETATM   18  C   UNL     1      10.626  11.959  21.801  0.00  0.00     0.032 A 
ENDBRANCH   8  12
ENDBRANCH   1   7
BRANCH   2  19
HETATM   19  O   UNL     1       6.287  16.091  23.635  0.00  0.00    -0.360 OA
HETATM   20  H   UNL     1       6.288  15.871  24.581  0.00  0.00     0.217 HD
ENDBRANCH   2  19
BRANCH   6  21
HETATM   21  C   UNL     1       5.205  11.004  21.470  0.00  0.00     0.256 C 
HETATM   22  O   UNL     1       4.308  10.721  20.669  0.00  0.00    -0.267 OA
HETATM   23  N   UNL     1       5.857   9.985  22.174  0.00  0.00    -0.346 N 
HETATM   24  C   UNL     1       6.952  10.145  23.115  0.00  0.00     0.153 C 
BRANCH  23  25
HETATM   25  C   UNL     1       5.296   8.631  22.072  0.00  0.00     0.190 C 
BRANCH  25  26
HETATM   26  C   UNL     1       4.961   8.046  23.403  0.00  0.00     0.070 A 
HETATM   27  O   UNL     1       3.913   8.620  24.072  0.00  0.00    -0.325 OA
HETATM   28  C   UNL     1       3.703   7.883  25.195  0.00  0.00     0.142 A 
HETATM   29  C   UNL     1       4.604   6.845  25.266  0.00  0.00     0.027 A 
HETATM   30  C   UNL     1       5.416   6.950  24.108  0.00  0.00     0.036 A 
ENDBRANCH  25  26
ENDBRANCH  23  25
ENDBRANCH   6  21
BRANCH   4  31
HETATM   31  O   UNL     1       3.218  12.704  22.695  0.00  0.00    -0.360 OA
HETATM   32  H   UNL     1       2.665  13.388  23.108  0.00  0.00     0.217 HD
ENDBRANCH   4  31
TORSDOF 7
ENDMDL
