MODEL 1
REMARK VINA RESULT:    -7.222      0.000      0.000
REMARK INTER + INTRA:          -9.149
REMARK INTER:                  -8.401
REMARK INTRA:                  -0.747
REMARK UNBOUND:                -0.660
REMARK  4 active torsions:
REMARK  status: ('A' for Active; 'I' for Inactive)
REMARK    1  A    between atoms: O_1  and  C_2 
REMARK    2  A    between atoms: C_5  and  C_6 
REMARK    3  A    between atoms: C_10  and  C_11 
REMARK    4  A    between atoms: C_17  and  O_18 
ROOT
HETATM    1  C   UNL     1       7.767  12.545  21.076  0.00  0.00     0.110 A 
HETATM    2  N   UNL     1       8.917  12.594  20.377  0.00  0.00    -0.127 NA
HETATM    3  O   UNL     1       9.369  13.891  20.454  0.00  0.00    -0.224 OA
HETATM    4  C   UNL     1       8.504  14.630  21.183  0.00  0.00     0.184 A 
HETATM    5  C   UNL     1       7.459  13.844  21.612  0.00  0.00     0.030 A 
ENDROOT
BRANCH   1   6
HETATM    6  C   UNL     1       7.007  11.288  21.151  0.00  0.00     0.029 A 
HETATM    7  C   UNL     1       6.776  10.665  22.390  0.00  0.00     0.019 A 
HETATM    8  C   UNL     1       5.890   9.588  22.502  0.00  0.00     0.037 A 
HETATM    9  C   UNL     1       5.263   9.099  21.363  0.00  0.00     0.068 A 
HETATM   10  C   UNL     1       5.551   9.630  20.111  0.00  0.00     0.074 A 
HETATM   11  C   UNL     1       6.429  10.709  20.006  0.00  0.00     0.081 A 
BRANCH   9  12
HETATM   12  O   UNL     1       4.347   8.092  21.441  0.00  0.00    -0.361 OA
HETATM   13  H   UNL     1       4.728   7.289  21.047  0.00  0.00     0.217 HD
ENDBRANCH   9  12
BRANCH  11  14
HETATM   14  O   UNL     1       6.668  11.162  18.736  0.00  0.00    -0.360 OA
HETATM   15  H   UNL     1       7.073  10.427  18.231  0.00  0.00     0.217 HD
ENDBRANCH  11  14
ENDBRANCH   1   6
BRANCH   5  16
HETATM   16  C   UNL     1       6.361  14.348  22.426  0.00  0.00    -0.022 A 
HETATM   17  C   UNL     1       6.525  15.477  23.242  0.00  0.00     0.012 A 
HETATM   18  C   UNL     1       5.429  16.062  23.881  0.00  0.00     0.001 A 
HETATM   19  C   UNL     1       4.165  15.489  23.761  0.00  0.00     0.000 A 
HETATM   20  C   UNL     1       4.002  14.321  23.020  0.00  0.00     0.001 A 
HETATM   21  C   UNL     1       5.092  13.755  22.354  0.00  0.00     0.012 A 
ENDBRANCH   5  16
TORSDOF 4
ENDMDL
MODEL 2
REMARK VINA RESULT:    -7.023      0.274      1.137
REMARK INTER + INTRA:          -8.915
REMARK INTER:                  -8.181
REMARK INTRA:                  -0.733
REMARK UNBOUND:                -0.660
REMARK  4 active torsions:
REMARK  status: ('A' for Active; 'I' for Inactive)
REMARK    1  A    between atoms: O_1  and  C_2 
REMARK    2  A    between atoms: C_5  and  C_6 
REMARK    3  A    between atoms: C_10  and  C_11 
REMARK    4  A    between atoms: C_17  and  O_18 
ROOT
HETATM    1  C   UNL     1       7.762  12.669  21.236  0.00  0.00     0.110 A 
HETATM    2  N   UNL     1       8.977  12.767  20.665  0.00  0.00    -0.127 NA
HETATM    3  O   UNL     1       9.371  14.078  20.801  0.00  0.00    -0.224 OA
HETATM    4  C   UNL     1       8.405  14.777  21.440  0.00  0.00     0.184 A 
HETATM    5  C   UNL     1       7.351  13.949  21.747  0.00  0.00     0.030 A 
ENDROOT
BRANCH   1   6
HETATM    6  C   UNL     1       7.045  11.385  21.218  0.00  0.00     0.029 A 
HETATM    7  C   UNL     1       6.784  10.695  22.415  0.00  0.00     0.019 A 
HETATM    8  C   UNL     1       5.933   9.584  22.437  0.00  0.00     0.037 A 
HETATM    9  C   UNL     1       5.374   9.129  21.249  0.00  0.00     0.068 A 
HETATM   10  C   UNL     1       5.697   9.729  20.038  0.00  0.00     0.074 A 
HETATM   11  C   UNL     1       6.538  10.842  20.023  0.00  0.00     0.081 A 
BRANCH   9  12
HETATM   12  O   UNL     1       4.493   8.089  21.239  0.00  0.00    -0.361 OA
HETATM   13  H   UNL     1       3.636   8.399  21.576  0.00  0.00     0.217 HD
ENDBRANCH   9  12
BRANCH  11  14
HETATM   14  O   UNL     1       6.815  11.364  18.787  0.00  0.00    -0.360 OA
HETATM   15  H   UNL     1       6.000  11.296  18.248  0.00  0.00     0.217 HD
ENDBRANCH  11  14
ENDBRANCH   1   6
BRANCH   5  16
HETATM   16  C   UNL     1       6.154  14.403  22.444  0.00  0.00    -0.022 A 
HETATM   17  C   UNL     1       4.953  13.684  22.362  0.00  0.00     0.012 A 
HETATM   18  C   UNL     1       3.863  14.021  23.168  0.00  0.00     0.001 A 
HETATM   19  C   UNL     1       3.940  15.119  24.022  0.00  0.00     0.000 A 
HETATM   20  C   UNL     1       5.098  15.890  24.053  0.00  0.00     0.001 A 
HETATM   21  C   UNL     1       6.200  15.534  23.272  0.00  0.00     0.012 A 
ENDBRANCH   5  16
TORSDOF 4
ENDMDL
MODEL 3
REMARK VINA RESULT:    -6.857      1.135      1.609
REMARK INTER + INTRA:          -8.720
REMARK INTER:                  -8.191
REMARK INTRA:                  -0.529
REMARK UNBOUND:                -0.660
REMARK  4 active torsions:
REMARK  status: ('A' for Active; 'I' for Inactive)
REMARK    1  A    between atoms: O_1  and  C_2 
REMARK    2  A    between atoms: C_5  and  C_6 
REMARK    3  A    between atoms: C_10  and  C_11 
REMARK    4  A    between atoms: C_17  and  O_18 
ROOT
HETATM    1  C   UNL     1       7.485  12.465  20.853  0.00  0.00     0.110 A 
HETATM    2  N   UNL     1       8.684  12.383  20.246  0.00  0.00    -0.127 NA
HETATM    3  O   UNL     1       9.370  13.529  20.574  0.00  0.00    -0.224 OA
HETATM    4  C   UNL     1       8.598  14.308  21.365  0.00  0.00     0.184 A 
HETATM    5  C   UNL     1       7.385  13.699  21.585  0.00  0.00     0.030 A 
ENDROOT
BRANCH   1   6
HETATM    6  C   UNL     1       6.492  11.397  20.661  0.00  0.00     0.029 A 
HETATM    7  C   UNL     1       5.675  11.379  19.517  0.00  0.00     0.019 A 
HETATM    8  C   UNL     1       4.874  10.271  19.220  0.00  0.00     0.037 A 
HETATM    9  C   UNL     1       4.852   9.191  20.093  0.00  0.00     0.068 A 
HETATM   10  C   UNL     1       5.570   9.226  21.282  0.00  0.00     0.074 A 
HETATM   11  C   UNL     1       6.374  10.329  21.569  0.00  0.00     0.081 A 
BRANCH   9  12
HETATM   12  O   UNL     1       4.133   8.069  19.808  0.00  0.00    -0.361 OA
HETATM   13  H   UNL     1       4.183   7.461  20.564  0.00  0.00     0.217 HD
ENDBRANCH   9  12
BRANCH  11  14
HETATM   14  O   UNL     1       7.037  10.289  22.767  0.00  0.00    -0.360 OA
HETATM   15  H   UNL     1       7.996  10.351  22.576  0.00  0.00     0.217 HD
ENDBRANCH  11  14
ENDBRANCH   1   6
BRANCH   5  16
HETATM   16  C   UNL     1       6.332  14.285  22.405  0.00  0.00    -0.022 A 
HETATM   17  C   UNL     1       6.543  15.483  23.103  0.00  0.00     0.012 A 
HETATM   18  C   UNL     1       5.483  16.134  23.740  0.00  0.00     0.001 A 
HETATM   19  C   UNL     1       4.213  15.563  23.739  0.00  0.00     0.000 A 
HETATM   20  C   UNL     1       4.007  14.334  23.119  0.00  0.00     0.001 A 
HETATM   21  C   UNL     1       5.059  13.699  22.453  0.00  0.00     0.012 A 
ENDBRANCH   5  16
TORSDOF 4
ENDMDL
MODEL 4
REMARK VINA RESULT:    -6.578      3.027      4.621
REMARK INTER + INTRA:          -8.391
REMARK INTER:                  -7.920
REMARK INTRA:                  -0.471
REMARK UNBOUND:                -0.660
REMARK  4 active torsions:
REMARK  status: ('A' for Active; 'I' for Inactive)
REMARK    1  A    between atoms: O_1  and  C_2 
REMARK    2  A    between atoms: C_5  and  C_6 
REMARK    3  A    between atoms: C_10  and  C_11 
REMARK    4  A    between atoms: C_17  and  O_18 
ROOT
HETATM    1  C   UNL     1       4.431  11.993  21.573  0.00  0.00     0.110 A 
HETATM    2  N   UNL     1       4.221  10.873  20.855  0.00  0.00    -0.127 NA
HETATM    3  O   UNL     1       5.398  10.599  20.198  0.00  0.00    -0.224 OA
HETATM    4  C   UNL     1       6.316  11.544  20.502  0.00  0.00     0.184 A 
HETATM    5  C   UNL     1       5.774  12.464  21.370  0.00  0.00     0.030 A 
ENDROOT
BRANCH   1   6
HETATM    6  C   UNL     1       3.335  12.573  22.363  0.00  0.00     0.029 A 
HETATM    7  C   UNL     1       3.465  12.734  23.754  0.00  0.00     0.019 A 
HETATM    8  C   UNL     1       2.524  13.465  24.487  0.00  0.00     0.037 A 
HETATM    9  C   UNL     1       1.420  14.001  23.837  0.00  0.00     0.068 A 
HETATM   10  C   UNL     1       1.214  13.771  22.482  0.00  0.00     0.074 A 
HETATM   11  C   UNL     1       2.160  13.049  21.754  0.00  0.00     0.081 A 
BRANCH   9  12
HETATM   12  O   UNL     1       0.514  14.771  24.505  0.00  0.00    -0.361 OA
HETATM   13  H   UNL     1       0.644  15.700  24.252  0.00  0.00     0.217 HD
ENDBRANCH   9  12
BRANCH  11  14
HETATM   14  O   UNL     1       1.874  12.856  20.429  0.00  0.00    -0.360 OA
HETATM   15  H   UNL     1       1.712  11.899  20.298  0.00  0.00     0.217 HD
ENDBRANCH  11  14
ENDBRANCH   1   6
BRANCH   5  16
HETATM   16  C   UNL     1       6.516  13.606  21.889  0.00  0.00    -0.022 A 
HETATM   17  C   UNL     1       7.872  13.788  21.581  0.00  0.00     0.012 A 
HETATM   18  C   UNL     1       8.531  14.969  21.930  0.00  0.00     0.001 A 
HETATM   19  C   UNL     1       7.859  15.957  22.647  0.00  0.00     0.000 A 
HETATM   20  C   UNL     1       6.536  15.754  23.030  0.00  0.00     0.001 A 
HETATM   21  C   UNL     1       5.867  14.587  22.652  0.00  0.00     0.012 A 
ENDBRANCH   5  16
TORSDOF 4
ENDMDL
MODEL 5
REMARK VINA RESULT:    -6.551      2.458      3.994
REMARK INTER + INTRA:          -8.360
REMARK INTER:                  -7.684
REMARK INTRA:                  -0.676
REMARK UNBOUND:                -0.660
REMARK  4 active torsions:
REMARK  status: ('A' for Active; 'I' for Inactive)
REMARK    1  A    between atoms: O_1  and  C_2 
REMARK    2  A    between atoms: C_5  and  C_6 
REMARK    3  A    between atoms: C_10  and  C_11 
REMARK    4  A    between atoms: C_17  and  O_18 
ROOT
HETATM    1  C   UNL     1       3.984  12.308  21.814  0.00  0.00     0.110 A 
HETATM    2  N   UNL     1       2.732  12.175  22.291  0.00  0.00    -0.127 NA
HETATM    3  O   UNL     1       2.573  13.144  23.255  0.00  0.00    -0.224 OA
HETATM    4  C   UNL     1       3.716  13.855  23.374  0.00  0.00     0.184 A 
HETATM    5  C   UNL     1       4.659  13.382  22.491  0.00  0.00     0.030 A 
ENDROOT
BRANCH   1   6
HETATM    6  C   UNL     1       4.479  11.379  20.786  0.00  0.00     0.029 A 
HETATM    7  C   UNL     1       4.518  11.764  19.435  0.00  0.00     0.019 A 
HETATM    8  C   UNL     1       5.170  10.978  18.479  0.00  0.00     0.037 A 
HETATM    9  C   UNL     1       5.748   9.775  18.864  0.00  0.00     0.068 A 
HETATM   10  C   UNL     1       5.636   9.321  20.173  0.00  0.00     0.074 A 
HETATM   11  C   UNL     1       4.993  10.114  21.124  0.00  0.00     0.081 A 
BRANCH   9  12
HETATM   12  O   UNL     1       6.445   9.011  17.975  0.00  0.00    -0.361 OA
HETATM   13  H   UNL     1       6.309   9.367  17.081  0.00  0.00     0.217 HD
ENDBRANCH   9  12
BRANCH  11  14
HETATM   14  O   UNL     1       4.914   9.587  22.386  0.00  0.00    -0.360 OA
HETATM   15  H   UNL     1       5.556   8.848  22.438  0.00  0.00     0.217 HD
ENDBRANCH  11  14
ENDBRANCH   1   6
BRANCH   5  16
HETATM   16  C   UNL     1       5.998  13.945  22.373  0.00  0.00    -0.022 A 
HETATM   17  C   UNL     1       6.994  13.294  21.630  0.00  0.00     0.012 A 
HETATM   18  C   UNL     1       8.216  13.920  21.372  0.00  0.00     0.001 A 
HETATM   19  C   UNL     1       8.481  15.179  21.904  0.00  0.00     0.000 A 
HETATM   20  C   UNL     1       7.532  15.803  22.710  0.00  0.00     0.001 A 
HETATM   21  C   UNL     1       6.297  15.192  22.942  0.00  0.00     0.012 A 
ENDBRANCH   5  16
TORSDOF 4
ENDMDL
MODEL 6
REMARK VINA RESULT:    -6.459      2.849      3.937
REMARK INTER + INTRA:          -8.252
REMARK INTER:                  -7.505
REMARK INTRA:                  -0.747
REMARK UNBOUND:                -0.660
REMARK  4 active torsions:
REMARK  status: ('A' for Active; 'I' for Inactive)
REMARK    1  A    between atoms: O_1  and  C_2 
REMARK    2  A    between atoms: C_5  and  C_6 
REMARK    3  A    between atoms: C_10  and  C_11 
REMARK    4  A    between atoms: C_17  and  O_18 
ROOT
HETATM    1  C   UNL     1       4.471  13.840  22.714  0.00  0.00     0.110 A 
HETATM    2  N   UNL     1       3.146  14.076  22.756  0.00  0.00    -0.127 NA
HETATM    3  O   UNL     1       2.976  15.247  23.458  0.00  0.00    -0.224 OA
HETATM    4  C   UNL     1       4.182  15.718  23.849  0.00  0.00     0.184 A 
HETATM    5  C   UNL     1       5.180  14.877  23.415  0.00  0.00     0.030 A 
ENDROOT
BRANCH   1   6
HETATM    6  C   UNL     1       4.978  12.624  22.060  0.00  0.00     0.029 A 
HETATM    7  C   UNL     1       6.190  12.650  21.347  0.00  0.00     0.019 A 
HETATM    8  C   UNL     1       6.786  11.467  20.896  0.00  0.00     0.037 A 
HETATM    9  C   UNL     1       6.147  10.253  21.115  0.00  0.00     0.068 A 
HETATM   10  C   UNL     1       4.900  10.209  21.727  0.00  0.00     0.074 A 
HETATM   11  C   UNL     1       4.314  11.390  22.183  0.00  0.00     0.081 A 
BRANCH   9  12
HETATM   12  O   UNL     1       6.725   9.076  20.745  0.00  0.00    -0.361 OA
HETATM   13  H   UNL     1       7.687   9.199  20.696  0.00  0.00     0.217 HD
ENDBRANCH   9  12
BRANCH  11  14
HETATM   14  O   UNL     1       3.079  11.260  22.761  0.00  0.00    -0.360 OA
HETATM   15  H   UNL     1       3.183  11.422  23.722  0.00  0.00     0.217 HD
ENDBRANCH  11  14
ENDBRANCH   1   6
BRANCH   5  16
HETATM   16  C   UNL     1       6.594  15.113  23.673  0.00  0.00    -0.022 A 
HETATM   17  C   UNL     1       7.154  14.842  24.930  0.00  0.00     0.012 A 
HETATM   18  C   UNL     1       8.537  14.901  25.122  0.00  0.00     0.001 A 
HETATM   19  C   UNL     1       9.371  15.290  24.077  0.00  0.00     0.000 A 
HETATM   20  C   UNL     1       8.821  15.640  22.847  0.00  0.00     0.001 A 
HETATM   21  C   UNL     1       7.441  15.550  22.644  0.00  0.00     0.012 A 
ENDBRANCH   5  16
TORSDOF 4
ENDMDL
MODEL 7
REMARK VINA RESULT:    -6.427      2.188      2.780
REMARK INTER + INTRA:          -8.214
REMARK INTER:                  -7.270
REMARK INTRA:                  -0.944
REMARK UNBOUND:                -0.660
REMARK  4 active torsions:
REMARK  status: ('A' for Active; 'I' for Inactive)
REMARK    1  A    between atoms: O_1  and  C_2 
REMARK    2  A    between atoms: C_5  and  C_6 
REMARK    3  A    between atoms: C_10  and  C_11 
REMARK    4  A    between atoms: C_17  and  O_18 
ROOT
HETATM    1  C   UNL     1       7.395  11.883  23.329  0.00  0.00     0.110 A 
HETATM    2  N   UNL     1       8.423  11.137  23.776  0.00  0.00    -0.127 NA
HETATM    3  O   UNL     1       8.801  11.673  24.986  0.00  0.00    -0.224 OA
HETATM    4  C   UNL     1       8.021  12.739  25.272  0.00  0.00     0.184 A 
HETATM    5  C   UNL     1       7.104  12.935  24.265  0.00  0.00     0.030 A 
ENDROOT
BRANCH   1   6
HETATM    6  C   UNL     1       6.787  11.585  22.023  0.00  0.00     0.029 A 
HETATM    7  C   UNL     1       5.391  11.490  21.891  0.00  0.00     0.019 A 
HETATM    8  C   UNL     1       4.790  11.411  20.629  0.00  0.00     0.037 A 
HETATM    9  C   UNL     1       5.589  11.379  19.493  0.00  0.00     0.068 A 
HETATM   10  C   UNL     1       6.974  11.369  19.601  0.00  0.00     0.074 A 
HETATM   11  C   UNL     1       7.568  11.457  20.860  0.00  0.00     0.081 A 
BRANCH   9  12
HETATM   12  O   UNL     1       5.039  11.365  18.246  0.00  0.00    -0.361 OA
HETATM   13  H   UNL     1       5.358  10.580  17.771  0.00  0.00     0.217 HD
ENDBRANCH   9  12
BRANCH  11  14
HETATM   14  O   UNL     1       8.937  11.426  20.878  0.00  0.00    -0.360 OA
HETATM   15  H   UNL     1       9.209  10.575  21.281  0.00  0.00     0.217 HD
ENDBRANCH  11  14
ENDBRANCH   1   6
BRANCH   5  16
HETATM   16  C   UNL     1       6.115  14.005  24.282  0.00  0.00    -0.022 A 
HETATM   17  C   UNL     1       6.401  15.262  23.730  0.00  0.00     0.012 A 
HETATM   18  C   UNL     1       5.398  16.224  23.588  0.00  0.00     0.001 A 
HETATM   19  C   UNL     1       4.110  15.963  24.050  0.00  0.00     0.000 A 
HETATM   20  C   UNL     1       3.832  14.749  24.673  0.00  0.00     0.001 A 
HETATM   21  C   UNL     1       4.827  13.774  24.787  0.00  0.00     0.012 A 
ENDBRANCH   5  16
TORSDOF 4
ENDMDL
MODEL 8
REMARK VINA RESULT:    -6.381      1.427      1.638
REMARK INTER + INTRA:          -8.160
REMARK INTER:                  -7.316
REMARK INTRA:                  -0.844
REMARK UNBOUND:                -0.660
REMARK  4 active torsions:
REMARK  status: ('A' for Active; 'I' for Inactive)
REMARK    1  A    between atoms: O_1  and  C_2 
REMARK    2  A    between atoms: C_5  and  C_6 
REMARK    3  A    between atoms: C_10  and  C_11 
REMARK    4  A    between atoms: C_17  and  O_18 
ROOT
HETATM    1  C   UNL     1       8.157  13.361  22.287  0.00  0.00     0.110 A 
HETATM    2  N   UNL     1       9.343  13.695  21.744  0.00  0.00    -0.127 NA
HETATM    3  O   UNL     1       9.336  15.063  21.594  0.00  0.00    -0.224 OA
HETATM    4  C   UNL     1       8.157  15.560  22.031  0.00  0.00     0.184 A 
HETATM    5  C   UNL     1       7.355  14.538  22.485  0.00  0.00     0.030 A 
ENDROOT
BRANCH   1   6
HETATM    6  C   UNL     1       7.837  11.947  22.536  0.00  0.00     0.029 A 
HETATM    7  C   UNL     1       7.818  11.439  23.846  0.00  0.00     0.019 A 
HETATM    8  C   UNL     1       7.321  10.160  24.117  0.00  0.00     0.037 A 
HETATM    9  C   UNL     1       6.883   9.362  23.068  0.00  0.00     0.068 A 
HETATM   10  C   UNL     1       6.985   9.800  21.753  0.00  0.00     0.074 A 
HETATM   11  C   UNL     1       7.473  11.080  21.490  0.00  0.00     0.081 A 
BRANCH   9  12
HETATM   12  O   UNL     1       6.336   8.134  23.298  0.00  0.00    -0.361 OA
HETATM   13  H   UNL     1       5.609   8.228  23.936  0.00  0.00     0.217 HD
ENDBRANCH   9  12
BRANCH  11  14
HETATM   14  O   UNL     1       7.554  11.427  20.167  0.00  0.00    -0.360 OA
HETATM   15  H   UNL     1       6.639  11.520  19.829  0.00  0.00     0.217 HD
ENDBRANCH  11  14
ENDBRANCH   1   6
BRANCH   5  16
HETATM   16  C   UNL     1       6.019  14.751  23.026  0.00  0.00    -0.022 A 
HETATM   17  C   UNL     1       5.741  15.847  23.856  0.00  0.00     0.012 A 
HETATM   18  C   UNL     1       4.428  16.147  24.226  0.00  0.00     0.001 A 
HETATM   19  C   UNL     1       3.383  15.320  23.822  0.00  0.00     0.000 A 
HETATM   20  C   UNL     1       3.654  14.183  23.065  0.00  0.00     0.001 A 
HETATM   21  C   UNL     1       4.963  13.900  22.667  0.00  0.00     0.012 A 
ENDBRANCH   5  16
TORSDOF 4
ENDMDL
MODEL 9
REMARK VINA RESULT:    -6.372      2.840      4.911
REMARK INTER + INTRA:          -8.149
REMARK INTER:                  -7.489
REMARK INTRA:                  -0.660
REMARK UNBOUND:                -0.660
REMARK  4 active torsions:
REMARK  status: ('A' for Active; 'I' for Inactive)
REMARK    1  A    between atoms: O_1  and  C_2 
REMARK    2  A    between atoms: C_5  and  C_6 
REMARK    3  A    between atoms: C_10  and  C_11 
REMARK    4  A    between atoms: C_17  and  O_18 
ROOT
HETATM    1  C   UNL     1       5.782  12.903  22.192  0.00  0.00     0.110 A 
HETATM    2  N   UNL     1       6.488  12.300  21.217  0.00  0.00    -0.127 NA
HETATM    3  O   UNL     1       5.572  11.766  20.340  0.00  0.00    -0.224 OA
HETATM    4  C   UNL     1       4.320  12.030  20.778  0.00  0.00     0.184 A 
HETATM    5  C   UNL     1       4.373  12.748  21.950  0.00  0.00     0.030 A 
ENDROOT
BRANCH   1   6
HETATM    6  C   UNL     1       6.482  13.541  23.317  0.00  0.00     0.029 A 
HETATM    7  C   UNL     1       6.417  14.933  23.501  0.00  0.00     0.019 A 
HETATM    8  C   UNL     1       6.903  15.530  24.670  0.00  0.00     0.037 A 
HETATM    9  C   UNL     1       7.501  14.738  25.642  0.00  0.00     0.068 A 
HETATM   10  C   UNL     1       7.671  13.374  25.440  0.00  0.00     0.074 A 
HETATM   11  C   UNL     1       7.176  12.783  24.278  0.00  0.00     0.081 A 
BRANCH   9  12
HETATM   12  O   UNL     1       7.931  15.274  26.820  0.00  0.00    -0.361 OA
HETATM   13  H   UNL     1       7.648  16.202  26.865  0.00  0.00     0.217 HD
ENDBRANCH   9  12
BRANCH  11  14
HETATM   14  O   UNL     1       7.398  11.437  24.151  0.00  0.00    -0.360 OA
HETATM   15  H   UNL     1       7.316  11.039  25.042  0.00  0.00     0.217 HD
ENDBRANCH  11  14
ENDBRANCH   1   6
BRANCH   5  16
HETATM   16  C   UNL     1       3.186  13.191  22.670  0.00  0.00    -0.022 A 
HETATM   17  C   UNL     1       3.275  13.667  23.986  0.00  0.00     0.012 A 
HETATM   18  C   UNL     1       2.171  14.254  24.609  0.00  0.00     0.001 A 
HETATM   19  C   UNL     1       0.948  14.318  23.945  0.00  0.00     0.000 A 
HETATM   20  C   UNL     1       0.825  13.777  22.668  0.00  0.00     0.001 A 
HETATM   21  C   UNL     1       1.937  13.219  22.032  0.00  0.00     0.012 A 
ENDBRANCH   5  16
TORSDOF 4
ENDMDL
