MODEL 1
REMARK minimizedAffinity -10.1393862
REMARK minimizedRMSD -1
REMARK  6 active torsions:
REMARK  status: ('A' for Active; 'I' for Inactive)
REMARK    1  A    between atoms: C_7  and  C_8 
REMARK    2  A    between atoms: C_8  and  N_9 
REMARK       I    between atoms: N_9  and  C_11 
REMARK    3  A    between atoms: C_11  and  C_13 
REMARK    4  A    between atoms: C_15  and  O_16 
REMARK    5  A    between atoms: C_23  and  C_24 
REMARK    6  A    between atoms: C_24  and  C_25 
ROOT
HETATM    1  C   UNL     1       3.400   8.619  22.976  0.00  0.00     0.066 C 
HETATM    2  C   UNL     1       2.386   9.560  23.317  0.00  0.00     0.035 C 
HETATM    3  C   UNL     1       3.290   7.344  23.532  0.00  0.00     0.083 C 
HETATM    4  C   UNL     1       2.157   6.907  24.229  0.00  0.00     0.069 C 
HETATM    5  C   UNL     1       1.185   7.858  24.519  0.00  0.00     0.065 A 
HETATM    6  C   UNL     1       1.294   9.189  24.139  0.00  0.00     0.020 A 
HETATM    7  N   UNL     1       0.028   7.769  25.239  0.00  0.00    -0.277 N 
HETATM    8  H   UNL     1      -0.375   6.939  25.656  0.00  0.00     0.189 HD
HETATM    9  N   UNL     1      -0.548   8.950  25.489  0.00  0.00    -0.178 NA
HETATM   10  C   UNL     1       0.224   9.837  24.836  0.00  0.00     0.071 A 
ENDROOT
BRANCH   1  11
HETATM   11  C   UNL     1       4.534   9.151  22.136  0.00  0.00     0.256 C 
HETATM   12  N   UNL     1       5.604   9.926  22.616  0.00  0.00    -0.348 N 
HETATM   13  C   UNL     1       6.749  10.059  21.721  0.00  0.00     0.153 C 
HETATM   14  O   UNL     1       4.526   8.789  20.951  0.00  0.00    -0.267 OA
BRANCH  12  15
HETATM   15  C   UNL     1       5.772  10.520  23.941  0.00  0.00     0.164 C 
BRANCH  15  16
HETATM   16  C   UNL     1       5.414  12.003  24.058  0.00  0.00    -0.040 A 
HETATM   17  C   UNL     1       6.463  12.914  24.264  0.00  0.00     0.010 A 
HETATM   18  C   UNL     1       6.204  14.237  24.628  0.00  0.00     0.024 A 
HETATM   19  C   UNL     1       4.887  14.667  24.778  0.00  0.00     0.034 A 
HETATM   20 CL   UNL     1       4.572  16.257  25.357  0.00  0.00    -0.084 Cl
HETATM   21  C   UNL     1       3.828  13.806  24.503  0.00  0.00     0.024 A 
HETATM   22  C   UNL     1       4.088  12.480  24.134  0.00  0.00     0.010 A 
ENDBRANCH  15  16
ENDBRANCH  12  15
ENDBRANCH   1  11
BRANCH   3  23
HETATM   23  O   UNL     1       4.305   6.438  23.540  0.00  0.00    -0.360 OA
HETATM   24  H   UNL     1       4.818   6.603  24.353  0.00  0.00     0.217 HD
ENDBRANCH   3  23
BRANCH  10  25
HETATM   25  C   UNL     1       0.036  11.296  25.096  0.00  0.00     0.100 C 
BRANCH  25  26
HETATM   26  C   UNL     1      -0.400  11.978  23.827  0.00  0.00    -0.052 A 
HETATM   27  C   UNL     1       0.539  12.603  22.989  0.00  0.00     0.007 A 
HETATM   28  C   UNL     1       0.154  13.113  21.748  0.00  0.00     0.001 A 
HETATM   29  C   UNL     1      -1.173  13.016  21.336  0.00  0.00     0.000 A 
HETATM   30  C   UNL     1      -2.121  12.429  22.173  0.00  0.00     0.001 A 
HETATM   31  C   UNL     1      -1.739  11.916  23.413  0.00  0.00     0.007 A 
ENDBRANCH  25  26
ENDBRANCH  10  25
TORSDOF 6
ENDMDL
MODEL 2
REMARK minimizedAffinity -9.93494701
REMARK minimizedRMSD -1
REMARK  6 active torsions:
REMARK  status: ('A' for Active; 'I' for Inactive)
REMARK    1  A    between atoms: C_7  and  C_8 
REMARK    2  A    between atoms: C_8  and  N_9 
REMARK       I    between atoms: N_9  and  C_11 
REMARK    3  A    between atoms: C_11  and  C_13 
REMARK    4  A    between atoms: C_15  and  O_16 
REMARK    5  A    between atoms: C_23  and  C_24 
REMARK    6  A    between atoms: C_24  and  C_25 
ROOT
HETATM    1  C   UNL     1      -0.952  11.097  25.411  0.00  0.00     0.066 C 
HETATM    2  C   UNL     1       0.227  11.877  25.231  0.00  0.00     0.035 C 
HETATM    3  C   UNL     1      -1.913  11.162  24.401  0.00  0.00     0.083 C 
HETATM    4  C   UNL     1      -1.686  11.786  23.168  0.00  0.00     0.069 C 
HETATM    5  C   UNL     1      -0.511  12.517  23.034  0.00  0.00     0.065 A 
HETATM    6  C   UNL     1       0.425  12.635  24.051  0.00  0.00     0.020 A 
HETATM    7  N   UNL     1      -0.048  13.291  22.009  0.00  0.00    -0.277 N 
HETATM    8  H   UNL     1      -0.471  13.425  21.098  0.00  0.00     0.189 HD
HETATM    9  N   UNL     1       1.029  14.020  22.322  0.00  0.00    -0.178 NA
HETATM   10  C   UNL     1       1.325  13.645  23.579  0.00  0.00     0.071 A 
ENDROOT
BRANCH   1  11
HETATM   11  C   UNL     1      -1.067  10.376  26.731  0.00  0.00     0.256 C 
HETATM   12  N   UNL     1      -0.671   9.047  26.965  0.00  0.00    -0.348 N 
HETATM   13  C   UNL     1      -0.562   8.651  28.366  0.00  0.00     0.153 C 
HETATM   14  O   UNL     1      -1.475  11.066  27.675  0.00  0.00    -0.267 OA
BRANCH  12  15
HETATM   15  C   UNL     1      -0.240   8.044  25.993  0.00  0.00     0.164 C 
BRANCH  15  16
HETATM   16  C   UNL     1       1.044   8.367  25.227  0.00  0.00    -0.040 A 
HETATM   17  C   UNL     1       1.094   8.031  23.864  0.00  0.00     0.010 A 
HETATM   18  C   UNL     1       2.301   8.061  23.161  0.00  0.00     0.024 A 
HETATM   19  C   UNL     1       3.472   8.440  23.814  0.00  0.00     0.034 A 
HETATM   20 CL   UNL     1       4.978   8.345  22.985  0.00  0.00    -0.084 Cl
HETATM   21  C   UNL     1       3.437   8.854  25.143  0.00  0.00     0.024 A 
HETATM   22  C   UNL     1       2.226   8.829  25.847  0.00  0.00     0.010 A 
ENDBRANCH  15  16
ENDBRANCH  12  15
ENDBRANCH   1  11
BRANCH   3  23
HETATM   23  O   UNL     1      -3.189  10.717  24.549  0.00  0.00    -0.360 OA
HETATM   24  H   UNL     1      -3.705  11.466  24.903  0.00  0.00     0.217 HD
ENDBRANCH   3  23
BRANCH  10  25
HETATM   25  C   UNL     1       2.322  14.436  24.360  0.00  0.00     0.100 C 
BRANCH  25  26
HETATM   26  C   UNL     1       3.656  13.741  24.319  0.00  0.00    -0.052 A 
HETATM   27  C   UNL     1       3.761  12.413  23.874  0.00  0.00     0.007 A 
HETATM   28  C   UNL     1       5.011  11.816  23.705  0.00  0.00     0.001 A 
HETATM   29  C   UNL     1       6.170  12.536  23.990  0.00  0.00     0.000 A 
HETATM   30  C   UNL     1       6.079  13.843  24.465  0.00  0.00     0.001 A 
HETATM   31  C   UNL     1       4.830  14.443  24.632  0.00  0.00     0.007 A 
ENDBRANCH  25  26
ENDBRANCH  10  25
TORSDOF 6
ENDMDL
MODEL 3
REMARK minimizedAffinity -9.83079243
REMARK minimizedRMSD -1
REMARK  6 active torsions:
REMARK  status: ('A' for Active; 'I' for Inactive)
REMARK    1  A    between atoms: C_7  and  C_8 
REMARK    2  A    between atoms: C_8  and  N_9 
REMARK       I    between atoms: N_9  and  C_11 
REMARK    3  A    between atoms: C_11  and  C_13 
REMARK    4  A    between atoms: C_15  and  O_16 
REMARK    5  A    between atoms: C_23  and  C_24 
REMARK    6  A    between atoms: C_24  and  C_25 
ROOT
HETATM    1  C   UNL     1       6.298  12.447  24.334  0.00  0.00     0.066 C 
HETATM    2  C   UNL     1       4.926  12.179  24.061  0.00  0.00     0.035 C 
HETATM    3  C   UNL     1       6.629  13.757  24.681  0.00  0.00     0.083 C 
HETATM    4  C   UNL     1       5.672  14.742  24.955  0.00  0.00     0.069 C 
HETATM    5  C   UNL     1       4.344  14.425  24.692  0.00  0.00     0.065 A 
HETATM    6  C   UNL     1       3.946  13.193  24.192  0.00  0.00     0.020 A 
HETATM    7  N   UNL     1       3.208  15.179  24.774  0.00  0.00    -0.277 N 
HETATM    8  H   UNL     1       3.123  16.129  25.116  0.00  0.00     0.189 HD
HETATM    9  N   UNL     1       2.131  14.600  24.232  0.00  0.00    -0.178 NA
HETATM   10  C   UNL     1       2.568  13.386  23.852  0.00  0.00     0.071 A 
ENDROOT
BRANCH   1  11
HETATM   11  C   UNL     1       7.249  11.298  24.109  0.00  0.00     0.256 C 
HETATM   12  N   UNL     1       6.870   9.960  23.905  0.00  0.00    -0.348 N 
HETATM   13  C   UNL     1       7.908   9.073  23.387  0.00  0.00     0.153 C 
HETATM   14  O   UNL     1       8.445  11.612  24.027  0.00  0.00    -0.267 OA
BRANCH  12  15
HETATM   15  C   UNL     1       5.541   9.364  24.032  0.00  0.00     0.164 C 
BRANCH  15  16
HETATM   16  C   UNL     1       4.935   8.805  22.743  0.00  0.00    -0.040 A 
HETATM   17  C   UNL     1       4.392   7.510  22.784  0.00  0.00     0.010 A 
HETATM   18  C   UNL     1       4.051   6.838  21.608  0.00  0.00     0.024 A 
HETATM   19  C   UNL     1       4.239   7.460  20.377  0.00  0.00     0.034 A 
HETATM   20 CL   UNL     1       3.947   6.582  18.925  0.00  0.00    -0.084 Cl
HETATM   21  C   UNL     1       4.701   8.772  20.312  0.00  0.00     0.024 A 
HETATM   22  C   UNL     1       5.039   9.449  21.491  0.00  0.00     0.010 A 
ENDBRANCH  15  16
ENDBRANCH  12  15
ENDBRANCH   1  11
BRANCH   3  23
HETATM   23  O   UNL     1       7.904  14.233  24.690  0.00  0.00    -0.360 OA
HETATM   24  H   UNL     1       8.081  14.568  23.791  0.00  0.00     0.217 HD
ENDBRANCH   3  23
BRANCH  10  25
HETATM   25  C   UNL     1       1.704  12.543  22.973  0.00  0.00     0.100 C 
BRANCH  25  26
HETATM   26  C   UNL     1       1.151  11.391  23.768  0.00  0.00    -0.052 A 
HETATM   27  C   UNL     1      -0.068  11.514  24.457  0.00  0.00     0.007 A 
HETATM   28  C   UNL     1      -0.648  10.406  25.078  0.00  0.00     0.001 A 
HETATM   29  C   UNL     1      -0.011   9.168  25.029  0.00  0.00     0.000 A 
HETATM   30  C   UNL     1       1.215   9.040  24.378  0.00  0.00     0.001 A 
HETATM   31  C   UNL     1       1.795  10.146  23.754  0.00  0.00     0.007 A 
ENDBRANCH  25  26
ENDBRANCH  10  25
TORSDOF 6
ENDMDL
MODEL 4
REMARK minimizedAffinity -9.57892227
REMARK minimizedRMSD -1
REMARK  6 active torsions:
REMARK  status: ('A' for Active; 'I' for Inactive)
REMARK    1  A    between atoms: C_7  and  C_8 
REMARK    2  A    between atoms: C_8  and  N_9 
REMARK       I    between atoms: N_9  and  C_11 
REMARK    3  A    between atoms: C_11  and  C_13 
REMARK    4  A    between atoms: C_15  and  O_16 
REMARK    5  A    between atoms: C_23  and  C_24 
REMARK    6  A    between atoms: C_24  and  C_25 
ROOT
HETATM    1  C   UNL     1       4.064   8.367  22.189  0.00  0.00     0.066 C 
HETATM    2  C   UNL     1       3.043   9.068  22.892  0.00  0.00     0.035 C 
HETATM    3  C   UNL     1       3.988   6.974  22.186  0.00  0.00     0.083 C 
HETATM    4  C   UNL     1       2.876   6.267  22.664  0.00  0.00     0.069 C 
HETATM    5  C   UNL     1       1.896   6.998  23.324  0.00  0.00     0.065 A 
HETATM    6  C   UNL     1       1.975   8.371  23.510  0.00  0.00     0.020 A 
HETATM    7  N   UNL     1       0.757   6.600  23.963  0.00  0.00    -0.277 N 
HETATM    8  H   UNL     1       0.376   5.663  24.016  0.00  0.00     0.189 HD
HETATM    9  N   UNL     1       0.166   7.567  24.674  0.00  0.00    -0.178 NA
HETATM   10  C   UNL     1       0.909   8.659  24.423  0.00  0.00     0.071 A 
ENDROOT
BRANCH   1  11
HETATM   11  C   UNL     1       5.171   9.218  21.619  0.00  0.00     0.256 C 
HETATM   12  N   UNL     1       6.135   9.908  22.374  0.00  0.00    -0.348 N 
HETATM   13  C   UNL     1       7.296  10.396  21.637  0.00  0.00     0.153 C 
HETATM   14  O   UNL     1       5.250   9.220  20.382  0.00  0.00    -0.267 OA
BRANCH  12  15
HETATM   15  C   UNL     1       6.185  10.099  23.823  0.00  0.00     0.164 C 
BRANCH  15  16
HETATM   16  C   UNL     1       5.846  11.505  24.322  0.00  0.00    -0.040 A 
HETATM   17  C   UNL     1       4.490  11.861  24.403  0.00  0.00     0.010 A 
HETATM   18  C   UNL     1       4.108  13.189  24.606  0.00  0.00     0.024 A 
HETATM   19  C   UNL     1       5.081  14.175  24.742  0.00  0.00     0.034 A 
HETATM   20 CL   UNL     1       4.610  15.828  24.855  0.00  0.00    -0.084 Cl
HETATM   21  C   UNL     1       6.432  13.839  24.745  0.00  0.00     0.024 A 
HETATM   22  C   UNL     1       6.816  12.506  24.546  0.00  0.00     0.010 A 
ENDBRANCH  15  16
ENDBRANCH  12  15
ENDBRANCH   1  11
BRANCH   3  23
HETATM   23  O   UNL     1       5.017   6.165  21.816  0.00  0.00    -0.360 OA
HETATM   24  H   UNL     1       5.544   6.002  22.620  0.00  0.00     0.217 HD
ENDBRANCH   3  23
BRANCH  10  25
HETATM   25  C   UNL     1       0.703   9.886  25.249  0.00  0.00     0.100 C 
BRANCH  25  26
HETATM   26  C   UNL     1       0.002  10.933  24.426  0.00  0.00    -0.052 A 
HETATM   27  C   UNL     1       0.736  11.869  23.678  0.00  0.00     0.007 A 
HETATM   28  C   UNL     1       0.089  12.748  22.808  0.00  0.00     0.001 A 
HETATM   29  C   UNL     1      -1.298  12.711  22.686  0.00  0.00     0.000 A 
HETATM   30  C   UNL     1      -2.042  11.811  23.448  0.00  0.00     0.001 A 
HETATM   31  C   UNL     1      -1.396  10.928  24.315  0.00  0.00     0.007 A 
ENDBRANCH  25  26
ENDBRANCH  10  25
TORSDOF 6
ENDMDL
MODEL 5
REMARK minimizedAffinity -9.55828571
REMARK minimizedRMSD -1
REMARK  6 active torsions:
REMARK  status: ('A' for Active; 'I' for Inactive)
REMARK    1  A    between atoms: C_7  and  C_8 
REMARK    2  A    between atoms: C_8  and  N_9 
REMARK       I    between atoms: N_9  and  C_11 
REMARK    3  A    between atoms: C_11  and  C_13 
REMARK    4  A    between atoms: C_15  and  O_16 
REMARK    5  A    between atoms: C_23  and  C_24 
REMARK    6  A    between atoms: C_24  and  C_25 
ROOT
HETATM    1  C   UNL     1       3.996   9.097  23.254  0.00  0.00     0.066 C 
HETATM    2  C   UNL     1       4.663   9.916  24.210  0.00  0.00     0.035 C 
HETATM    3  C   UNL     1       4.511   9.093  21.957  0.00  0.00     0.083 C 
HETATM    4  C   UNL     1       5.733   9.686  21.617  0.00  0.00     0.069 C 
HETATM    5  C   UNL     1       6.356  10.458  22.591  0.00  0.00     0.065 A 
HETATM    6  C   UNL     1       5.827  10.644  23.860  0.00  0.00     0.020 A 
HETATM    7  N   UNL     1       7.491  11.217  22.545  0.00  0.00    -0.277 N 
HETATM    8  H   UNL     1       8.142  11.306  21.773  0.00  0.00     0.189 HD
HETATM    9  N   UNL     1       7.667  11.997  23.617  0.00  0.00    -0.178 NA
HETATM   10  C   UNL     1       6.645  11.673  24.429  0.00  0.00     0.071 A 
ENDROOT
BRANCH   1  11
HETATM   11  C   UNL     1       2.742   8.413  23.737  0.00  0.00     0.256 C 
HETATM   12  N   UNL     1       1.666   9.052  24.379  0.00  0.00    -0.348 N 
HETATM   13  C   UNL     1       0.428   8.283  24.468  0.00  0.00     0.153 C 
HETATM   14  O   UNL     1       2.657   7.209  23.458  0.00  0.00    -0.267 OA
BRANCH  12  15
HETATM   15  C   UNL     1       1.587  10.428  24.864  0.00  0.00     0.164 C 
BRANCH  15  16
HETATM   16  C   UNL     1       0.785  11.398  23.994  0.00  0.00    -0.040 A 
HETATM   17  C   UNL     1      -0.598  11.490  24.221  0.00  0.00     0.010 A 
HETATM   18  C   UNL     1      -1.432  12.153  23.317  0.00  0.00     0.024 A 
HETATM   19  C   UNL     1      -0.886  12.742  22.179  0.00  0.00     0.034 A 
HETATM   20 CL   UNL     1      -1.928  13.439  20.999  0.00  0.00    -0.084 Cl
HETATM   21  C   UNL     1       0.490  12.734  21.970  0.00  0.00     0.024 A 
HETATM   22  C   UNL     1       1.327  12.073  22.878  0.00  0.00     0.010 A 
ENDBRANCH  15  16
ENDBRANCH  12  15
ENDBRANCH   1  11
BRANCH   3  23
HETATM   23  O   UNL     1       3.836   8.603  20.883  0.00  0.00    -0.360 OA
HETATM   24  H   UNL     1       3.308   9.342  20.528  0.00  0.00     0.217 HD
ENDBRANCH   3  23
BRANCH  10  25
HETATM   25  C   UNL     1       6.364  12.526  25.622  0.00  0.00     0.100 C 
BRANCH  25  26
HETATM   26  C   UNL     1       5.423  13.636  25.234  0.00  0.00    -0.052 A 
HETATM   27  C   UNL     1       4.083  13.361  24.912  0.00  0.00     0.007 A 
HETATM   28  C   UNL     1       3.179  14.401  24.688  0.00  0.00     0.001 A 
HETATM   29  C   UNL     1       3.606  15.725  24.771  0.00  0.00     0.000 A 
HETATM   30  C   UNL     1       4.940  16.010  25.057  0.00  0.00     0.001 A 
HETATM   31  C   UNL     1       5.845  14.973  25.284  0.00  0.00     0.007 A 
ENDBRANCH  25  26
ENDBRANCH  10  25
TORSDOF 6
ENDMDL
MODEL 6
REMARK minimizedAffinity -9.53069115
REMARK minimizedRMSD -1
REMARK  6 active torsions:
REMARK  status: ('A' for Active; 'I' for Inactive)
REMARK    1  A    between atoms: C_7  and  C_8 
REMARK    2  A    between atoms: C_8  and  N_9 
REMARK       I    between atoms: N_9  and  C_11 
REMARK    3  A    between atoms: C_11  and  C_13 
REMARK    4  A    between atoms: C_15  and  O_16 
REMARK    5  A    between atoms: C_23  and  C_24 
REMARK    6  A    between atoms: C_24  and  C_25 
ROOT
HETATM    1  C   UNL     1       6.220  12.582  24.192  0.00  0.00     0.066 C 
HETATM    2  C   UNL     1       4.830  12.335  23.998  0.00  0.00     0.035 C 
HETATM    3  C   UNL     1       6.583  13.866  24.600  0.00  0.00     0.083 C 
HETATM    4  C   UNL     1       5.653  14.832  25.005  0.00  0.00     0.069 C 
HETATM    5  C   UNL     1       4.309  14.536  24.815  0.00  0.00     0.065 A 
HETATM    6  C   UNL     1       3.869  13.341  24.264  0.00  0.00     0.020 A 
HETATM    7  N   UNL     1       3.186  15.285  25.025  0.00  0.00    -0.277 N 
HETATM    8  H   UNL     1       3.131  16.211  25.433  0.00  0.00     0.189 HD
HETATM    9  N   UNL     1       2.070  14.745  24.522  0.00  0.00    -0.178 NA
HETATM   10  C   UNL     1       2.471  13.558  24.034  0.00  0.00     0.071 A 
ENDROOT
BRANCH   1  11
HETATM   11  C   UNL     1       7.145  11.448  23.826  0.00  0.00     0.256 C 
HETATM   12  N   UNL     1       6.839  10.408  22.932  0.00  0.00    -0.348 N 
HETATM   13  C   UNL     1       7.969   9.607  22.470  0.00  0.00     0.153 C 
HETATM   14  O   UNL     1       8.282  11.518  24.313  0.00  0.00    -0.267 OA
BRANCH  12  15
HETATM   15  C   UNL     1       5.553  10.095  22.310  0.00  0.00     0.164 C 
BRANCH  15  16
HETATM   16  C   UNL     1       4.833   8.859  22.852  0.00  0.00    -0.040 A 
HETATM   17  C   UNL     1       4.073   8.097  21.950  0.00  0.00     0.010 A 
HETATM   18  C   UNL     1       3.194   7.112  22.406  0.00  0.00     0.024 A 
HETATM   19  C   UNL     1       3.074   6.871  23.772  0.00  0.00     0.034 A 
HETATM   20 CL   UNL     1       1.893   5.754  24.340  0.00  0.00    -0.084 Cl
HETATM   21  C   UNL     1       3.873   7.557  24.683  0.00  0.00     0.024 A 
HETATM   22  C   UNL     1       4.758   8.541  24.226  0.00  0.00     0.010 A 
ENDBRANCH  15  16
ENDBRANCH  12  15
ENDBRANCH   1  11
BRANCH   3  23
HETATM   23  O   UNL     1       7.858  14.337  24.552  0.00  0.00    -0.360 OA
HETATM   24  H   UNL     1       7.975  14.730  23.667  0.00  0.00     0.217 HD
ENDBRANCH   3  23
BRANCH  10  25
HETATM   25  C   UNL     1       1.543  12.777  23.164  0.00  0.00     0.100 C 
BRANCH  25  26
HETATM   26  C   UNL     1       0.887  11.692  23.976  0.00  0.00    -0.052 A 
HETATM   27  C   UNL     1      -0.330  11.927  24.638  0.00  0.00     0.007 A 
HETATM   28  C   UNL     1      -1.005  10.884  25.274  0.00  0.00     0.001 A 
HETATM   29  C   UNL     1      -0.467   9.599  25.267  0.00  0.00     0.000 A 
HETATM   30  C   UNL     1       0.757   9.360  24.643  0.00  0.00     0.001 A 
HETATM   31  C   UNL     1       1.433  10.400  24.004  0.00  0.00     0.007 A 
ENDBRANCH  25  26
ENDBRANCH  10  25
TORSDOF 6
ENDMDL
MODEL 7
REMARK minimizedAffinity -9.45499992
REMARK minimizedRMSD -1
REMARK  6 active torsions:
REMARK  status: ('A' for Active; 'I' for Inactive)
REMARK    1  A    between atoms: C_7  and  C_8 
REMARK    2  A    between atoms: C_8  and  N_9 
REMARK       I    between atoms: N_9  and  C_11 
REMARK    3  A    between atoms: C_11  and  C_13 
REMARK    4  A    between atoms: C_15  and  O_16 
REMARK    5  A    between atoms: C_23  and  C_24 
REMARK    6  A    between atoms: C_24  and  C_25 
ROOT
HETATM    1  C   UNL     1      -0.449  10.250  25.467  0.00  0.00     0.066 C 
HETATM    2  C   UNL     1       0.892  10.444  25.029  0.00  0.00     0.035 C 
HETATM    3  C   UNL     1      -1.434  11.023  24.850  0.00  0.00     0.083 C 
HETATM    4  C   UNL     1      -1.190  11.812  23.718  0.00  0.00     0.069 C 
HETATM    5  C   UNL     1       0.133  11.953  23.317  0.00  0.00     0.065 A 
HETATM    6  C   UNL     1       1.192  11.344  23.977  0.00  0.00     0.020 A 
HETATM    7  N   UNL     1       0.695  12.704  22.325  0.00  0.00    -0.277 N 
HETATM    8  H   UNL     1       0.216  13.270  21.634  0.00  0.00     0.189 HD
HETATM    9  N   UNL     1       2.031  12.757  22.373  0.00  0.00    -0.178 NA
HETATM   10  C   UNL     1       2.355  11.941  23.392  0.00  0.00     0.071 A 
ENDROOT
BRANCH   1  11
HETATM   11  C   UNL     1      -0.631   9.304  26.628  0.00  0.00     0.256 C 
HETATM   12  N   UNL     1      -0.453   7.911  26.574  0.00  0.00    -0.348 N 
HETATM   13  C   UNL     1      -0.357   7.228  27.860  0.00  0.00     0.153 C 
HETATM   14  O   UNL     1      -0.880   9.845  27.714  0.00  0.00    -0.267 OA
BRANCH  12  15
HETATM   15  C   UNL     1      -0.233   7.070  25.398  0.00  0.00     0.164 C 
BRANCH  15  16
HETATM   16  C   UNL     1       1.152   7.171  24.755  0.00  0.00    -0.040 A 
HETATM   17  C   UNL     1       2.262   7.277  25.608  0.00  0.00     0.010 A 
HETATM   18  C   UNL     1       3.520   7.622  25.108  0.00  0.00     0.024 A 
HETATM   19  C   UNL     1       3.682   7.853  23.744  0.00  0.00     0.034 A 
HETATM   20 CL   UNL     1       5.199   8.410  23.149  0.00  0.00    -0.084 Cl
HETATM   21  C   UNL     1       2.616   7.678  22.866  0.00  0.00     0.024 A 
HETATM   22  C   UNL     1       1.355   7.327  23.367  0.00  0.00     0.010 A 
ENDBRANCH  15  16
ENDBRANCH  12  15
ENDBRANCH   1  11
BRANCH   3  23
HETATM   23  O   UNL     1      -2.694  11.165  25.341  0.00  0.00    -0.360 OA
HETATM   24  H   UNL     1      -2.669  11.925  25.952  0.00  0.00     0.217 HD
ENDBRANCH   3  23
BRANCH  10  25
HETATM   25  C   UNL     1       3.755  11.946  23.912  0.00  0.00     0.100 C 
BRANCH  25  26
HETATM   26  C   UNL     1       4.122  13.337  24.353  0.00  0.00    -0.052 A 
HETATM   27  C   UNL     1       3.147  14.206  24.872  0.00  0.00     0.007 A 
HETATM   28  C   UNL     1       3.512  15.443  25.408  0.00  0.00     0.001 A 
HETATM   29  C   UNL     1       4.850  15.830  25.420  0.00  0.00     0.000 A 
HETATM   30  C   UNL     1       5.822  14.992  24.876  0.00  0.00     0.001 A 
HETATM   31  C   UNL     1       5.461  13.754  24.343  0.00  0.00     0.007 A 
ENDBRANCH  25  26
ENDBRANCH  10  25
TORSDOF 6
ENDMDL
MODEL 8
REMARK minimizedAffinity -9.42555332
REMARK minimizedRMSD -1
REMARK  6 active torsions:
REMARK  status: ('A' for Active; 'I' for Inactive)
REMARK    1  A    between atoms: C_7  and  C_8 
REMARK    2  A    between atoms: C_8  and  N_9 
REMARK       I    between atoms: N_9  and  C_11 
REMARK    3  A    between atoms: C_11  and  C_13 
REMARK    4  A    between atoms: C_15  and  O_16 
REMARK    5  A    between atoms: C_23  and  C_24 
REMARK    6  A    between atoms: C_24  and  C_25 
ROOT
HETATM    1  C   UNL     1       3.614  11.104  23.345  0.00  0.00     0.066 C 
HETATM    2  C   UNL     1       4.502  12.089  23.865  0.00  0.00     0.035 C 
HETATM    3  C   UNL     1       4.176   9.887  22.959  0.00  0.00     0.083 C 
HETATM    4  C   UNL     1       5.503   9.533  23.237  0.00  0.00     0.069 C 
HETATM    5  C   UNL     1       6.324  10.522  23.764  0.00  0.00     0.065 A 
HETATM    6  C   UNL     1       5.882  11.811  24.029  0.00  0.00     0.020 A 
HETATM    7  N   UNL     1       7.658  10.518  24.061  0.00  0.00    -0.277 N 
HETATM    8  H   UNL     1       8.299   9.736  24.003  0.00  0.00     0.189 HD
HETATM    9  N   UNL     1       8.154  11.726  24.351  0.00  0.00    -0.178 NA
HETATM   10  C   UNL     1       7.082  12.537  24.319  0.00  0.00     0.071 A 
ENDROOT
BRANCH   1  11
HETATM   11  C   UNL     1       2.180  11.539  23.173  0.00  0.00     0.256 C 
HETATM   12  N   UNL     1       1.147  11.311  24.099  0.00  0.00    -0.348 N 
HETATM   13  C   UNL     1      -0.074  12.086  23.899  0.00  0.00     0.153 C 
HETATM   14  O   UNL     1       1.952  12.215  22.160  0.00  0.00    -0.267 OA
BRANCH  12  15
HETATM   15  C   UNL     1       1.176  10.485  25.305  0.00  0.00     0.164 C 
BRANCH  15  16
HETATM   16  C   UNL     1       1.320   8.979  25.080  0.00  0.00    -0.040 A 
HETATM   17  C   UNL     1       2.389   8.323  25.711  0.00  0.00     0.010 A 
HETATM   18  C   UNL     1       2.736   7.016  25.361  0.00  0.00     0.024 A 
HETATM   19  C   UNL     1       2.007   6.346  24.382  0.00  0.00     0.034 A 
HETATM   20 CL   UNL     1       2.517   4.788  23.856  0.00  0.00    -0.084 Cl
HETATM   21  C   UNL     1       0.894   6.944  23.797  0.00  0.00     0.024 A 
HETATM   22  C   UNL     1       0.543   8.253  24.151  0.00  0.00     0.010 A 
ENDBRANCH  15  16
ENDBRANCH  12  15
ENDBRANCH   1  11
BRANCH   3  23
HETATM   23  O   UNL     1       3.527   8.969  22.193  0.00  0.00    -0.360 OA
HETATM   24  H   UNL     1       3.718   9.199  21.264  0.00  0.00     0.217 HD
ENDBRANCH   3  23
BRANCH  10  25
HETATM   25  C   UNL     1       7.287  14.016  24.345  0.00  0.00     0.100 C 
BRANCH  25  26
HETATM   26  C   UNL     1       6.225  14.655  25.201  0.00  0.00    -0.052 A 
HETATM   27  C   UNL     1       5.378  15.645  24.675  0.00  0.00     0.007 A 
HETATM   28  C   UNL     1       4.308  16.135  25.425  0.00  0.00     0.001 A 
HETATM   29  C   UNL     1       4.080  15.652  26.711  0.00  0.00     0.000 A 
HETATM   30  C   UNL     1       4.933  14.695  27.258  0.00  0.00     0.001 A 
HETATM   31  C   UNL     1       6.002  14.200  26.509  0.00  0.00     0.007 A 
ENDBRANCH  25  26
ENDBRANCH  10  25
TORSDOF 6
ENDMDL
MODEL 9
REMARK minimizedAffinity -9.34260941
REMARK minimizedRMSD -1
REMARK  6 active torsions:
REMARK  status: ('A' for Active; 'I' for Inactive)
REMARK    1  A    between atoms: C_7  and  C_8 
REMARK    2  A    between atoms: C_8  and  N_9 
REMARK       I    between atoms: N_9  and  C_11 
REMARK    3  A    between atoms: C_11  and  C_13 
REMARK    4  A    between atoms: C_15  and  O_16 
REMARK    5  A    between atoms: C_23  and  C_24 
REMARK    6  A    between atoms: C_24  and  C_25 
ROOT
HETATM    1  C   UNL     1       4.600  13.441  24.690  0.00  0.00     0.066 C 
HETATM    2  C   UNL     1       5.227  12.628  23.702  0.00  0.00     0.035 C 
HETATM    3  C   UNL     1       5.327  13.697  25.853  0.00  0.00     0.083 C 
HETATM    4  C   UNL     1       6.680  13.362  26.000  0.00  0.00     0.069 C 
HETATM    5  C   UNL     1       7.252  12.586  24.999  0.00  0.00     0.065 A 
HETATM    6  C   UNL     1       6.550  12.153  23.883  0.00  0.00     0.020 A 
HETATM    7  N   UNL     1       8.498  12.036  24.891  0.00  0.00    -0.277 N 
HETATM    8  H   UNL     1       9.281  12.156  25.524  0.00  0.00     0.189 HD
HETATM    9  N   UNL     1       8.623  11.165  23.884  0.00  0.00    -0.178 NA
HETATM   10  C   UNL     1       7.431  11.209  23.263  0.00  0.00     0.071 A 
ENDROOT
BRANCH   1  11
HETATM   11  C   UNL     1       3.174  13.840  24.402  0.00  0.00     0.256 C 
HETATM   12  N   UNL     1       2.178  12.986  23.898  0.00  0.00    -0.348 N 
HETATM   13  C   UNL     1       0.806  13.473  24.000  0.00  0.00     0.153 C 
HETATM   14  O   UNL     1       2.878  15.000  24.721  0.00  0.00    -0.267 OA
BRANCH  12  15
HETATM   15  C   UNL     1       2.325  11.622  23.392  0.00  0.00     0.164 C 
BRANCH  15  16
HETATM   16  C   UNL     1       1.779  10.513  24.295  0.00  0.00    -0.040 A 
HETATM   17  C   UNL     1       2.512  10.190  25.448  0.00  0.00     0.010 A 
HETATM   18  C   UNL     1       2.223   9.037  26.182  0.00  0.00     0.024 A 
HETATM   19  C   UNL     1       1.187   8.201  25.776  0.00  0.00     0.034 A 
HETATM   20 CL   UNL     1       0.920   6.713  26.600  0.00  0.00    -0.084 Cl
HETATM   21  C   UNL     1       0.394   8.539  24.682  0.00  0.00     0.024 A 
HETATM   22  C   UNL     1       0.680   9.697  23.949  0.00  0.00     0.010 A 
ENDBRANCH  15  16
ENDBRANCH  12  15
ENDBRANCH   1  11
BRANCH   3  23
HETATM   23  O   UNL     1       4.774  14.202  26.988  0.00  0.00    -0.360 OA
HETATM   24  H   UNL     1       4.465  13.437  27.510  0.00  0.00     0.217 HD
ENDBRANCH   3  23
BRANCH  10  25
HETATM   25  C   UNL     1       7.106  10.175  22.236  0.00  0.00     0.100 C 
BRANCH  25  26
HETATM   26  C   UNL     1       5.987   9.303  22.738  0.00  0.00    -0.052 A 
HETATM   27  C   UNL     1       4.829   9.106  21.967  0.00  0.00     0.007 A 
HETATM   28  C   UNL     1       3.855   8.190  22.370  0.00  0.00     0.001 A 
HETATM   29  C   UNL     1       4.021   7.471  23.552  0.00  0.00     0.000 A 
HETATM   30  C   UNL     1       5.149   7.682  24.343  0.00  0.00     0.001 A 
HETATM   31  C   UNL     1       6.126   8.595  23.941  0.00  0.00     0.007 A 
ENDBRANCH  25  26
ENDBRANCH  10  25
TORSDOF 6
ENDMDL
