MODEL 1
REMARK VINA RESULT:    -7.360      0.000      0.000
REMARK INTER + INTRA:         -10.773
REMARK INTER:                  -9.316
REMARK INTRA:                  -1.456
REMARK UNBOUND:                -1.476
REMARK  6 active torsions:
REMARK  status: ('A' for Active; 'I' for Inactive)
REMARK    1  A    between atoms: O_1  and  C_2 
REMARK    2  A    between atoms: C_2  and  C_4 
REMARK    3  A    between atoms: C_6  and  C_7 
REMARK    4  A    between atoms: N_13  and  C_14 
REMARK    5  A    between atoms: C_21  and  O_22 
REMARK    6  A    between atoms: C_25  and  O_26 
ROOT
HETATM    1  C   UNL     1       5.570  10.655  20.401  0.00  0.00     0.073 C 
HETATM    2  C   UNL     1       4.721  11.575  21.044  0.00  0.00     0.039 C 
HETATM    3  C   UNL     1       4.065  11.259  22.245  0.00  0.00     0.048 C 
HETATM    4  C   UNL     1       4.222   9.965  22.761  0.00  0.00     0.100 C 
HETATM    5  C   UNL     1       5.172   9.094  22.210  0.00  0.00     0.079 C 
HETATM    6 BR   UNL     1       5.535   7.412  23.029  0.00  0.00    -0.045 Br
HETATM    7  C   UNL     1       5.839   9.436  21.029  0.00  0.00     0.102 C 
ENDROOT
BRANCH   3   8
HETATM    8  C   UNL     1       3.175  12.304  22.822  0.00  0.00     0.172 A 
HETATM    9  N   UNL     1       1.875  12.221  22.692  0.00  0.00    -0.151 NA
HETATM   10  N   UNL     1       1.387  13.263  23.426  0.00  0.00    -0.226 N 
HETATM   11  H   UNL     1       0.400  13.480  23.482  0.00  0.00     0.194 HD
HETATM   12  C   UNL     1       2.415  13.988  24.010  0.00  0.00     0.349 A 
HETATM   13  O   UNL     1       2.273  14.977  24.713  0.00  0.00    -0.245 OA
HETATM   14  N   UNL     1       3.578  13.366  23.595  0.00  0.00    -0.241 N 
BRANCH  14  15
HETATM   15  C   UNL     1       4.857  13.886  23.856  0.00  0.00     0.084 A 
HETATM   16  C   UNL     1       5.315  14.978  23.104  0.00  0.00     0.033 A 
HETATM   17  C   UNL     1       6.501  15.627  23.455  0.00  0.00     0.002 A 
HETATM   18  C   UNL     1       7.273  15.150  24.515  0.00  0.00     0.003 A 
HETATM   19  C   UNL     1       6.864  14.019  25.219  0.00  0.00     0.044 A 
HETATM   20  C   UNL     1       5.658  13.402  24.895  0.00  0.00     0.143 A 
HETATM   21  F   UNL     1       5.281  12.319  25.591  0.00  0.00    -0.204 F 
ENDBRANCH  14  15
ENDBRANCH   3   8
BRANCH   4  22
HETATM   22  O   UNL     1       3.413   9.454  23.740  0.00  0.00    -0.358 OA
HETATM   23  H   UNL     1       2.634  10.026  23.855  0.00  0.00     0.217 HD
ENDBRANCH   4  22
BRANCH   1  24
HETATM   24  C   UNL     1       6.096  11.028  19.059  0.00  0.00     0.179 C 
HETATM   25  O   UNL     1       5.388  11.041  18.063  0.00  0.00    -0.646 OA
BRANCH  24  26
HETATM   26  O   UNL     1       7.418  11.292  18.998  0.00  0.00    -0.773 OA
HETATM   27  H   UNL     1       7.670  12.100  19.497  0.00  0.00     0.167 HD
ENDBRANCH  24  26
ENDBRANCH   1  24
BRANCH   7  28
HETATM   28  O   UNL     1       6.730   8.558  20.457  0.00  0.00    -0.358 OA
HETATM   29  H   UNL     1       7.120   8.023  21.181  0.00  0.00     0.217 HD
ENDBRANCH   7  28
TORSDOF 6
ENDMDL
MODEL 2
REMARK VINA RESULT:    -7.096      3.223      4.095
REMARK INTER + INTRA:         -10.439
REMARK INTER:                  -9.186
REMARK INTRA:                  -1.252
REMARK UNBOUND:                -1.476
REMARK  6 active torsions:
REMARK  status: ('A' for Active; 'I' for Inactive)
REMARK    1  A    between atoms: O_1  and  C_2 
REMARK    2  A    between atoms: C_2  and  C_4 
REMARK    3  A    between atoms: C_6  and  C_7 
REMARK    4  A    between atoms: N_13  and  C_14 
REMARK    5  A    between atoms: C_21  and  O_22 
REMARK    6  A    between atoms: C_25  and  O_26 
ROOT
HETATM    1  C   UNL     1       5.639  11.092  20.264  0.00  0.00     0.073 C 
HETATM    2  C   UNL     1       6.640  12.065  20.442  0.00  0.00     0.039 C 
HETATM    3  C   UNL     1       7.327  12.202  21.658  0.00  0.00     0.048 C 
HETATM    4  C   UNL     1       6.941  11.387  22.730  0.00  0.00     0.100 C 
HETATM    5  C   UNL     1       6.049  10.324  22.525  0.00  0.00     0.079 C 
HETATM    6 BR   UNL     1       5.675   9.088  23.926  0.00  0.00    -0.045 Br
HETATM    7  C   UNL     1       5.395  10.182  21.297  0.00  0.00     0.102 C 
ENDROOT
BRANCH   3   8
HETATM    8  C   UNL     1       8.352  13.280  21.735  0.00  0.00     0.172 A 
HETATM    9  N   UNL     1       9.493  13.165  21.103  0.00  0.00    -0.151 NA
HETATM   10  N   UNL     1      10.121  14.360  21.300  0.00  0.00    -0.226 N 
HETATM   11  H   UNL     1      11.052  14.554  20.957  0.00  0.00     0.194 HD
HETATM   12  C   UNL     1       9.341  15.213  22.068  0.00  0.00     0.349 A 
HETATM   13  O   UNL     1       9.654  16.344  22.408  0.00  0.00    -0.245 OA
HETATM   14  N   UNL     1       8.198  14.493  22.363  0.00  0.00    -0.241 N 
BRANCH  14  15
HETATM   15  C   UNL     1       7.211  14.956  23.249  0.00  0.00     0.084 A 
HETATM   16  C   UNL     1       5.984  15.396  22.732  0.00  0.00     0.033 A 
HETATM   17  C   UNL     1       4.924  15.694  23.592  0.00  0.00     0.002 A 
HETATM   18  C   UNL     1       5.102  15.621  24.974  0.00  0.00     0.003 A 
HETATM   19  C   UNL     1       6.341  15.258  25.498  0.00  0.00     0.044 A 
HETATM   20  C   UNL     1       7.383  14.918  24.637  0.00  0.00     0.143 A 
HETATM   21  F   UNL     1       8.564  14.565  25.163  0.00  0.00    -0.204 F 
ENDBRANCH  14  15
ENDBRANCH   3   8
BRANCH   4  22
HETATM   22  O   UNL     1       7.322  11.629  24.023  0.00  0.00    -0.358 OA
HETATM   23  H   UNL     1       8.267  11.861  24.049  0.00  0.00     0.217 HD
ENDBRANCH   4  22
BRANCH   1  24
HETATM   24  C   UNL     1       4.865  11.127  18.992  0.00  0.00     0.179 C 
HETATM   25  O   UNL     1       3.693  11.469  18.951  0.00  0.00    -0.646 OA
BRANCH  24  26
HETATM   26  O   UNL     1       5.522  10.698  17.894  0.00  0.00    -0.773 OA
HETATM   27  H   UNL     1       5.007  10.823  17.067  0.00  0.00     0.167 HD
ENDBRANCH  24  26
ENDBRANCH   1  24
BRANCH   7  28
HETATM   28  O   UNL     1       4.477   9.174  21.112  0.00  0.00    -0.358 OA
HETATM   29  H   UNL     1       3.607   9.597  20.950  0.00  0.00     0.217 HD
ENDBRANCH   7  28
TORSDOF 6
ENDMDL
MODEL 3
REMARK VINA RESULT:    -6.859      1.100      1.149
REMARK INTER + INTRA:         -10.140
REMARK INTER:                  -8.652
REMARK INTRA:                  -1.488
REMARK UNBOUND:                -1.476
REMARK  6 active torsions:
REMARK  status: ('A' for Active; 'I' for Inactive)
REMARK    1  A    between atoms: O_1  and  C_2 
REMARK    2  A    between atoms: C_2  and  C_4 
REMARK    3  A    between atoms: C_6  and  C_7 
REMARK    4  A    between atoms: N_13  and  C_14 
REMARK    5  A    between atoms: C_21  and  O_22 
REMARK    6  A    between atoms: C_25  and  O_26 
ROOT
HETATM    1  C   UNL     1       5.173  10.959  20.374  0.00  0.00     0.073 C 
HETATM    2  C   UNL     1       4.708  12.101  21.054  0.00  0.00     0.039 C 
HETATM    3  C   UNL     1       4.194  12.025  22.358  0.00  0.00     0.048 C 
HETATM    4  C   UNL     1       4.086  10.760  22.951  0.00  0.00     0.100 C 
HETATM    5  C   UNL     1       4.673   9.641  22.344  0.00  0.00     0.079 C 
HETATM    6 BR   UNL     1       4.708   7.959  23.239  0.00  0.00    -0.045 Br
HETATM    7  C   UNL     1       5.209   9.740  21.056  0.00  0.00     0.102 C 
ENDROOT
BRANCH   3   8
HETATM    8  C   UNL     1       3.713  13.295  22.969  0.00  0.00     0.172 A 
HETATM    9  N   UNL     1       2.440  13.598  22.969  0.00  0.00    -0.151 NA
HETATM   10  N   UNL     1       2.357  14.749  23.696  0.00  0.00    -0.226 N 
HETATM   11  H   UNL     1       1.489  15.249  23.837  0.00  0.00     0.194 HD
HETATM   12  C   UNL     1       3.608  15.149  24.143  0.00  0.00     0.349 A 
HETATM   13  O   UNL     1       3.836  16.147  24.809  0.00  0.00    -0.245 OA
HETATM   14  N   UNL     1       4.488  14.204  23.647  0.00  0.00    -0.241 N 
BRANCH  14  15
HETATM   15  C   UNL     1       5.884  14.329  23.759  0.00  0.00     0.084 A 
HETATM   16  C   UNL     1       6.568  15.158  22.857  0.00  0.00     0.033 A 
HETATM   17  C   UNL     1       7.922  15.440  23.050  0.00  0.00     0.002 A 
HETATM   18  C   UNL     1       8.619  14.845  24.101  0.00  0.00     0.003 A 
HETATM   19  C   UNL     1       7.965  13.960  24.957  0.00  0.00     0.044 A 
HETATM   20  C   UNL     1       6.604  13.716  24.789  0.00  0.00     0.143 A 
HETATM   21  F   UNL     1       5.994  12.867  25.628  0.00  0.00    -0.204 F 
ENDBRANCH  14  15
ENDBRANCH   3   8
BRANCH   4  22
HETATM   22  O   UNL     1       3.339  10.529  24.076  0.00  0.00    -0.358 OA
HETATM   23  H   UNL     1       2.893   9.667  24.003  0.00  0.00     0.217 HD
ENDBRANCH   4  22
BRANCH   1  24
HETATM   24  C   UNL     1       5.555  11.120  18.944  0.00  0.00     0.179 C 
HETATM   25  O   UNL     1       4.750  11.451  18.087  0.00  0.00    -0.646 OA
BRANCH  24  26
HETATM   26  O   UNL     1       6.836  10.818  18.642  0.00  0.00    -0.773 OA
HETATM   27  H   UNL     1       6.947  10.508  17.716  0.00  0.00     0.167 HD
ENDBRANCH  24  26
ENDBRANCH   1  24
BRANCH   7  28
HETATM   28  O   UNL     1       5.735   8.630  20.436  0.00  0.00    -0.358 OA
HETATM   29  H   UNL     1       5.110   8.368  19.727  0.00  0.00     0.217 HD
ENDBRANCH   7  28
TORSDOF 6
ENDMDL
MODEL 4
REMARK VINA RESULT:    -6.732      3.056      4.487
REMARK INTER + INTRA:          -9.979
REMARK INTER:                  -8.652
REMARK INTRA:                  -1.328
REMARK UNBOUND:                -1.476
REMARK  6 active torsions:
REMARK  status: ('A' for Active; 'I' for Inactive)
REMARK    1  A    between atoms: O_1  and  C_2 
REMARK    2  A    between atoms: C_2  and  C_4 
REMARK    3  A    between atoms: C_6  and  C_7 
REMARK    4  A    between atoms: N_13  and  C_14 
REMARK    5  A    between atoms: C_21  and  O_22 
REMARK    6  A    between atoms: C_25  and  O_26 
ROOT
HETATM    1  C   UNL     1       4.685  11.144  22.348  0.00  0.00     0.073 C 
HETATM    2  C   UNL     1       5.752  11.976  21.960  0.00  0.00     0.039 C 
HETATM    3  C   UNL     1       7.064  11.489  21.852  0.00  0.00     0.048 C 
HETATM    4  C   UNL     1       7.305  10.157  22.212  0.00  0.00     0.100 C 
HETATM    5  C   UNL     1       6.235   9.286  22.461  0.00  0.00     0.079 C 
HETATM    6 BR   UNL     1       6.544   7.428  22.750  0.00  0.00    -0.045 Br
HETATM    7  C   UNL     1       4.929   9.780  22.535  0.00  0.00     0.102 C 
ENDROOT
BRANCH   3   8
HETATM    8  C   UNL     1       8.114  12.467  21.453  0.00  0.00     0.172 A 
HETATM    9  N   UNL     1       8.971  12.179  20.506  0.00  0.00    -0.151 NA
HETATM   10  N   UNL     1       9.694  13.323  20.333  0.00  0.00    -0.226 N 
HETATM   11  H   UNL     1      10.467  13.392  19.684  0.00  0.00     0.194 HD
HETATM   12  C   UNL     1       9.263  14.322  21.195  0.00  0.00     0.349 A 
HETATM   13  O   UNL     1       9.733  15.446  21.266  0.00  0.00    -0.245 OA
HETATM   14  N   UNL     1       8.245  13.747  21.934  0.00  0.00    -0.241 N 
BRANCH  14  15
HETATM   15  C   UNL     1       7.637  14.392  23.025  0.00  0.00     0.084 A 
HETATM   16  C   UNL     1       6.620  15.327  22.782  0.00  0.00     0.033 A 
HETATM   17  C   UNL     1       5.878  15.851  23.843  0.00  0.00     0.002 A 
HETATM   18  C   UNL     1       6.189  15.498  25.157  0.00  0.00     0.003 A 
HETATM   19  C   UNL     1       7.247  14.628  25.411  0.00  0.00     0.044 A 
HETATM   20  C   UNL     1       7.956  14.072  24.348  0.00  0.00     0.143 A 
HETATM   21  F   UNL     1       8.966  13.232  24.616  0.00  0.00    -0.204 F 
ENDBRANCH  14  15
ENDBRANCH   3   8
BRANCH   4  22
HETATM   22  O   UNL     1       8.564   9.664  22.432  0.00  0.00    -0.358 OA
HETATM   23  H   UNL     1       8.794   9.757  23.372  0.00  0.00     0.217 HD
ENDBRANCH   4  22
BRANCH   1  24
HETATM   24  C   UNL     1       3.362  11.787  22.580  0.00  0.00     0.179 C 
HETATM   25  O   UNL     1       2.734  11.631  23.617  0.00  0.00    -0.646 OA
BRANCH  24  26
HETATM   26  O   UNL     1       2.869  12.506  21.549  0.00  0.00    -0.773 OA
HETATM   27  H   UNL     1       3.079  12.113  20.674  0.00  0.00     0.167 HD
ENDBRANCH  24  26
ENDBRANCH   1  24
BRANCH   7  28
HETATM   28  O   UNL     1       3.884   8.937  22.835  0.00  0.00    -0.358 OA
HETATM   29  H   UNL     1       4.227   8.253  23.449  0.00  0.00     0.217 HD
ENDBRANCH   7  28
TORSDOF 6
ENDMDL
MODEL 5
REMARK VINA RESULT:    -6.661      2.119      2.532
REMARK INTER + INTRA:          -9.890
REMARK INTER:                  -8.903
REMARK INTRA:                  -0.987
REMARK UNBOUND:                -1.476
REMARK  6 active torsions:
REMARK  status: ('A' for Active; 'I' for Inactive)
REMARK    1  A    between atoms: O_1  and  C_2 
REMARK    2  A    between atoms: C_2  and  C_4 
REMARK    3  A    between atoms: C_6  and  C_7 
REMARK    4  A    between atoms: N_13  and  C_14 
REMARK    5  A    between atoms: C_21  and  O_22 
REMARK    6  A    between atoms: C_25  and  O_26 
ROOT
HETATM    1  C   UNL     1       6.324  11.527  20.729  0.00  0.00     0.073 C 
HETATM    2  C   UNL     1       5.378  12.049  21.631  0.00  0.00     0.039 C 
HETATM    3  C   UNL     1       4.045  12.276  21.253  0.00  0.00     0.048 C 
HETATM    4  C   UNL     1       3.688  12.036  19.919  0.00  0.00     0.100 C 
HETATM    5  C   UNL     1       4.579  11.386  19.054  0.00  0.00     0.079 C 
HETATM    6 BR   UNL     1       4.030  10.873  17.303  0.00  0.00    -0.045 Br
HETATM    7  C   UNL     1       5.896  11.139  19.456  0.00  0.00     0.102 C 
ENDROOT
BRANCH   3   8
HETATM    8  C   UNL     1       3.140  12.850  22.287  0.00  0.00     0.172 A 
HETATM    9  N   UNL     1       1.846  12.668  22.219  0.00  0.00    -0.151 NA
HETATM   10  N   UNL     1       1.356  13.223  23.365  0.00  0.00    -0.226 N 
HETATM   11  H   UNL     1       0.368  13.268  23.575  0.00  0.00     0.194 HD
HETATM   12  C   UNL     1       2.379  13.751  24.140  0.00  0.00     0.349 A 
HETATM   13  O   UNL     1       2.233  14.315  25.213  0.00  0.00    -0.245 OA
HETATM   14  N   UNL     1       3.536  13.520  23.419  0.00  0.00    -0.241 N 
BRANCH  14  15
HETATM   15  C   UNL     1       4.787  14.035  23.799  0.00  0.00     0.084 A 
HETATM   16  C   UNL     1       5.194  15.278  23.290  0.00  0.00     0.033 A 
HETATM   17  C   UNL     1       6.346  15.896  23.782  0.00  0.00     0.002 A 
HETATM   18  C   UNL     1       7.135  15.251  24.735  0.00  0.00     0.003 A 
HETATM   19  C   UNL     1       6.779  13.982  25.189  0.00  0.00     0.044 A 
HETATM   20  C   UNL     1       5.605  13.388  24.730  0.00  0.00     0.143 A 
HETATM   21  F   UNL     1       5.278  12.170  25.186  0.00  0.00    -0.204 F 
ENDBRANCH  14  15
ENDBRANCH   3   8
BRANCH   4  22
HETATM   22  O   UNL     1       2.521  12.494  19.370  0.00  0.00    -0.358 OA
HETATM   23  H   UNL     1       1.858  12.629  20.070  0.00  0.00     0.217 HD
ENDBRANCH   4  22
BRANCH   1  24
HETATM   24  C   UNL     1       7.742  11.467  21.179  0.00  0.00     0.179 C 
HETATM   25  O   UNL     1       8.052  11.144  22.315  0.00  0.00    -0.646 OA
BRANCH  24  26
HETATM   26  O   UNL     1       8.664  11.850  20.269  0.00  0.00    -0.773 OA
HETATM   27  H   UNL     1       8.348  12.575  19.687  0.00  0.00     0.167 HD
ENDBRANCH  24  26
ENDBRANCH   1  24
BRANCH   7  28
HETATM   28  O   UNL     1       6.788  10.552  18.589  0.00  0.00    -0.358 OA
HETATM   29  H   UNL     1       6.766   9.585  18.756  0.00  0.00     0.217 HD
ENDBRANCH   7  28
TORSDOF 6
ENDMDL
MODEL 6
REMARK VINA RESULT:    -6.624      3.247      4.843
REMARK INTER + INTRA:          -9.842
REMARK INTER:                  -8.503
REMARK INTRA:                  -1.339
REMARK UNBOUND:                -1.476
REMARK  6 active torsions:
REMARK  status: ('A' for Active; 'I' for Inactive)
REMARK    1  A    between atoms: O_1  and  C_2 
REMARK    2  A    between atoms: C_2  and  C_4 
REMARK    3  A    between atoms: C_6  and  C_7 
REMARK    4  A    between atoms: N_13  and  C_14 
REMARK    5  A    between atoms: C_21  and  O_22 
REMARK    6  A    between atoms: C_25  and  O_26 
ROOT
HETATM    1  C   UNL     1       5.622  10.827  22.895  0.00  0.00     0.073 C 
HETATM    2  C   UNL     1       6.630  11.807  22.831  0.00  0.00     0.039 C 
HETATM    3  C   UNL     1       7.248  12.151  21.618  0.00  0.00     0.048 C 
HETATM    4  C   UNL     1       6.884  11.439  20.467  0.00  0.00     0.100 C 
HETATM    5  C   UNL     1       5.787  10.566  20.492  0.00  0.00     0.079 C 
HETATM    6 BR   UNL     1       5.160   9.751  18.888  0.00  0.00    -0.045 Br
HETATM    7  C   UNL     1       5.163  10.256  21.705  0.00  0.00     0.102 C 
ENDROOT
BRANCH   3   8
HETATM    8  C   UNL     1       8.316  13.187  21.676  0.00  0.00     0.172 A 
HETATM    9  N   UNL     1       9.441  13.026  21.026  0.00  0.00    -0.151 NA
HETATM   10  N   UNL     1      10.119  14.195  21.211  0.00  0.00    -0.226 N 
HETATM   11  H   UNL     1      11.052  14.352  20.852  0.00  0.00     0.194 HD
HETATM   12  C   UNL     1       9.386  15.080  21.989  0.00  0.00     0.349 A 
HETATM   13  O   UNL     1       9.749  16.198  22.321  0.00  0.00    -0.245 OA
HETATM   14  N   UNL     1       8.220  14.406  22.303  0.00  0.00    -0.241 N 
BRANCH  14  15
HETATM   15  C   UNL     1       7.266  14.910  23.203  0.00  0.00     0.084 A 
HETATM   16  C   UNL     1       6.086  15.478  22.699  0.00  0.00     0.033 A 
HETATM   17  C   UNL     1       5.047  15.825  23.565  0.00  0.00     0.002 A 
HETATM   18  C   UNL     1       5.202  15.672  24.943  0.00  0.00     0.003 A 
HETATM   19  C   UNL     1       6.400  15.180  25.457  0.00  0.00     0.044 A 
HETATM   20  C   UNL     1       7.418  14.792  24.588  0.00  0.00     0.143 A 
HETATM   21  F   UNL     1       8.559  14.315  25.105  0.00  0.00    -0.204 F 
ENDBRANCH  14  15
ENDBRANCH   3   8
BRANCH   4  22
HETATM   22  O   UNL     1       7.615  11.476  19.310  0.00  0.00    -0.358 OA
HETATM   23  H   UNL     1       7.321  12.223  18.759  0.00  0.00     0.217 HD
ENDBRANCH   4  22
BRANCH   1  24
HETATM   24  C   UNL     1       5.139  10.425  24.245  0.00  0.00     0.179 C 
HETATM   25  O   UNL     1       5.029   9.255  24.576  0.00  0.00    -0.646 OA
BRANCH  24  26
HETATM   26  O   UNL     1       4.773  11.436  25.062  0.00  0.00    -0.773 OA
HETATM   27  H   UNL     1       4.979  12.322  24.691  0.00  0.00     0.167 HD
ENDBRANCH  24  26
ENDBRANCH   1  24
BRANCH   7  28
HETATM   28  O   UNL     1       4.122   9.356  21.739  0.00  0.00    -0.358 OA
HETATM   29  H   UNL     1       3.624   9.518  22.569  0.00  0.00     0.217 HD
ENDBRANCH   7  28
TORSDOF 6
ENDMDL
MODEL 7
REMARK VINA RESULT:    -6.515      3.299      5.697
REMARK INTER + INTRA:          -9.706
REMARK INTER:                  -8.294
REMARK INTRA:                  -1.412
REMARK UNBOUND:                -1.476
REMARK  6 active torsions:
REMARK  status: ('A' for Active; 'I' for Inactive)
REMARK    1  A    between atoms: O_1  and  C_2 
REMARK    2  A    between atoms: C_2  and  C_4 
REMARK    3  A    between atoms: C_6  and  C_7 
REMARK    4  A    between atoms: N_13  and  C_14 
REMARK    5  A    between atoms: C_21  and  O_22 
REMARK    6  A    between atoms: C_25  and  O_26 
ROOT
HETATM    1  C   UNL     1       5.481  14.650  23.094  0.00  0.00     0.073 C 
HETATM    2  C   UNL     1       5.592  13.630  22.131  0.00  0.00     0.039 C 
HETATM    3  C   UNL     1       4.502  12.810  21.797  0.00  0.00     0.048 C 
HETATM    4  C   UNL     1       3.305  12.984  22.504  0.00  0.00     0.100 C 
HETATM    5  C   UNL     1       3.141  14.083  23.358  0.00  0.00     0.079 C 
HETATM    6 BR   UNL     1       1.452  14.442  24.164  0.00  0.00    -0.045 Br
HETATM    7  C   UNL     1       4.229  14.910  23.658  0.00  0.00     0.102 C 
ENDROOT
BRANCH   3   8
HETATM    8  C   UNL     1       4.743  11.750  20.779  0.00  0.00     0.172 A 
HETATM    9  N   UNL     1       4.085  11.747  19.647  0.00  0.00    -0.151 NA
HETATM   10  N   UNL     1       4.633  10.724  18.930  0.00  0.00    -0.226 N 
HETATM   11  H   UNL     1       4.296  10.453  18.015  0.00  0.00     0.194 HD
HETATM   12  C   UNL     1       5.644  10.098  19.645  0.00  0.00     0.349 A 
HETATM   13  O   UNL     1       6.302   9.147  19.253  0.00  0.00    -0.245 OA
HETATM   14  N   UNL     1       5.695  10.762  20.856  0.00  0.00    -0.241 N 
BRANCH  14  15
HETATM   15  C   UNL     1       6.499  10.336  21.927  0.00  0.00     0.084 A 
HETATM   16  C   UNL     1       5.990   9.385  22.825  0.00  0.00     0.033 A 
HETATM   17  C   UNL     1       6.821   8.812  23.790  0.00  0.00     0.002 A 
HETATM   18  C   UNL     1       8.146   9.232  23.911  0.00  0.00     0.003 A 
HETATM   19  C   UNL     1       8.639  10.231  23.073  0.00  0.00     0.044 A 
HETATM   20  C   UNL     1       7.819  10.768  22.082  0.00  0.00     0.143 A 
HETATM   21  F   UNL     1       8.316  11.723  21.283  0.00  0.00    -0.204 F 
ENDBRANCH  14  15
ENDBRANCH   3   8
BRANCH   4  22
HETATM   22  O   UNL     1       2.288  12.067  22.479  0.00  0.00    -0.358 OA
HETATM   23  H   UNL     1       2.658  11.167  22.465  0.00  0.00     0.217 HD
ENDBRANCH   4  22
BRANCH   1  24
HETATM   24  C   UNL     1       6.729  15.362  23.487  0.00  0.00     0.179 C 
HETATM   25  O   UNL     1       7.543  15.753  22.664  0.00  0.00    -0.646 OA
BRANCH  24  26
HETATM   26  O   UNL     1       6.935  15.497  24.814  0.00  0.00    -0.773 OA
HETATM   27  H   UNL     1       7.867  15.713  25.037  0.00  0.00     0.167 HD
ENDBRANCH  24  26
ENDBRANCH   1  24
BRANCH   7  28
HETATM   28  O   UNL     1       4.084  15.956  24.540  0.00  0.00    -0.358 OA
HETATM   29  H   UNL     1       3.549  15.629  25.295  0.00  0.00     0.217 HD
ENDBRANCH   7  28
TORSDOF 6
ENDMDL
MODEL 8
REMARK VINA RESULT:    -6.485      3.635      5.933
REMARK INTER + INTRA:          -9.667
REMARK INTER:                  -8.190
REMARK INTRA:                  -1.476
REMARK UNBOUND:                -1.476
REMARK  6 active torsions:
REMARK  status: ('A' for Active; 'I' for Inactive)
REMARK    1  A    between atoms: O_1  and  C_2 
REMARK    2  A    between atoms: C_2  and  C_4 
REMARK    3  A    between atoms: C_6  and  C_7 
REMARK    4  A    between atoms: N_13  and  C_14 
REMARK    5  A    between atoms: C_21  and  O_22 
REMARK    6  A    between atoms: C_25  and  O_26 
ROOT
HETATM    1  C   UNL     1       7.587  14.111  22.055  0.00  0.00     0.073 C 
HETATM    2  C   UNL     1       7.331  13.002  21.227  0.00  0.00     0.039 C 
HETATM    3  C   UNL     1       6.049  12.440  21.124  0.00  0.00     0.048 C 
HETATM    4  C   UNL     1       5.030  12.969  21.927  0.00  0.00     0.100 C 
HETATM    5  C   UNL     1       5.238  14.157  22.642  0.00  0.00     0.079 C 
HETATM    6 BR   UNL     1       3.800  14.993  23.571  0.00  0.00    -0.045 Br
HETATM    7  C   UNL     1       6.515  14.722  22.711  0.00  0.00     0.102 C 
ENDROOT
BRANCH   3   8
HETATM    8  C   UNL     1       5.902  11.255  20.233  0.00  0.00     0.172 A 
HETATM    9  N   UNL     1       5.757  11.404  18.940  0.00  0.00    -0.151 NA
HETATM   10  N   UNL     1       5.768  10.134  18.442  0.00  0.00    -0.226 N 
HETATM   11  H   UNL     1       5.634   9.928  17.461  0.00  0.00     0.194 HD
HETATM   12  C   UNL     1       5.923   9.200  19.457  0.00  0.00     0.349 A 
HETATM   13  O   UNL     1       5.960   7.989  19.304  0.00  0.00    -0.245 OA
HETATM   14  N   UNL     1       5.991   9.940  20.623  0.00  0.00    -0.241 N 
BRANCH  14  15
HETATM   15  C   UNL     1       6.005   9.354  21.900  0.00  0.00     0.084 A 
HETATM   16  C   UNL     1       4.819   8.801  22.408  0.00  0.00     0.033 A 
HETATM   17  C   UNL     1       4.840   8.059  23.591  0.00  0.00     0.002 A 
HETATM   18  C   UNL     1       6.028   7.919  24.310  0.00  0.00     0.003 A 
HETATM   19  C   UNL     1       7.194   8.529  23.851  0.00  0.00     0.044 A 
HETATM   20  C   UNL     1       7.179   9.231  22.647  0.00  0.00     0.143 A 
HETATM   21  F   UNL     1       8.315   9.804  22.222  0.00  0.00    -0.204 F 
ENDBRANCH  14  15
ENDBRANCH   3   8
BRANCH   4  22
HETATM   22  O   UNL     1       3.838  12.327  22.132  0.00  0.00    -0.358 OA
HETATM   23  H   UNL     1       3.941  11.659  22.831  0.00  0.00     0.217 HD
ENDBRANCH   4  22
BRANCH   1  24
HETATM   24  C   UNL     1       9.006  14.537  22.214  0.00  0.00     0.179 C 
HETATM   25  O   UNL     1       9.753  14.682  21.259  0.00  0.00    -0.646 OA
BRANCH  24  26
HETATM   26  O   UNL     1       9.432  14.694  23.485  0.00  0.00    -0.773 OA
HETATM   27  H   UNL     1       9.488  13.846  23.978  0.00  0.00     0.167 HD
ENDBRANCH  24  26
ENDBRANCH   1  24
BRANCH   7  28
HETATM   28  O   UNL     1       6.733  15.856  23.459  0.00  0.00    -0.358 OA
HETATM   29  H   UNL     1       6.572  16.627  22.874  0.00  0.00     0.217 HD
ENDBRANCH   7  28
TORSDOF 6
ENDMDL
MODEL 9
REMARK VINA RESULT:    -6.470      3.223      4.772
REMARK INTER + INTRA:          -9.648
REMARK INTER:                  -8.283
REMARK INTRA:                  -1.366
REMARK UNBOUND:                -1.476
REMARK  6 active torsions:
REMARK  status: ('A' for Active; 'I' for Inactive)
REMARK    1  A    between atoms: O_1  and  C_2 
REMARK    2  A    between atoms: C_2  and  C_4 
REMARK    3  A    between atoms: C_6  and  C_7 
REMARK    4  A    between atoms: N_13  and  C_14 
REMARK    5  A    between atoms: C_21  and  O_22 
REMARK    6  A    between atoms: C_25  and  O_26 
ROOT
HETATM    1  C   UNL     1       5.511   9.331  22.880  0.00  0.00     0.073 C 
HETATM    2  C   UNL     1       6.464  10.042  23.633  0.00  0.00     0.039 C 
HETATM    3  C   UNL     1       7.366  10.932  23.028  0.00  0.00     0.048 C 
HETATM    4  C   UNL     1       7.346  11.044  21.632  0.00  0.00     0.100 C 
HETATM    5  C   UNL     1       6.314  10.453  20.890  0.00  0.00     0.079 C 
HETATM    6 BR   UNL     1       6.163  10.770  19.017  0.00  0.00    -0.045 Br
HETATM    7  C   UNL     1       5.403   9.593  21.512  0.00  0.00     0.102 C 
ENDROOT
BRANCH   3   8
HETATM    8  C   UNL     1       8.343  11.613  23.923  0.00  0.00     0.172 A 
HETATM    9  N   UNL     1       9.419  10.992  24.335  0.00  0.00    -0.151 NA
HETATM   10  N   UNL     1      10.121  11.936  25.026  0.00  0.00    -0.226 N 
HETATM   11  H   UNL     1      10.991  11.735  25.501  0.00  0.00     0.194 HD
HETATM   12  C   UNL     1       9.452  13.152  25.031  0.00  0.00     0.349 A 
HETATM   13  O   UNL     1       9.842  14.171  25.580  0.00  0.00    -0.245 OA
HETATM   14  N   UNL     1       8.285  12.925  24.325  0.00  0.00    -0.241 N 
BRANCH  14  15
HETATM   15  C   UNL     1       7.257  13.878  24.225  0.00  0.00     0.084 A 
HETATM   16  C   UNL     1       7.444  14.997  23.399  0.00  0.00     0.033 A 
HETATM   17  C   UNL     1       6.381  15.866  23.140  0.00  0.00     0.002 A 
HETATM   18  C   UNL     1       5.145  15.664  23.756  0.00  0.00     0.003 A 
HETATM   19  C   UNL     1       4.973  14.599  24.638  0.00  0.00     0.044 A 
HETATM   20  C   UNL     1       6.022  13.708  24.859  0.00  0.00     0.143 A 
HETATM   21  F   UNL     1       5.832  12.687  25.706  0.00  0.00    -0.204 F 
ENDBRANCH  14  15
ENDBRANCH   3   8
BRANCH   4  22
HETATM   22  O   UNL     1       8.354  11.637  20.920  0.00  0.00    -0.358 OA
HETATM   23  H   UNL     1       8.358  12.595  21.092  0.00  0.00     0.217 HD
ENDBRANCH   4  22
BRANCH   1  24
HETATM   24  C   UNL     1       4.704   8.301  23.591  0.00  0.00     0.179 C 
HETATM   25  O   UNL     1       5.217   7.355  24.169  0.00  0.00    -0.646 OA
BRANCH  24  26
HETATM   26  O   UNL     1       3.364   8.444  23.507  0.00  0.00    -0.773 OA
HETATM   27  H   UNL     1       3.074   9.379  23.582  0.00  0.00     0.167 HD
ENDBRANCH  24  26
ENDBRANCH   1  24
BRANCH   7  28
HETATM   28  O   UNL     1       4.424   8.968  20.775  0.00  0.00    -0.358 OA
HETATM   29  H   UNL     1       4.279   9.505  19.966  0.00  0.00     0.217 HD
ENDBRANCH   7  28
TORSDOF 6
ENDMDL
