MODEL 1
REMARK VINA RESULT:    -8.442      0.000      0.000
REMARK INTER + INTRA:         -11.526
REMARK INTER:                 -10.460
REMARK INTRA:                  -1.066
REMARK UNBOUND:                -0.863
REMARK  5 active torsions:
REMARK  status: ('A' for Active; 'I' for Inactive)
REMARK    1  A    between atoms: N_6  and  C_7 
REMARK    2  A    between atoms: C_12  and  N_13 
REMARK       I    between atoms: N_13  and  C_15 
REMARK    3  A    between atoms: C_15  and  C_17 
REMARK    4  A    between atoms: C_18  and  O_20 
REMARK    5  A    between atoms: C_24  and  C_28 
REMARK       I    between atoms: C_28  and  N_30 
ROOT
HETATM    1  C   UNL     1       5.153  12.370  21.304  0.00  0.00     0.066 C 
HETATM    2  C   UNL     1       4.123  12.666  22.221  0.00  0.00     0.083 C 
HETATM    3  C   UNL     1       4.292  13.572  23.278  0.00  0.00     0.069 C 
HETATM    4  C   UNL     1       6.370  13.074  21.434  0.00  0.00     0.036 C 
HETATM    5  C   UNL     1       6.619  13.875  22.578  0.00  0.00     0.029 C 
HETATM    6  C   UNL     1       5.563  14.131  23.439  0.00  0.00     0.065 C 
HETATM    7  C   UNL     1       7.761  14.501  23.195  0.00  0.00     0.157 C 
HETATM    8  N   UNL     1       7.372  15.231  24.262  0.00  0.00    -0.168 NA
HETATM    9  N   UNL     1       6.058  14.995  24.375  0.00  0.00    -0.277 N 
HETATM   10  H   UNL     1       5.553  15.430  25.133  0.00  0.00     0.189 HD
ENDROOT
BRANCH   1  11
HETATM   11  C   UNL     1       4.901  11.306  20.244  0.00  0.00     0.260 C 
HETATM   12  N   UNL     1       5.529  10.026  20.305  0.00  0.00    -0.318 N 
HETATM   13  C   UNL     1       6.424   9.690  21.418  0.00  0.00     0.159 C 
HETATM   14  O   UNL     1       4.065  11.637  19.395  0.00  0.00    -0.267 OA
BRANCH  12  15
HETATM   15  C   UNL     1       5.253   8.939  19.361  0.00  0.00     0.037 A 
HETATM   16  C   UNL     1       4.358   7.910  19.697  0.00  0.00     0.032 A 
HETATM   17  C   UNL     1       3.926   6.940  18.774  0.00  0.00     0.031 A 
HETATM   18  C   UNL     1       4.394   6.898  17.461  0.00  0.00     0.030 A 
HETATM   19  C   UNL     1       5.369   7.851  17.150  0.00  0.00     0.031 A 
HETATM   20  C   UNL     1       5.787   8.850  18.072  0.00  0.00     0.032 A 
BRANCH  18  21
HETATM   21  N   UNL     1       3.925   5.952  16.572  0.00  0.00    -0.377 N 
HETATM   22  C   UNL     1       3.512   6.246  15.191  0.00  0.00     0.149 C 
HETATM   23  C   UNL     1       2.010   5.972  15.012  0.00  0.00     0.187 C 
HETATM   24  O   UNL     1       1.673   4.623  15.386  0.00  0.00    -0.388 OA
HETATM   25  C   UNL     1       2.018   4.389  16.762  0.00  0.00     0.187 C 
HETATM   26  C   UNL     1       3.521   4.601  17.019  0.00  0.00     0.149 C 
ENDBRANCH  18  21
ENDBRANCH  12  15
ENDBRANCH   1  11
BRANCH   2  27
HETATM   27  O   UNL     1       2.876  12.094  22.158  0.00  0.00    -0.360 OA
HETATM   28  H   UNL     1       2.930  11.212  22.593  0.00  0.00     0.217 HD
ENDBRANCH   2  27
BRANCH   7  29
HETATM   29  C   UNL     1       9.180  14.389  22.773  0.00  0.00     0.275 C 
HETATM   30  O   UNL     1       9.512  14.762  21.649  0.00  0.00    -0.266 OA
HETATM   31  N   UNL     1      10.132  13.845  23.659  0.00  0.00    -0.343 N 
HETATM   32  C   UNL     1      11.534  13.805  23.232  0.00  0.00     0.152 C 
HETATM   33  C   UNL     1       9.813  12.819  24.665  0.00  0.00     0.152 C 
HETATM   34  C   UNL     1      12.491  13.756  24.432  0.00  0.00     0.187 C 
HETATM   35  O   UNL     1      12.162  12.680  25.322  0.00  0.00    -0.388 OA
HETATM   36  C   UNL     1      10.824  12.835  25.816  0.00  0.00     0.187 C 
ENDBRANCH   7  29
TORSDOF 5
ENDMDL
MODEL 2
REMARK VINA RESULT:    -8.401      1.079      1.262
REMARK INTER + INTRA:         -11.473
REMARK INTER:                 -10.708
REMARK INTRA:                  -0.766
REMARK UNBOUND:                -0.863
REMARK  5 active torsions:
REMARK  status: ('A' for Active; 'I' for Inactive)
REMARK    1  A    between atoms: N_6  and  C_7 
REMARK    2  A    between atoms: C_12  and  N_13 
REMARK       I    between atoms: N_13  and  C_15 
REMARK    3  A    between atoms: C_15  and  C_17 
REMARK    4  A    between atoms: C_18  and  O_20 
REMARK    5  A    between atoms: C_24  and  C_28 
REMARK       I    between atoms: C_28  and  N_30 
ROOT
HETATM    1  C   UNL     1       5.491  11.804  21.006  0.00  0.00     0.066 C 
HETATM    2  C   UNL     1       4.414  12.358  21.729  0.00  0.00     0.083 C 
HETATM    3  C   UNL     1       4.535  13.538  22.476  0.00  0.00     0.069 C 
HETATM    4  C   UNL     1       6.709  12.518  20.993  0.00  0.00     0.036 C 
HETATM    5  C   UNL     1       6.904  13.624  21.859  0.00  0.00     0.029 C 
HETATM    6  C   UNL     1       5.803  14.123  22.540  0.00  0.00     0.065 C 
HETATM    7  C   UNL     1       8.018  14.409  22.329  0.00  0.00     0.157 C 
HETATM    8  N   UNL     1       7.578  15.423  23.105  0.00  0.00    -0.168 NA
HETATM    9  N   UNL     1       6.256  15.228  23.203  0.00  0.00    -0.277 N 
HETATM   10  H   UNL     1       5.716  15.869  23.766  0.00  0.00     0.189 HD
ENDROOT
BRANCH   1  11
HETATM   11  C   UNL     1       5.284  10.471  20.298  0.00  0.00     0.260 C 
HETATM   12  N   UNL     1       4.655  10.395  19.020  0.00  0.00    -0.318 N 
HETATM   13  C   UNL     1       4.210  11.613  18.336  0.00  0.00     0.159 C 
HETATM   14  O   UNL     1       5.769   9.507  20.901  0.00  0.00    -0.267 OA
BRANCH  12  15
HETATM   15  C   UNL     1       4.510   9.150  18.259  0.00  0.00     0.037 A 
HETATM   16  C   UNL     1       3.887   8.029  18.834  0.00  0.00     0.032 A 
HETATM   17  C   UNL     1       3.568   6.872  18.100  0.00  0.00     0.031 A 
HETATM   18  C   UNL     1       3.892   6.729  16.751  0.00  0.00     0.030 A 
HETATM   19  C   UNL     1       4.612   7.795  16.201  0.00  0.00     0.031 A 
HETATM   20  C   UNL     1       4.911   8.978  16.931  0.00  0.00     0.032 A 
BRANCH  18  21
HETATM   21  N   UNL     1       3.537   5.592  16.054  0.00  0.00    -0.377 N 
HETATM   22  C   UNL     1       3.139   5.580  14.637  0.00  0.00     0.149 C 
HETATM   23  C   UNL     1       1.674   5.138  14.496  0.00  0.00     0.187 C 
HETATM   24  O   UNL     1       1.449   3.859  15.116  0.00  0.00    -0.388 OA
HETATM   25  C   UNL     1       1.773   3.922  16.515  0.00  0.00     0.187 C 
HETATM   26  C   UNL     1       3.242   4.318  16.745  0.00  0.00     0.149 C 
ENDBRANCH  18  21
ENDBRANCH  12  15
ENDBRANCH   1  11
BRANCH   2  27
HETATM   27  O   UNL     1       3.164  11.790  21.765  0.00  0.00    -0.360 OA
HETATM   28  H   UNL     1       2.547  12.452  22.153  0.00  0.00     0.217 HD
ENDBRANCH   2  27
BRANCH   7  29
HETATM   29  C   UNL     1       9.457  14.179  22.046  0.00  0.00     0.275 C 
HETATM   30  O   UNL     1       9.864  14.230  20.887  0.00  0.00    -0.266 OA
HETATM   31  N   UNL     1      10.341  13.893  23.106  0.00  0.00    -0.343 N 
HETATM   32  C   UNL     1      11.765  13.731  22.797  0.00  0.00     0.152 C 
HETATM   33  C   UNL     1       9.939  13.182  24.330  0.00  0.00     0.152 C 
HETATM   34  C   UNL     1      12.646  14.007  24.024  0.00  0.00     0.187 C 
HETATM   35  O   UNL     1      12.240  13.216  25.150  0.00  0.00    -0.388 OA
HETATM   36  C   UNL     1      10.878  13.507  25.497  0.00  0.00     0.187 C 
ENDBRANCH   7  29
TORSDOF 5
ENDMDL
MODEL 3
REMARK VINA RESULT:    -8.293      2.148      2.685
REMARK INTER + INTRA:         -11.337
REMARK INTER:                 -10.393
REMARK INTRA:                  -0.945
REMARK UNBOUND:                -0.863
REMARK  5 active torsions:
REMARK  status: ('A' for Active; 'I' for Inactive)
REMARK    1  A    between atoms: N_6  and  C_7 
REMARK    2  A    between atoms: C_12  and  N_13 
REMARK       I    between atoms: N_13  and  C_15 
REMARK    3  A    between atoms: C_15  and  C_17 
REMARK    4  A    between atoms: C_18  and  O_20 
REMARK    5  A    between atoms: C_24  and  C_28 
REMARK       I    between atoms: C_28  and  N_30 
ROOT
HETATM    1  C   UNL     1       7.252  12.220  23.653  0.00  0.00     0.066 C 
HETATM    2  C   UNL     1       6.381  12.319  24.758  0.00  0.00     0.083 C 
HETATM    3  C   UNL     1       6.584  13.236  25.799  0.00  0.00     0.069 C 
HETATM    4  C   UNL     1       8.324  13.135  23.579  0.00  0.00     0.036 C 
HETATM    5  C   UNL     1       8.640  13.965  24.685  0.00  0.00     0.029 C 
HETATM    6  C   UNL     1       7.741  14.019  25.740  0.00  0.00     0.065 C 
HETATM    7  C   UNL     1       9.749  14.788  25.100  0.00  0.00     0.157 C 
HETATM    8  N   UNL     1       9.447  15.429  26.250  0.00  0.00    -0.168 NA
HETATM    9  N   UNL     1       8.243  14.956  26.598  0.00  0.00    -0.277 N 
HETATM   10  H   UNL     1       7.824  15.288  27.454  0.00  0.00     0.189 HD
ENDROOT
BRANCH   1  11
HETATM   11  C   UNL     1       6.996  11.132  22.619  0.00  0.00     0.260 C 
HETATM   12  N   UNL     1       5.995  11.278  21.613  0.00  0.00    -0.318 N 
HETATM   13  C   UNL     1       5.196  12.506  21.532  0.00  0.00     0.159 C 
HETATM   14  O   UNL     1       7.772  10.174  22.702  0.00  0.00    -0.267 OA
BRANCH  12  15
HETATM   15  C   UNL     1       5.768  10.301  20.544  0.00  0.00     0.037 A 
HETATM   16  C   UNL     1       5.071   9.108  20.802  0.00  0.00     0.032 A 
HETATM   17  C   UNL     1       4.677   8.218  19.785  0.00  0.00     0.031 A 
HETATM   18  C   UNL     1       4.992   8.430  18.444  0.00  0.00     0.030 A 
HETATM   19  C   UNL     1       5.781   9.556  18.192  0.00  0.00     0.031 A 
HETATM   20  C   UNL     1       6.158  10.473  19.212  0.00  0.00     0.032 A 
BRANCH  18  21
HETATM   21  N   UNL     1       4.562   7.552  17.469  0.00  0.00    -0.377 N 
HETATM   22  C   UNL     1       3.881   7.959  16.230  0.00  0.00     0.149 C 
HETATM   23  C   UNL     1       2.445   7.412  16.205  0.00  0.00     0.187 C 
HETATM   24  O   UNL     1       2.423   5.982  16.371  0.00  0.00    -0.388 OA
HETATM   25  C   UNL     1       3.027   5.620  17.625  0.00  0.00     0.187 C 
HETATM   26  C   UNL     1       4.488   6.095  17.715  0.00  0.00     0.149 C 
ENDBRANCH  18  21
ENDBRANCH  12  15
ENDBRANCH   1  11
BRANCH   2  27
HETATM   27  O   UNL     1       5.268  11.528  24.909  0.00  0.00    -0.360 OA
HETATM   28  H   UNL     1       5.195  10.961  24.107  0.00  0.00     0.217 HD
ENDBRANCH   2  27
BRANCH   7  29
HETATM   29  C   UNL     1      11.056  14.940  24.415  0.00  0.00     0.275 C 
HETATM   30  O   UNL     1      11.119  15.557  23.354  0.00  0.00    -0.266 OA
HETATM   31  N   UNL     1      12.213  14.364  24.980  0.00  0.00    -0.343 N 
HETATM   32  C   UNL     1      13.497  14.585  24.308  0.00  0.00     0.152 C 
HETATM   33  C   UNL     1      12.197  13.135  25.789  0.00  0.00     0.152 C 
HETATM   34  C   UNL     1      14.678  14.434  25.278  0.00  0.00     0.187 C 
HETATM   35  O   UNL     1      14.633  13.175  25.966  0.00  0.00    -0.388 OA
HETATM   36  C   UNL     1      13.415  13.062  26.716  0.00  0.00     0.187 C 
ENDBRANCH   7  29
TORSDOF 5
ENDMDL
MODEL 4
REMARK VINA RESULT:    -8.146      2.047      4.536
REMARK INTER + INTRA:         -11.151
REMARK INTER:                 -10.505
REMARK INTRA:                  -0.646
REMARK UNBOUND:                -0.863
REMARK  5 active torsions:
REMARK  status: ('A' for Active; 'I' for Inactive)
REMARK    1  A    between atoms: N_6  and  C_7 
REMARK    2  A    between atoms: C_12  and  N_13 
REMARK       I    between atoms: N_13  and  C_15 
REMARK    3  A    between atoms: C_15  and  C_17 
REMARK    4  A    between atoms: C_18  and  O_20 
REMARK    5  A    between atoms: C_24  and  C_28 
REMARK       I    between atoms: C_28  and  N_30 
ROOT
HETATM    1  C   UNL     1       6.877  11.979  21.010  0.00  0.00     0.066 C 
HETATM    2  C   UNL     1       8.242  12.237  21.258  0.00  0.00     0.083 C 
HETATM    3  C   UNL     1       8.671  13.179  22.204  0.00  0.00     0.069 C 
HETATM    4  C   UNL     1       5.927  12.657  21.803  0.00  0.00     0.036 C 
HETATM    5  C   UNL     1       6.326  13.720  22.653  0.00  0.00     0.029 C 
HETATM    6  C   UNL     1       7.683  13.920  22.857  0.00  0.00     0.065 C 
HETATM    7  C   UNL     1       5.680  14.787  23.378  0.00  0.00     0.157 C 
HETATM    8  N   UNL     1       6.589  15.469  24.108  0.00  0.00    -0.168 NA
HETATM    9  N   UNL     1       7.768  14.923  23.782  0.00  0.00    -0.277 N 
HETATM   10  H   UNL     1       8.605  15.298  24.201  0.00  0.00     0.189 HD
ENDROOT
BRANCH   1  11
HETATM   11  C   UNL     1       6.511  11.003  19.900  0.00  0.00     0.260 C 
HETATM   12  N   UNL     1       5.684   9.868  20.147  0.00  0.00    -0.318 N 
HETATM   13  C   UNL     1       5.137   9.623  21.486  0.00  0.00     0.159 C 
HETATM   14  O   UNL     1       6.937  11.333  18.787  0.00  0.00    -0.267 OA
BRANCH  12  15
HETATM   15  C   UNL     1       5.232   8.948  19.098  0.00  0.00     0.037 A 
HETATM   16  C   UNL     1       5.700   7.624  19.058  0.00  0.00     0.032 A 
HETATM   17  C   UNL     1       5.175   6.654  18.184  0.00  0.00     0.031 A 
HETATM   18  C   UNL     1       4.179   6.947  17.254  0.00  0.00     0.030 A 
HETATM   19  C   UNL     1       3.787   8.289  17.211  0.00  0.00     0.031 A 
HETATM   20  C   UNL     1       4.294   9.266  18.111  0.00  0.00     0.032 A 
BRANCH  18  21
HETATM   21  N   UNL     1       3.665   5.963  16.433  0.00  0.00    -0.377 N 
HETATM   22  C   UNL     1       3.192   6.195  15.059  0.00  0.00     0.149 C 
HETATM   23  C   UNL     1       1.682   5.926  14.961  0.00  0.00     0.187 C 
HETATM   24  O   UNL     1       1.353   4.600  15.413  0.00  0.00    -0.388 OA
HETATM   25  C   UNL     1       1.757   4.429  16.782  0.00  0.00     0.187 C 
HETATM   26  C   UNL     1       3.272   4.639  16.961  0.00  0.00     0.149 C 
ENDBRANCH  18  21
ENDBRANCH  12  15
ENDBRANCH   1  11
BRANCH   2  27
HETATM   27  O   UNL     1       9.259  11.595  20.596  0.00  0.00    -0.360 OA
HETATM   28  H   UNL     1       9.768  11.077  21.261  0.00  0.00     0.217 HD
ENDBRANCH   2  27
BRANCH   7  29
HETATM   29  C   UNL     1       4.239  15.139  23.356  0.00  0.00     0.275 C 
HETATM   30  O   UNL     1       3.901  16.319  23.289  0.00  0.00    -0.266 OA
HETATM   31  N   UNL     1       3.268  14.118  23.424  0.00  0.00    -0.343 N 
HETATM   32  C   UNL     1       1.855  14.497  23.339  0.00  0.00     0.152 C 
HETATM   33  C   UNL     1       3.475  12.846  24.135  0.00  0.00     0.152 C 
HETATM   34  C   UNL     1       0.984  13.332  22.847  0.00  0.00     0.187 C 
HETATM   35  O   UNL     1       1.185  12.155  23.643  0.00  0.00    -0.388 OA
HETATM   36  C   UNL     1       2.559  11.746  23.587  0.00  0.00     0.187 C 
ENDBRANCH   7  29
TORSDOF 5
ENDMDL
MODEL 5
REMARK VINA RESULT:    -8.141      1.366      1.586
REMARK INTER + INTRA:         -11.145
REMARK INTER:                 -10.272
REMARK INTRA:                  -0.873
REMARK UNBOUND:                -0.863
REMARK  5 active torsions:
REMARK  status: ('A' for Active; 'I' for Inactive)
REMARK    1  A    between atoms: N_6  and  C_7 
REMARK    2  A    between atoms: C_12  and  N_13 
REMARK       I    between atoms: N_13  and  C_15 
REMARK    3  A    between atoms: C_15  and  C_17 
REMARK    4  A    between atoms: C_18  and  O_20 
REMARK    5  A    between atoms: C_24  and  C_28 
REMARK       I    between atoms: C_28  and  N_30 
ROOT
HETATM    1  C   UNL     1       5.329  11.700  21.346  0.00  0.00     0.066 C 
HETATM    2  C   UNL     1       4.304  12.428  21.986  0.00  0.00     0.083 C 
HETATM    3  C   UNL     1       4.508  13.712  22.513  0.00  0.00     0.069 C 
HETATM    4  C   UNL     1       6.579  12.334  21.181  0.00  0.00     0.036 C 
HETATM    5  C   UNL     1       6.856  13.561  21.836  0.00  0.00     0.029 C 
HETATM    6  C   UNL     1       5.804  14.229  22.445  0.00  0.00     0.065 C 
HETATM    7  C   UNL     1       8.022  14.354  22.137  0.00  0.00     0.157 C 
HETATM    8  N   UNL     1       7.658  15.509  22.734  0.00  0.00    -0.168 NA
HETATM    9  N   UNL     1       6.332  15.406  22.895  0.00  0.00    -0.277 N 
HETATM   10  H   UNL     1       5.842  16.163  23.349  0.00  0.00     0.189 HD
ENDROOT
BRANCH   1  11
HETATM   11  C   UNL     1       5.033  10.279  20.887  0.00  0.00     0.260 C 
HETATM   12  N   UNL     1       4.907   9.952  19.504  0.00  0.00    -0.318 N 
HETATM   13  C   UNL     1       5.087  10.983  18.477  0.00  0.00     0.159 C 
HETATM   14  O   UNL     1       4.988   9.457  21.809  0.00  0.00    -0.267 OA
BRANCH  12  15
HETATM   15  C   UNL     1       4.711   8.587  19.006  0.00  0.00     0.037 A 
HETATM   16  C   UNL     1       3.568   8.256  18.259  0.00  0.00     0.032 A 
HETATM   17  C   UNL     1       3.409   7.015  17.614  0.00  0.00     0.031 A 
HETATM   18  C   UNL     1       4.356   5.997  17.709  0.00  0.00     0.030 A 
HETATM   19  C   UNL     1       5.444   6.278  18.542  0.00  0.00     0.031 A 
HETATM   20  C   UNL     1       5.623   7.540  19.172  0.00  0.00     0.032 A 
BRANCH  18  21
HETATM   21  N   UNL     1       4.182   4.804  17.038  0.00  0.00    -0.377 N 
HETATM   22  C   UNL     1       3.329   4.638  15.851  0.00  0.00     0.149 C 
HETATM   23  C   UNL     1       2.157   3.694  16.163  0.00  0.00     0.187 C 
HETATM   24  O   UNL     1       2.620   2.424  16.658  0.00  0.00    -0.388 OA
HETATM   25  C   UNL     1       3.386   2.611  17.860  0.00  0.00     0.187 C 
HETATM   26  C   UNL     1       4.610   3.515  17.624  0.00  0.00     0.149 C 
ENDBRANCH  18  21
ENDBRANCH  12  15
ENDBRANCH   1  11
BRANCH   2  27
HETATM   27  O   UNL     1       3.029  11.944  22.149  0.00  0.00    -0.360 OA
HETATM   28  H   UNL     1       3.032  11.359  22.941  0.00  0.00     0.217 HD
ENDBRANCH   2  27
BRANCH   7  29
HETATM   29  C   UNL     1       9.438  14.001  21.865  0.00  0.00     0.275 C 
HETATM   30  O   UNL     1       9.792  13.744  20.716  0.00  0.00    -0.266 OA
HETATM   31  N   UNL     1      10.363  13.952  22.928  0.00  0.00    -0.343 N 
HETATM   32  C   UNL     1      11.765  13.659  22.615  0.00  0.00     0.152 C 
HETATM   33  C   UNL     1       9.998  13.585  24.306  0.00  0.00     0.152 C 
HETATM   34  C   UNL     1      12.712  14.195  23.699  0.00  0.00     0.187 C 
HETATM   35  O   UNL     1      12.336  13.727  25.002  0.00  0.00    -0.388 OA
HETATM   36  C   UNL     1      11.002  14.151  25.317  0.00  0.00     0.187 C 
ENDBRANCH   7  29
TORSDOF 5
ENDMDL
MODEL 6
REMARK VINA RESULT:    -8.113      2.766      9.955
REMARK INTER + INTRA:         -11.110
REMARK INTER:                  -9.996
REMARK INTRA:                  -1.114
REMARK UNBOUND:                -0.863
REMARK  5 active torsions:
REMARK  status: ('A' for Active; 'I' for Inactive)
REMARK    1  A    between atoms: N_6  and  C_7 
REMARK    2  A    between atoms: C_12  and  N_13 
REMARK       I    between atoms: N_13  and  C_15 
REMARK    3  A    between atoms: C_15  and  C_17 
REMARK    4  A    between atoms: C_18  and  O_20 
REMARK    5  A    between atoms: C_24  and  C_28 
REMARK       I    between atoms: C_28  and  N_30 
ROOT
HETATM    1  C   UNL     1       5.313   9.739  18.740  0.00  0.00     0.066 C 
HETATM    2  C   UNL     1       4.474  10.116  17.671  0.00  0.00     0.083 C 
HETATM    3  C   UNL     1       3.755   9.182  16.911  0.00  0.00     0.069 C 
HETATM    4  C   UNL     1       5.363   8.370  19.083  0.00  0.00     0.036 C 
HETATM    5  C   UNL     1       4.771   7.395  18.241  0.00  0.00     0.029 C 
HETATM    6  C   UNL     1       3.955   7.832  17.208  0.00  0.00     0.065 C 
HETATM    7  C   UNL     1       4.827   5.962  18.089  0.00  0.00     0.157 C 
HETATM    8  N   UNL     1       3.958   5.561  17.137  0.00  0.00    -0.168 NA
HETATM    9  N   UNL     1       3.450   6.696  16.639  0.00  0.00    -0.277 N 
HETATM   10  H   UNL     1       2.781   6.635  15.886  0.00  0.00     0.189 HD
ENDROOT
BRANCH   1  11
HETATM   11  C   UNL     1       6.121  10.818  19.447  0.00  0.00     0.260 C 
HETATM   12  N   UNL     1       5.841  11.200  20.792  0.00  0.00    -0.318 N 
HETATM   13  C   UNL     1       4.772  10.537  21.546  0.00  0.00     0.159 C 
HETATM   14  O   UNL     1       7.059  11.260  18.772  0.00  0.00    -0.267 OA
BRANCH  12  15
HETATM   15  C   UNL     1       6.643  12.170  21.545  0.00  0.00     0.037 A 
HETATM   16  C   UNL     1       7.918  11.826  22.024  0.00  0.00     0.032 A 
HETATM   17  C   UNL     1       8.797  12.761  22.600  0.00  0.00     0.031 A 
HETATM   18  C   UNL     1       8.448  14.098  22.785  0.00  0.00     0.030 A 
HETATM   19  C   UNL     1       7.140  14.425  22.414  0.00  0.00     0.031 A 
HETATM   20  C   UNL     1       6.258  13.489  21.805  0.00  0.00     0.032 A 
BRANCH  18  21
HETATM   21  N   UNL     1       9.347  14.996  23.325  0.00  0.00    -0.377 N 
HETATM   22  C   UNL     1      10.304  15.787  22.536  0.00  0.00     0.149 C 
HETATM   23  C   UNL     1      11.746  15.384  22.883  0.00  0.00     0.187 C 
HETATM   24  O   UNL     1      12.001  15.507  24.294  0.00  0.00    -0.388 OA
HETATM   25  C   UNL     1      11.102  14.665  25.036  0.00  0.00     0.187 C 
HETATM   26  C   UNL     1       9.629  15.033  24.777  0.00  0.00     0.149 C 
ENDBRANCH  18  21
ENDBRANCH  12  15
ENDBRANCH   1  11
BRANCH   2  27
HETATM   27  O   UNL     1       4.293  11.421  17.284  0.00  0.00    -0.360 OA
HETATM   28  H   UNL     1       5.155  11.886  17.389  0.00  0.00     0.217 HD
ENDBRANCH   2  27
BRANCH   7  29
HETATM   29  C   UNL     1       5.697   5.017  18.832  0.00  0.00     0.275 C 
HETATM   30  O   UNL     1       6.578   4.402  18.235  0.00  0.00    -0.266 OA
HETATM   31  N   UNL     1       5.499   4.824  20.215  0.00  0.00    -0.343 N 
HETATM   32  C   UNL     1       6.415   3.929  20.929  0.00  0.00     0.152 C 
HETATM   33  C   UNL     1       4.187   4.938  20.872  0.00  0.00     0.152 C 
HETATM   34  C   UNL     1       6.469   4.252  22.429  0.00  0.00     0.187 C 
HETATM   35  O   UNL     1       5.157   4.265  23.010  0.00  0.00    -0.388 OA
HETATM   36  C   UNL     1       4.337   5.249  22.365  0.00  0.00     0.187 C 
ENDBRANCH   7  29
TORSDOF 5
ENDMDL
MODEL 7
REMARK VINA RESULT:    -8.092      5.666      9.212
REMARK INTER + INTRA:         -11.083
REMARK INTER:                  -9.901
REMARK INTRA:                  -1.182
REMARK UNBOUND:                -0.863
REMARK  5 active torsions:
REMARK  status: ('A' for Active; 'I' for Inactive)
REMARK    1  A    between atoms: N_6  and  C_7 
REMARK    2  A    between atoms: C_12  and  N_13 
REMARK       I    between atoms: N_13  and  C_15 
REMARK    3  A    between atoms: C_15  and  C_17 
REMARK    4  A    between atoms: C_18  and  O_20 
REMARK    5  A    between atoms: C_24  and  C_28 
REMARK       I    between atoms: C_28  and  N_30 
ROOT
HETATM    1  C   UNL     1       5.541  10.875  23.136  0.00  0.00     0.066 C 
HETATM    2  C   UNL     1       6.925  11.070  23.328  0.00  0.00     0.083 C 
HETATM    3  C   UNL     1       7.804  11.333  22.267  0.00  0.00     0.069 C 
HETATM    4  C   UNL     1       5.034  11.023  21.827  0.00  0.00     0.036 C 
HETATM    5  C   UNL     1       5.915  11.136  20.721  0.00  0.00     0.029 C 
HETATM    6  C   UNL     1       7.264  11.328  20.978  0.00  0.00     0.065 C 
HETATM    7  C   UNL     1       5.821  11.035  19.286  0.00  0.00     0.157 C 
HETATM    8  N   UNL     1       7.012  11.326  18.721  0.00  0.00    -0.168 NA
HETATM    9  N   UNL     1       7.846  11.502  19.754  0.00  0.00    -0.277 N 
HETATM   10  H   UNL     1       8.814  11.712  19.561  0.00  0.00     0.189 HD
ENDROOT
BRANCH   1  11
HETATM   11  C   UNL     1       4.685  10.506  24.339  0.00  0.00     0.260 C 
HETATM   12  N   UNL     1       4.200   9.178  24.532  0.00  0.00    -0.318 N 
HETATM   13  C   UNL     1       4.542   8.117  23.579  0.00  0.00     0.159 C 
HETATM   14  O   UNL     1       4.521  11.436  25.138  0.00  0.00    -0.267 OA
BRANCH  12  15
HETATM   15  C   UNL     1       3.447   8.752  25.715  0.00  0.00     0.037 A 
HETATM   16  C   UNL     1       2.052   8.597  25.657  0.00  0.00     0.032 A 
HETATM   17  C   UNL     1       1.301   8.030  26.704  0.00  0.00     0.031 A 
HETATM   18  C   UNL     1       1.882   7.621  27.903  0.00  0.00     0.030 A 
HETATM   19  C   UNL     1       3.253   7.875  28.013  0.00  0.00     0.031 A 
HETATM   20  C   UNL     1       4.020   8.421  26.947  0.00  0.00     0.032 A 
BRANCH  18  21
HETATM   21  N   UNL     1       1.120   7.040  28.897  0.00  0.00    -0.377 N 
HETATM   22  C   UNL     1       1.006   7.566  30.266  0.00  0.00     0.149 C 
HETATM   23  C   UNL     1       1.605   6.571  31.273  0.00  0.00     0.187 C 
HETATM   24  O   UNL     1       0.996   5.272  31.156  0.00  0.00    -0.388 OA
HETATM   25  C   UNL     1       1.191   4.751  29.831  0.00  0.00     0.187 C 
HETATM   26  C   UNL     1       0.578   5.671  28.759  0.00  0.00     0.149 C 
ENDBRANCH  18  21
ENDBRANCH  12  15
ENDBRANCH   1  11
BRANCH   2  27
HETATM   27  O   UNL     1       7.527  11.014  24.561  0.00  0.00    -0.360 OA
HETATM   28  H   UNL     1       6.818  11.085  25.241  0.00  0.00     0.217 HD
ENDBRANCH   2  27
BRANCH   7  29
HETATM   29  C   UNL     1       4.624  10.662  18.492  0.00  0.00     0.275 C 
HETATM   30  O   UNL     1       3.724  11.482  18.325  0.00  0.00    -0.266 OA
HETATM   31  N   UNL     1       4.523   9.366  17.946  0.00  0.00    -0.343 N 
HETATM   32  C   UNL     1       3.356   9.051  17.118  0.00  0.00     0.152 C 
HETATM   33  C   UNL     1       5.118   8.173  18.571  0.00  0.00     0.152 C 
HETATM   34  C   UNL     1       3.642   7.890  16.153  0.00  0.00     0.187 C 
HETATM   35  O   UNL     1       4.141   6.740  16.850  0.00  0.00    -0.388 OA
HETATM   36  C   UNL     1       5.357   7.065  17.539  0.00  0.00     0.187 C 
ENDBRANCH   7  29
TORSDOF 5
ENDMDL
MODEL 8
REMARK VINA RESULT:    -7.912      5.077      6.513
REMARK INTER + INTRA:         -10.856
REMARK INTER:                  -9.763
REMARK INTRA:                  -1.092
REMARK UNBOUND:                -0.863
REMARK  5 active torsions:
REMARK  status: ('A' for Active; 'I' for Inactive)
REMARK    1  A    between atoms: N_6  and  C_7 
REMARK    2  A    between atoms: C_12  and  N_13 
REMARK       I    between atoms: N_13  and  C_15 
REMARK    3  A    between atoms: C_15  and  C_17 
REMARK    4  A    between atoms: C_18  and  O_20 
REMARK    5  A    between atoms: C_24  and  C_28 
REMARK       I    between atoms: C_28  and  N_30 
ROOT
HETATM    1  C   UNL     1       6.204  13.424  23.770  0.00  0.00     0.066 C 
HETATM    2  C   UNL     1       5.745  14.664  23.278  0.00  0.00     0.083 C 
HETATM    3  C   UNL     1       6.611  15.632  22.748  0.00  0.00     0.069 C 
HETATM    4  C   UNL     1       7.582  13.140  23.651  0.00  0.00     0.036 C 
HETATM    5  C   UNL     1       8.495  14.155  23.264  0.00  0.00     0.029 C 
HETATM    6  C   UNL     1       7.979  15.351  22.787  0.00  0.00     0.065 C 
HETATM    7  C   UNL     1       9.923  14.348  23.284  0.00  0.00     0.157 C 
HETATM    8  N   UNL     1      10.242  15.518  22.691  0.00  0.00    -0.168 NA
HETATM    9  N   UNL     1       9.064  16.086  22.400  0.00  0.00    -0.277 N 
HETATM   10  H   UNL     1       9.062  16.995  21.962  0.00  0.00     0.189 HD
ENDROOT
BRANCH   1  11
HETATM   11  C   UNL     1       5.197  12.476  24.408  0.00  0.00     0.260 C 
HETATM   12  N   UNL     1       4.676  11.353  23.699  0.00  0.00    -0.318 N 
HETATM   13  C   UNL     1       5.121  11.065  22.332  0.00  0.00     0.159 C 
HETATM   14  O   UNL     1       4.946  12.738  25.590  0.00  0.00    -0.267 OA
BRANCH  12  15
HETATM   15  C   UNL     1       3.773  10.363  24.295  0.00  0.00     0.037 A 
HETATM   16  C   UNL     1       4.266   9.383  25.173  0.00  0.00     0.032 A 
HETATM   17  C   UNL     1       3.428   8.521  25.904  0.00  0.00     0.031 A 
HETATM   18  C   UNL     1       2.040   8.541  25.775  0.00  0.00     0.030 A 
HETATM   19  C   UNL     1       1.548   9.437  24.821  0.00  0.00     0.031 A 
HETATM   20  C   UNL     1       2.389  10.330  24.101  0.00  0.00     0.032 A 
BRANCH  18  21
HETATM   21  N   UNL     1       1.247   7.701  26.531  0.00  0.00    -0.377 N 
HETATM   22  C   UNL     1      -0.224   7.723  26.522  0.00  0.00     0.149 C 
HETATM   23  C   UNL     1      -0.761   8.136  27.901  0.00  0.00     0.187 C 
HETATM   24  O   UNL     1      -0.255   7.280  28.942  0.00  0.00    -0.388 OA
HETATM   25  C   UNL     1       1.182   7.339  28.976  0.00  0.00     0.187 C 
HETATM   26  C   UNL     1       1.804   6.897  27.640  0.00  0.00     0.149 C 
ENDBRANCH  18  21
ENDBRANCH  12  15
ENDBRANCH   1  11
BRANCH   2  27
HETATM   27  O   UNL     1       4.421  15.027  23.280  0.00  0.00    -0.360 OA
HETATM   28  H   UNL     1       4.181  15.282  22.360  0.00  0.00     0.217 HD
ENDBRANCH   2  27
BRANCH   7  29
HETATM   29  C   UNL     1      10.941  13.438  23.865  0.00  0.00     0.275 C 
HETATM   30  O   UNL     1      11.393  12.518  23.186  0.00  0.00    -0.266 OA
HETATM   31  N   UNL     1      11.373  13.628  25.194  0.00  0.00    -0.343 N 
HETATM   32  C   UNL     1      12.422  12.748  25.715  0.00  0.00     0.152 C 
HETATM   33  C   UNL     1      10.517  14.184  26.254  0.00  0.00     0.152 C 
HETATM   34  C   UNL     1      13.179  13.398  26.883  0.00  0.00     0.187 C 
HETATM   35  O   UNL     1      12.280  13.840  27.910  0.00  0.00    -0.388 OA
HETATM   36  C   UNL     1      11.354  14.800  27.380  0.00  0.00     0.187 C 
ENDBRANCH   7  29
TORSDOF 5
ENDMDL
MODEL 9
REMARK VINA RESULT:    -7.863      4.946      6.729
REMARK INTER + INTRA:         -10.794
REMARK INTER:                  -9.932
REMARK INTRA:                  -0.863
REMARK UNBOUND:                -0.863
REMARK  5 active torsions:
REMARK  status: ('A' for Active; 'I' for Inactive)
REMARK    1  A    between atoms: N_6  and  C_7 
REMARK    2  A    between atoms: C_12  and  N_13 
REMARK       I    between atoms: N_13  and  C_15 
REMARK    3  A    between atoms: C_15  and  C_17 
REMARK    4  A    between atoms: C_18  and  O_20 
REMARK    5  A    between atoms: C_24  and  C_28 
REMARK       I    between atoms: C_28  and  N_30 
ROOT
HETATM    1  C   UNL     1       7.387  11.097  22.823  0.00  0.00     0.066 C 
HETATM    2  C   UNL     1       7.500  11.123  21.416  0.00  0.00     0.083 C 
HETATM    3  C   UNL     1       8.395  11.969  20.747  0.00  0.00     0.069 C 
HETATM    4  C   UNL     1       8.266  11.914  23.566  0.00  0.00     0.036 C 
HETATM    5  C   UNL     1       9.068  12.886  22.916  0.00  0.00     0.029 C 
HETATM    6  C   UNL     1       9.139  12.856  21.531  0.00  0.00     0.065 C 
HETATM    7  C   UNL     1       9.847  14.036  23.302  0.00  0.00     0.157 C 
HETATM    8  N   UNL     1      10.483  14.549  22.227  0.00  0.00    -0.168 NA
HETATM    9  N   UNL     1      10.046  13.819  21.192  0.00  0.00    -0.277 N 
HETATM   10  H   UNL     1      10.381  14.046  20.268  0.00  0.00     0.189 HD
ENDROOT
BRANCH   1  11
HETATM   11  C   UNL     1       6.322  10.209  23.451  0.00  0.00     0.260 C 
HETATM   12  N   UNL     1       5.116  10.752  23.986  0.00  0.00    -0.318 N 
HETATM   13  C   UNL     1       4.857  12.194  23.919  0.00  0.00     0.159 C 
HETATM   14  O   UNL     1       6.578   9.001  23.383  0.00  0.00    -0.267 OA
BRANCH  12  15
HETATM   15  C   UNL     1       4.024   9.933  24.521  0.00  0.00     0.037 A 
HETATM   16  C   UNL     1       4.256   9.029  25.571  0.00  0.00     0.032 A 
HETATM   17  C   UNL     1       3.220   8.346  26.235  0.00  0.00     0.031 A 
HETATM   18  C   UNL     1       1.882   8.481  25.869  0.00  0.00     0.030 A 
HETATM   19  C   UNL     1       1.653   9.293  24.754  0.00  0.00     0.031 A 
HETATM   20  C   UNL     1       2.693  10.006  24.097  0.00  0.00     0.032 A 
BRANCH  18  21
HETATM   21  N   UNL     1       0.888   7.820  26.563  0.00  0.00    -0.377 N 
HETATM   22  C   UNL     1      -0.516   8.258  26.616  0.00  0.00     0.149 C 
HETATM   23  C   UNL     1      -0.901   8.648  28.052  0.00  0.00     0.187 C 
HETATM   24  O   UNL     1      -0.651   7.573  28.975  0.00  0.00    -0.388 OA
HETATM   25  C   UNL     1       0.743   7.219  28.958  0.00  0.00     0.187 C 
HETATM   26  C   UNL     1       1.202   6.771  27.558  0.00  0.00     0.149 C 
ENDBRANCH  18  21
ENDBRANCH  12  15
ENDBRANCH   1  11
BRANCH   2  27
HETATM   27  O   UNL     1       6.745  10.328  20.589  0.00  0.00    -0.360 OA
HETATM   28  H   UNL     1       5.797  10.516  20.778  0.00  0.00     0.217 HD
ENDBRANCH   2  27
BRANCH   7  29
HETATM   29  C   UNL     1       9.964  14.622  24.661  0.00  0.00     0.275 C 
HETATM   30  O   UNL     1       9.101  15.399  25.065  0.00  0.00    -0.266 OA
HETATM   31  N   UNL     1      11.070  14.293  25.472  0.00  0.00    -0.343 N 
HETATM   32  C   UNL     1      11.122  14.843  26.829  0.00  0.00     0.152 C 
HETATM   33  C   UNL     1      12.402  13.968  24.937  0.00  0.00     0.152 C 
HETATM   34  C   UNL     1      11.999  13.987  27.755  0.00  0.00     0.187 C 
HETATM   35  O   UNL     1      13.306  13.784  27.199  0.00  0.00    -0.388 OA
HETATM   36  C   UNL     1      13.209  13.124  25.929  0.00  0.00     0.187 C 
ENDBRANCH   7  29
TORSDOF 5
ENDMDL
