MODEL 1
REMARK VINA RESULT:    -7.870      0.000      0.000
REMARK INTER + INTRA:         -13.549
REMARK INTER:                 -10.861
REMARK INTRA:                  -2.688
REMARK UNBOUND:                -2.919
REMARK  7 active torsions:
REMARK  status: ('A' for Active; 'I' for Inactive)
REMARK    1  A    between atoms: C_7  and  N_8 
REMARK    2  A    between atoms: C_14  and  C_15 
REMARK    3  A    between atoms: C_16  and  O_17 
REMARK    4  A    between atoms: C_19  and  O_20 
REMARK    5  A    between atoms: C_22  and  C_23 
REMARK       I    between atoms: C_23  and  N_25 
REMARK    6  A    between atoms: N_25  and  C_27 
REMARK    7  A    between atoms: C_27  and  C_28 
ROOT
HETATM    1  C   UNL     1       7.005  11.907  23.152  0.00  0.00     0.046 A 
HETATM    2  C   UNL     1       6.888  12.048  21.747  0.00  0.00     0.082 A 
HETATM    3  C   UNL     1       5.952  11.329  21.007  0.00  0.00     0.075 A 
HETATM    4  C   UNL     1       5.084  10.457  21.655  0.00  0.00     0.084 A 
HETATM    5  C   UNL     1       6.131  11.001  23.779  0.00  0.00     0.038 A 
HETATM    6  C   UNL     1       5.152  10.283  23.049  0.00  0.00     0.066 A 
ENDROOT
BRANCH   1   7
HETATM    7  C   UNL     1       7.889  12.900  23.853  0.00  0.00     0.172 A 
HETATM    8  N   UNL     1       7.564  14.052  24.530  0.00  0.00    -0.241 N 
HETATM    9  C   UNL     1       8.757  14.508  25.069  0.00  0.00     0.349 A 
HETATM   10  O   UNL     1       9.003  15.551  25.662  0.00  0.00    -0.245 OA
HETATM   11  N   UNL     1       9.711  13.579  24.709  0.00  0.00    -0.226 N 
HETATM   12  H   UNL     1      10.705  13.666  24.884  0.00  0.00     0.194 HD
HETATM   13  N   UNL     1       9.168  12.605  23.947  0.00  0.00    -0.151 NA
BRANCH   8  14
HETATM   14  C   UNL     1       6.393  14.815  24.676  0.00  0.00     0.084 A 
HETATM   15  C   UNL     1       5.824  15.440  23.552  0.00  0.00     0.143 A 
HETATM   16  F   UNL     1       6.499  15.493  22.394  0.00  0.00    -0.204 F 
HETATM   17  C   UNL     1       4.562  16.028  23.599  0.00  0.00     0.044 A 
HETATM   18  C   UNL     1       3.855  16.041  24.798  0.00  0.00     0.003 A 
HETATM   19  C   UNL     1       4.402  15.432  25.926  0.00  0.00     0.002 A 
HETATM   20  C   UNL     1       5.641  14.785  25.849  0.00  0.00     0.033 A 
ENDBRANCH   8  14
ENDBRANCH   1   7
BRANCH   2  21
HETATM   21  O   UNL     1       7.644  12.920  21.000  0.00  0.00    -0.360 OA
HETATM   22  H   UNL     1       8.524  13.012  21.426  0.00  0.00     0.217 HD
ENDBRANCH   2  21
BRANCH   6  23
HETATM   23  C   UNL     1       3.968   9.692  23.752  0.00  0.00     0.256 C 
HETATM   24  O   UNL     1       3.760   8.497  23.528  0.00  0.00    -0.267 OA
HETATM   25  N   UNL     1       3.071  10.438  24.529  0.00  0.00    -0.346 N 
HETATM   26  C   UNL     1       1.879   9.743  25.015  0.00  0.00     0.153 C 
BRANCH  25  27
HETATM   27  C   UNL     1       3.274  11.782  25.066  0.00  0.00     0.190 C 
BRANCH  27  28
HETATM   28  C   UNL     1       2.254  12.715  24.518  0.00  0.00     0.070 A 
HETATM   29  O   UNL     1       1.357  13.238  25.409  0.00  0.00    -0.325 OA
HETATM   30  C   UNL     1       0.497  14.013  24.697  0.00  0.00     0.142 A 
HETATM   31  C   UNL     1       0.826  13.997  23.363  0.00  0.00     0.027 A 
HETATM   32  C   UNL     1       1.976  13.181  23.249  0.00  0.00     0.036 A 
ENDBRANCH  27  28
ENDBRANCH  25  27
ENDBRANCH   6  23
BRANCH   4  33
HETATM   33  O   UNL     1       4.147   9.803  20.899  0.00  0.00    -0.360 OA
HETATM   34  H   UNL     1       3.297   9.822  21.375  0.00  0.00     0.217 HD
ENDBRANCH   4  33
TORSDOF 7
ENDMDL
MODEL 2
REMARK VINA RESULT:    -7.527      1.680      2.198
REMARK INTER + INTRA:         -13.087
REMARK INTER:                 -10.901
REMARK INTRA:                  -2.185
REMARK UNBOUND:                -2.919
REMARK  7 active torsions:
REMARK  status: ('A' for Active; 'I' for Inactive)
REMARK    1  A    between atoms: C_7  and  N_8 
REMARK    2  A    between atoms: C_14  and  C_15 
REMARK    3  A    between atoms: C_16  and  O_17 
REMARK    4  A    between atoms: C_19  and  O_20 
REMARK    5  A    between atoms: C_22  and  C_23 
REMARK       I    between atoms: C_23  and  N_25 
REMARK    6  A    between atoms: N_25  and  C_27 
REMARK    7  A    between atoms: C_27  and  C_28 
ROOT
HETATM    1  C   UNL     1       8.471  12.449  22.155  0.00  0.00     0.046 A 
HETATM    2  C   UNL     1       8.453  12.798  20.782  0.00  0.00     0.082 A 
HETATM    3  C   UNL     1       7.775  12.035  19.834  0.00  0.00     0.075 A 
HETATM    4  C   UNL     1       7.071  10.905  20.235  0.00  0.00     0.084 A 
HETATM    5  C   UNL     1       7.771  11.289  22.530  0.00  0.00     0.038 A 
HETATM    6  C   UNL     1       7.050  10.516  21.587  0.00  0.00     0.066 A 
ENDROOT
BRANCH   1   7
HETATM    7  C   UNL     1       9.041  13.472  23.098  0.00  0.00     0.172 A 
HETATM    8  N   UNL     1       8.404  14.336  23.958  0.00  0.00    -0.241 N 
HETATM    9  C   UNL     1       9.419  14.966  24.661  0.00  0.00     0.349 A 
HETATM   10  O   UNL     1       9.364  15.892  25.460  0.00  0.00    -0.245 OA
HETATM   11  N   UNL     1      10.596  14.410  24.201  0.00  0.00    -0.226 N 
HETATM   12  H   UNL     1      11.525  14.715  24.462  0.00  0.00     0.194 HD
HETATM   13  N   UNL     1      10.350  13.507  23.228  0.00  0.00    -0.151 NA
BRANCH   8  14
HETATM   14  C   UNL     1       7.068  14.722  24.160  0.00  0.00     0.084 A 
HETATM   15  C   UNL     1       6.493  14.600  25.437  0.00  0.00     0.143 A 
HETATM   16  F   UNL     1       7.131  13.926  26.406  0.00  0.00    -0.204 F 
HETATM   17  C   UNL     1       5.253  15.157  25.740  0.00  0.00     0.044 A 
HETATM   18  C   UNL     1       4.535  15.817  24.746  0.00  0.00     0.003 A 
HETATM   19  C   UNL     1       5.084  15.945  23.472  0.00  0.00     0.002 A 
HETATM   20  C   UNL     1       6.361  15.440  23.197  0.00  0.00     0.033 A 
ENDBRANCH   8  14
ENDBRANCH   1   7
BRANCH   2  21
HETATM   21  O   UNL     1       9.057  13.922  20.270  0.00  0.00    -0.360 OA
HETATM   22  H   UNL     1       9.706  14.254  20.929  0.00  0.00     0.217 HD
ENDBRANCH   2  21
BRANCH   6  23
HETATM   23  C   UNL     1       5.971   9.582  22.043  0.00  0.00     0.256 C 
HETATM   24  O   UNL     1       5.854   8.545  21.384  0.00  0.00    -0.267 OA
HETATM   25  N   UNL     1       5.066   9.879  23.070  0.00  0.00    -0.346 N 
HETATM   26  C   UNL     1       3.974   8.930  23.287  0.00  0.00     0.153 C 
BRANCH  25  27
HETATM   27  C   UNL     1       5.186  10.934  24.075  0.00  0.00     0.190 C 
BRANCH  27  28
HETATM   28  C   UNL     1       4.037  11.874  23.974  0.00  0.00     0.070 A 
HETATM   29  O   UNL     1       3.290  12.055  25.104  0.00  0.00    -0.325 OA
HETATM   30  C   UNL     1       2.278  12.902  24.778  0.00  0.00     0.142 A 
HETATM   31  C   UNL     1       2.363  13.269  23.457  0.00  0.00     0.027 A 
HETATM   32  C   UNL     1       3.514  12.627  22.942  0.00  0.00     0.036 A 
ENDBRANCH  27  28
ENDBRANCH  25  27
ENDBRANCH   6  23
BRANCH   4  33
HETATM   33  O   UNL     1       6.378  10.207  19.281  0.00  0.00    -0.360 OA
HETATM   34  H   UNL     1       6.873  10.254  18.444  0.00  0.00     0.217 HD
ENDBRANCH   4  33
TORSDOF 7
ENDMDL
MODEL 3
REMARK VINA RESULT:    -7.250      2.452      4.378
REMARK INTER + INTRA:         -12.712
REMARK INTER:                 -10.896
REMARK INTRA:                  -1.816
REMARK UNBOUND:                -2.919
REMARK  7 active torsions:
REMARK  status: ('A' for Active; 'I' for Inactive)
REMARK    1  A    between atoms: C_7  and  N_8 
REMARK    2  A    between atoms: C_14  and  C_15 
REMARK    3  A    between atoms: C_16  and  O_17 
REMARK    4  A    between atoms: C_19  and  O_20 
REMARK    5  A    between atoms: C_22  and  C_23 
REMARK       I    between atoms: C_23  and  N_25 
REMARK    6  A    between atoms: N_25  and  C_27 
REMARK    7  A    between atoms: C_27  and  C_28 
ROOT
HETATM    1  C   UNL     1       8.236  12.379  22.158  0.00  0.00     0.046 A 
HETATM    2  C   UNL     1       8.531  12.502  20.778  0.00  0.00     0.082 A 
HETATM    3  C   UNL     1       7.873  11.746  19.811  0.00  0.00     0.075 A 
HETATM    4  C   UNL     1       6.879  10.852  20.194  0.00  0.00     0.084 A 
HETATM    5  C   UNL     1       7.243  11.451  22.520  0.00  0.00     0.038 A 
HETATM    6  C   UNL     1       6.541  10.695  21.550  0.00  0.00     0.066 A 
ENDROOT
BRANCH   1   7
HETATM    7  C   UNL     1       8.848  13.408  23.068  0.00  0.00     0.172 A 
HETATM    8  N   UNL     1       8.248  14.301  23.924  0.00  0.00    -0.241 N 
HETATM    9  C   UNL     1       9.291  14.923  24.592  0.00  0.00     0.349 A 
HETATM   10  O   UNL     1       9.273  15.866  25.374  0.00  0.00    -0.245 OA
HETATM   11  N   UNL     1      10.445  14.334  24.118  0.00  0.00    -0.226 N 
HETATM   12  H   UNL     1      11.387  14.624  24.353  0.00  0.00     0.194 HD
HETATM   13  N   UNL     1      10.160  13.417  23.169  0.00  0.00    -0.151 NA
BRANCH   8  14
HETATM   14  C   UNL     1       6.925  14.720  24.147  0.00  0.00     0.084 A 
HETATM   15  C   UNL     1       6.368  14.613  25.434  0.00  0.00     0.143 A 
HETATM   16  F   UNL     1       7.006  13.924  26.392  0.00  0.00    -0.204 F 
HETATM   17  C   UNL     1       5.146  15.200  25.756  0.00  0.00     0.044 A 
HETATM   18  C   UNL     1       4.429  15.876  24.773  0.00  0.00     0.003 A 
HETATM   19  C   UNL     1       4.960  15.990  23.490  0.00  0.00     0.002 A 
HETATM   20  C   UNL     1       6.220  15.454  23.195  0.00  0.00     0.033 A 
ENDBRANCH   8  14
ENDBRANCH   1   7
BRANCH   2  21
HETATM   21  O   UNL     1       9.447  13.391  20.268  0.00  0.00    -0.360 OA
HETATM   22  H   UNL     1       8.961  14.144  19.866  0.00  0.00     0.217 HD
ENDBRANCH   2  21
BRANCH   6  23
HETATM   23  C   UNL     1       5.220  10.072  21.888  0.00  0.00     0.256 C 
HETATM   24  O   UNL     1       4.269  10.855  21.961  0.00  0.00    -0.267 OA
HETATM   25  N   UNL     1       5.057   8.719  22.214  0.00  0.00    -0.346 N 
HETATM   26  C   UNL     1       3.732   8.304  22.675  0.00  0.00     0.153 C 
BRANCH  25  27
HETATM   27  C   UNL     1       6.005   7.633  21.975  0.00  0.00     0.190 C 
BRANCH  27  28
HETATM   28  C   UNL     1       5.589   6.839  20.787  0.00  0.00     0.070 A 
HETATM   29  O   UNL     1       5.210   7.544  19.679  0.00  0.00    -0.325 OA
HETATM   30  C   UNL     1       4.827   6.635  18.743  0.00  0.00     0.142 A 
HETATM   31  C   UNL     1       4.953   5.357  19.232  0.00  0.00     0.027 A 
HETATM   32  C   UNL     1       5.469   5.486  20.543  0.00  0.00     0.036 A 
ENDBRANCH  27  28
ENDBRANCH  25  27
ENDBRANCH   6  23
BRANCH   4  33
HETATM   33  O   UNL     1       6.223  10.159  19.210  0.00  0.00    -0.360 OA
HETATM   34  H   UNL     1       5.288  10.067  19.468  0.00  0.00     0.217 HD
ENDBRANCH   4  33
TORSDOF 7
ENDMDL
MODEL 4
REMARK VINA RESULT:    -7.215      2.875      5.244
REMARK INTER + INTRA:         -12.665
REMARK INTER:                  -9.749
REMARK INTRA:                  -2.915
REMARK UNBOUND:                -2.919
REMARK  7 active torsions:
REMARK  status: ('A' for Active; 'I' for Inactive)
REMARK    1  A    between atoms: C_7  and  N_8 
REMARK    2  A    between atoms: C_14  and  C_15 
REMARK    3  A    between atoms: C_16  and  O_17 
REMARK    4  A    between atoms: C_19  and  O_20 
REMARK    5  A    between atoms: C_22  and  C_23 
REMARK       I    between atoms: C_23  and  N_25 
REMARK    6  A    between atoms: N_25  and  C_27 
REMARK    7  A    between atoms: C_27  and  C_28 
ROOT
HETATM    1  C   UNL     1       7.499  13.439  21.630  0.00  0.00     0.046 A 
HETATM    2  C   UNL     1       7.624  14.792  22.030  0.00  0.00     0.082 A 
HETATM    3  C   UNL     1       6.626  15.446  22.748  0.00  0.00     0.075 A 
HETATM    4  C   UNL     1       5.474  14.757  23.110  0.00  0.00     0.084 A 
HETATM    5  C   UNL     1       6.314  12.772  21.989  0.00  0.00     0.038 A 
HETATM    6  C   UNL     1       5.301  13.410  22.746  0.00  0.00     0.066 A 
ENDROOT
BRANCH   1   7
HETATM    7  C   UNL     1       8.733  12.791  21.066  0.00  0.00     0.172 A 
HETATM    8  N   UNL     1       9.326  11.591  21.382  0.00  0.00    -0.241 N 
HETATM    9  C   UNL     1      10.364  11.447  20.474  0.00  0.00     0.349 A 
HETATM   10  O   UNL     1      11.246  10.599  20.417  0.00  0.00    -0.245 OA
HETATM   11  N   UNL     1      10.301  12.553  19.652  0.00  0.00    -0.226 N 
HETATM   12  H   UNL     1      10.975  12.784  18.932  0.00  0.00     0.194 HD
HETATM   13  N   UNL     1       9.305  13.380  20.038  0.00  0.00    -0.151 NA
BRANCH   8  14
HETATM   14  C   UNL     1       9.151  10.641  22.402  0.00  0.00     0.084 A 
HETATM   15  C   UNL     1       9.835  10.793  23.621  0.00  0.00     0.143 A 
HETATM   16  F   UNL     1      10.809  11.708  23.740  0.00  0.00    -0.204 F 
HETATM   17  C   UNL     1       9.541  10.005  24.731  0.00  0.00     0.044 A 
HETATM   18  C   UNL     1       8.575   9.007  24.629  0.00  0.00     0.003 A 
HETATM   19  C   UNL     1       7.888   8.836  23.429  0.00  0.00     0.002 A 
HETATM   20  C   UNL     1       8.145   9.678  22.340  0.00  0.00     0.033 A 
ENDBRANCH   8  14
ENDBRANCH   1   7
BRANCH   2  21
HETATM   21  O   UNL     1       8.737  15.562  21.787  0.00  0.00    -0.360 OA
HETATM   22  H   UNL     1       8.918  16.108  22.583  0.00  0.00     0.217 HD
ENDBRANCH   2  21
BRANCH   6  23
HETATM   23  C   UNL     1       4.288  12.594  23.491  0.00  0.00     0.256 C 
HETATM   24  O   UNL     1       3.127  12.691  23.085  0.00  0.00    -0.267 OA
HETATM   25  N   UNL     1       4.582  11.850  24.641  0.00  0.00    -0.346 N 
HETATM   26  C   UNL     1       3.452  11.239  25.341  0.00  0.00     0.153 C 
BRANCH  25  27
HETATM   27  C   UNL     1       5.904  11.457  25.125  0.00  0.00     0.190 C 
BRANCH  27  28
HETATM   28  C   UNL     1       6.629  12.640  25.661  0.00  0.00     0.070 A 
HETATM   29  O   UNL     1       5.935  13.451  26.516  0.00  0.00    -0.325 OA
HETATM   30  C   UNL     1       6.759  14.482  26.840  0.00  0.00     0.142 A 
HETATM   31  C   UNL     1       7.971  14.348  26.208  0.00  0.00     0.027 A 
HETATM   32  C   UNL     1       7.899  13.145  25.466  0.00  0.00     0.036 A 
ENDBRANCH  27  28
ENDBRANCH  25  27
ENDBRANCH   6  23
BRANCH   4  33
HETATM   33  O   UNL     1       4.536  15.421  23.857  0.00  0.00    -0.360 OA
HETATM   34  H   UNL     1       4.702  15.235  24.798  0.00  0.00     0.217 HD
ENDBRANCH   4  33
TORSDOF 7
ENDMDL
MODEL 5
REMARK VINA RESULT:    -7.203      2.348      5.972
REMARK INTER + INTRA:         -12.649
REMARK INTER:                 -10.355
REMARK INTRA:                  -2.294
REMARK UNBOUND:                -2.919
REMARK  7 active torsions:
REMARK  status: ('A' for Active; 'I' for Inactive)
REMARK    1  A    between atoms: C_7  and  N_8 
REMARK    2  A    between atoms: C_14  and  C_15 
REMARK    3  A    between atoms: C_16  and  O_17 
REMARK    4  A    between atoms: C_19  and  O_20 
REMARK    5  A    between atoms: C_22  and  C_23 
REMARK       I    between atoms: C_23  and  N_25 
REMARK    6  A    between atoms: N_25  and  C_27 
REMARK    7  A    between atoms: C_27  and  C_28 
ROOT
HETATM    1  C   UNL     1       6.629  11.851  21.979  0.00  0.00     0.046 A 
HETATM    2  C   UNL     1       6.767  10.962  20.885  0.00  0.00     0.082 A 
HETATM    3  C   UNL     1       7.522  11.286  19.760  0.00  0.00     0.075 A 
HETATM    4  C   UNL     1       8.185  12.507  19.703  0.00  0.00     0.084 A 
HETATM    5  C   UNL     1       7.291  13.089  21.886  0.00  0.00     0.038 A 
HETATM    6  C   UNL     1       8.088  13.424  20.765  0.00  0.00     0.066 A 
ENDROOT
BRANCH   1   7
HETATM    7  C   UNL     1       5.983  11.293  23.217  0.00  0.00     0.172 A 
HETATM    8  N   UNL     1       5.148  11.897  24.128  0.00  0.00    -0.241 N 
HETATM    9  C   UNL     1       4.766  10.887  24.998  0.00  0.00     0.349 A 
HETATM   10  O   UNL     1       4.118  10.948  26.035  0.00  0.00    -0.245 OA
HETATM   11  N   UNL     1       5.369   9.739  24.528  0.00  0.00    -0.226 N 
HETATM   12  H   UNL     1       5.350   8.839  24.992  0.00  0.00     0.194 HD
HETATM   13  N   UNL     1       6.128  10.006  23.444  0.00  0.00    -0.151 NA
BRANCH   8  14
HETATM   14  C   UNL     1       4.737  13.220  24.366  0.00  0.00     0.084 A 
HETATM   15  C   UNL     1       5.507  14.049  25.200  0.00  0.00     0.143 A 
HETATM   16  F   UNL     1       6.504  13.532  25.935  0.00  0.00    -0.204 F 
HETATM   17  C   UNL     1       5.263  15.417  25.303  0.00  0.00     0.044 A 
HETATM   18  C   UNL     1       4.203  15.980  24.598  0.00  0.00     0.003 A 
HETATM   19  C   UNL     1       3.424  15.176  23.770  0.00  0.00     0.002 A 
HETATM   20  C   UNL     1       3.720  13.815  23.622  0.00  0.00     0.033 A 
ENDBRANCH   8  14
ENDBRANCH   1   7
BRANCH   2  21
HETATM   21  O   UNL     1       6.213   9.705  20.846  0.00  0.00    -0.360 OA
HETATM   22  H   UNL     1       5.732   9.603  19.995  0.00  0.00     0.217 HD
ENDBRANCH   2  21
BRANCH   6  23
HETATM   23  C   UNL     1       9.121  14.506  20.869  0.00  0.00     0.256 C 
HETATM   24  O   UNL     1       8.969  15.459  20.101  0.00  0.00    -0.267 OA
HETATM   25  N   UNL     1      10.254  14.424  21.689  0.00  0.00    -0.346 N 
HETATM   26  C   UNL     1      11.246  15.491  21.556  0.00  0.00     0.153 C 
BRANCH  25  27
HETATM   27  C   UNL     1      10.478  13.495  22.795  0.00  0.00     0.190 C 
BRANCH  27  28
HETATM   28  C   UNL     1      10.165  14.154  24.091  0.00  0.00     0.070 A 
HETATM   29  O   UNL     1      10.927  13.790  25.167  0.00  0.00    -0.325 OA
HETATM   30  C   UNL     1      10.443  14.466  26.242  0.00  0.00     0.142 A 
HETATM   31  C   UNL     1       9.383  15.260  25.876  0.00  0.00     0.027 A 
HETATM   32  C   UNL     1       9.218  15.080  24.482  0.00  0.00     0.036 A 
ENDBRANCH  27  28
ENDBRANCH  25  27
ENDBRANCH   6  23
BRANCH   4  33
HETATM   33  O   UNL     1       8.956  12.770  18.601  0.00  0.00    -0.360 OA
HETATM   34  H   UNL     1       8.460  13.367  18.013  0.00  0.00     0.217 HD
ENDBRANCH   4  33
TORSDOF 7
ENDMDL
MODEL 6
REMARK VINA RESULT:    -7.195      2.508      5.306
REMARK INTER + INTRA:         -12.638
REMARK INTER:                  -9.872
REMARK INTRA:                  -2.766
REMARK UNBOUND:                -2.919
REMARK  7 active torsions:
REMARK  status: ('A' for Active; 'I' for Inactive)
REMARK    1  A    between atoms: C_7  and  N_8 
REMARK    2  A    between atoms: C_14  and  C_15 
REMARK    3  A    between atoms: C_16  and  O_17 
REMARK    4  A    between atoms: C_19  and  O_20 
REMARK    5  A    between atoms: C_22  and  C_23 
REMARK       I    between atoms: C_23  and  N_25 
REMARK    6  A    between atoms: N_25  and  C_27 
REMARK    7  A    between atoms: C_27  and  C_28 
ROOT
HETATM    1  C   UNL     1       7.321  14.890  22.872  0.00  0.00     0.046 A 
HETATM    2  C   UNL     1       8.153  14.568  23.972  0.00  0.00     0.082 A 
HETATM    3  C   UNL     1       7.706  14.655  25.288  0.00  0.00     0.075 A 
HETATM    4  C   UNL     1       6.397  15.047  25.546  0.00  0.00     0.084 A 
HETATM    5  C   UNL     1       6.009  15.307  23.161  0.00  0.00     0.038 A 
HETATM    6  C   UNL     1       5.525  15.372  24.491  0.00  0.00     0.066 A 
ENDROOT
BRANCH   1   7
HETATM    7  C   UNL     1       7.848  14.538  21.508  0.00  0.00     0.172 A 
HETATM    8  N   UNL     1       7.890  13.324  20.862  0.00  0.00    -0.241 N 
HETATM    9  C   UNL     1       8.372  13.604  19.592  0.00  0.00     0.349 A 
HETATM   10  O   UNL     1       8.688  12.842  18.687  0.00  0.00    -0.245 OA
HETATM   11  N   UNL     1       8.552  14.971  19.551  0.00  0.00    -0.226 N 
HETATM   12  H   UNL     1       8.970  15.481  18.783  0.00  0.00     0.194 HD
HETATM   13  N   UNL     1       8.243  15.531  20.741  0.00  0.00    -0.151 NA
BRANCH   8  14
HETATM   14  C   UNL     1       7.653  11.993  21.244  0.00  0.00     0.084 A 
HETATM   15  C   UNL     1       8.677  11.251  21.858  0.00  0.00     0.143 A 
HETATM   16  F   UNL     1       9.931  11.725  21.888  0.00  0.00    -0.204 F 
HETATM   17  C   UNL     1       8.435  10.009  22.440  0.00  0.00     0.044 A 
HETATM   18  C   UNL     1       7.157   9.459  22.381  0.00  0.00     0.003 A 
HETATM   19  C   UNL     1       6.129  10.174  21.772  0.00  0.00     0.002 A 
HETATM   20  C   UNL     1       6.368  11.452  21.249  0.00  0.00     0.033 A 
ENDBRANCH   8  14
ENDBRANCH   1   7
BRANCH   2  21
HETATM   21  O   UNL     1       9.444  14.111  23.847  0.00  0.00    -0.360 OA
HETATM   22  H   UNL     1       9.984  14.504  24.567  0.00  0.00     0.217 HD
ENDBRANCH   2  21
BRANCH   6  23
HETATM   23  C   UNL     1       4.050  15.371  24.758  0.00  0.00     0.256 C 
HETATM   24  O   UNL     1       3.634  16.314  25.437  0.00  0.00    -0.267 OA
HETATM   25  N   UNL     1       3.191  14.333  24.376  0.00  0.00    -0.346 N 
HETATM   26  C   UNL     1       1.809  14.409  24.852  0.00  0.00     0.153 C 
BRANCH  25  27
HETATM   27  C   UNL     1       3.460  13.274  23.406  0.00  0.00     0.190 C 
BRANCH  27  28
HETATM   28  C   UNL     1       3.885  12.031  24.105  0.00  0.00     0.070 A 
HETATM   29  O   UNL     1       3.043  10.957  24.015  0.00  0.00    -0.325 OA
HETATM   30  C   UNL     1       3.593   9.960  24.757  0.00  0.00     0.142 A 
HETATM   31  C   UNL     1       4.775  10.375  25.322  0.00  0.00     0.027 A 
HETATM   32  C   UNL     1       4.978  11.704  24.881  0.00  0.00     0.036 A 
ENDBRANCH  27  28
ENDBRANCH  25  27
ENDBRANCH   6  23
BRANCH   4  33
HETATM   33  O   UNL     1       5.979  15.075  26.851  0.00  0.00    -0.360 OA
HETATM   34  H   UNL     1       5.040  14.817  26.880  0.00  0.00     0.217 HD
ENDBRANCH   4  33
TORSDOF 7
ENDMDL
MODEL 7
REMARK VINA RESULT:    -7.146      2.523      6.300
REMARK INTER + INTRA:         -12.572
REMARK INTER:                  -9.817
REMARK INTRA:                  -2.755
REMARK UNBOUND:                -2.919
REMARK  7 active torsions:
REMARK  status: ('A' for Active; 'I' for Inactive)
REMARK    1  A    between atoms: C_7  and  N_8 
REMARK    2  A    between atoms: C_14  and  C_15 
REMARK    3  A    between atoms: C_16  and  O_17 
REMARK    4  A    between atoms: C_19  and  O_20 
REMARK    5  A    between atoms: C_22  and  C_23 
REMARK       I    between atoms: C_23  and  N_25 
REMARK    6  A    between atoms: N_25  and  C_27 
REMARK    7  A    between atoms: C_27  and  C_28 
ROOT
HETATM    1  C   UNL     1       7.121  12.545  21.352  0.00  0.00     0.046 A 
HETATM    2  C   UNL     1       7.939  11.501  20.857  0.00  0.00     0.082 A 
HETATM    3  C   UNL     1       9.248  11.723  20.436  0.00  0.00     0.075 A 
HETATM    4  C   UNL     1       9.791  13.001  20.518  0.00  0.00     0.084 A 
HETATM    5  C   UNL     1       7.686  13.832  21.403  0.00  0.00     0.038 A 
HETATM    6  C   UNL     1       9.025  14.073  21.008  0.00  0.00     0.066 A 
ENDROOT
BRANCH   1   7
HETATM    7  C   UNL     1       5.819  12.134  21.982  0.00  0.00     0.172 A 
HETATM    8  N   UNL     1       5.266  12.497  23.188  0.00  0.00    -0.241 N 
HETATM    9  C   UNL     1       4.009  11.912  23.204  0.00  0.00     0.349 A 
HETATM   10  O   UNL     1       3.181  11.854  24.104  0.00  0.00    -0.245 OA
HETATM   11  N   UNL     1       3.880  11.268  21.991  0.00  0.00    -0.226 N 
HETATM   12  H   UNL     1       3.102  10.677  21.724  0.00  0.00     0.194 HD
HETATM   13  N   UNL     1       5.006  11.398  21.257  0.00  0.00    -0.151 NA
BRANCH   8  14
HETATM   14  C   UNL     1       5.729  13.192  24.319  0.00  0.00     0.084 A 
HETATM   15  C   UNL     1       5.362  14.536  24.510  0.00  0.00     0.143 A 
HETATM   16  F   UNL     1       4.758  15.219  23.525  0.00  0.00    -0.204 F 
HETATM   17  C   UNL     1       5.617  15.203  25.705  0.00  0.00     0.044 A 
HETATM   18  C   UNL     1       6.291  14.544  26.730  0.00  0.00     0.003 A 
HETATM   19  C   UNL     1       6.669  13.214  26.560  0.00  0.00     0.002 A 
HETATM   20  C   UNL     1       6.348  12.533  25.380  0.00  0.00     0.033 A 
ENDBRANCH   8  14
ENDBRANCH   1   7
BRANCH   2  21
HETATM   21  O   UNL     1       7.541  10.187  20.783  0.00  0.00    -0.360 OA
HETATM   22  H   UNL     1       6.724  10.139  20.239  0.00  0.00     0.217 HD
ENDBRANCH   2  21
BRANCH   6  23
HETATM   23  C   UNL     1       9.741  15.304  21.478  0.00  0.00     0.256 C 
HETATM   24  O   UNL     1      10.350  15.928  20.605  0.00  0.00    -0.267 OA
HETATM   25  N   UNL     1       9.827  15.689  22.822  0.00  0.00    -0.346 N 
HETATM   26  C   UNL     1      10.695  16.826  23.131  0.00  0.00     0.153 C 
BRANCH  25  27
HETATM   27  C   UNL     1       9.011  15.206  23.934  0.00  0.00     0.190 C 
BRANCH  27  28
HETATM   28  C   UNL     1       9.700  14.086  24.630  0.00  0.00     0.070 A 
HETATM   29  O   UNL     1      10.247  14.365  25.852  0.00  0.00    -0.325 OA
HETATM   30  C   UNL     1      10.861  13.230  26.279  0.00  0.00     0.142 A 
HETATM   31  C   UNL     1      10.717  12.226  25.353  0.00  0.00     0.027 A 
HETATM   32  C   UNL     1       9.946  12.769  24.298  0.00  0.00     0.036 A 
ENDBRANCH  27  28
ENDBRANCH  25  27
ENDBRANCH   6  23
BRANCH   4  33
HETATM   33  O   UNL     1      11.096  13.171  20.138  0.00  0.00    -0.360 OA
HETATM   34  H   UNL     1      11.181  14.038  19.703  0.00  0.00     0.217 HD
ENDBRANCH   4  33
TORSDOF 7
ENDMDL
MODEL 8
REMARK VINA RESULT:    -7.069      2.564      6.200
REMARK INTER + INTRA:         -12.468
REMARK INTER:                 -10.447
REMARK INTRA:                  -2.021
REMARK UNBOUND:                -2.919
REMARK  7 active torsions:
REMARK  status: ('A' for Active; 'I' for Inactive)
REMARK    1  A    between atoms: C_7  and  N_8 
REMARK    2  A    between atoms: C_14  and  C_15 
REMARK    3  A    between atoms: C_16  and  O_17 
REMARK    4  A    between atoms: C_19  and  O_20 
REMARK    5  A    between atoms: C_22  and  C_23 
REMARK       I    between atoms: C_23  and  N_25 
REMARK    6  A    between atoms: N_25  and  C_27 
REMARK    7  A    between atoms: C_27  and  C_28 
ROOT
HETATM    1  C   UNL     1       7.158  11.288  24.649  0.00  0.00     0.046 A 
HETATM    2  C   UNL     1       7.740  11.892  25.790  0.00  0.00     0.082 A 
HETATM    3  C   UNL     1       9.080  12.270  25.824  0.00  0.00     0.075 A 
HETATM    4  C   UNL     1       9.880  12.074  24.703  0.00  0.00     0.084 A 
HETATM    5  C   UNL     1       7.994  11.080  23.537  0.00  0.00     0.038 A 
HETATM    6  C   UNL     1       9.351  11.485  23.541  0.00  0.00     0.066 A 
ENDROOT
BRANCH   1   7
HETATM    7  C   UNL     1       5.662  11.140  24.660  0.00  0.00     0.172 A 
HETATM    8  N   UNL     1       4.677  12.096  24.576  0.00  0.00    -0.241 N 
HETATM    9  C   UNL     1       3.485  11.389  24.519  0.00  0.00     0.349 A 
HETATM   10  O   UNL     1       2.330  11.794  24.547  0.00  0.00    -0.245 OA
HETATM   11  N   UNL     1       3.839  10.056  24.536  0.00  0.00    -0.226 N 
HETATM   12  H   UNL     1       3.189   9.281  24.585  0.00  0.00     0.194 HD
HETATM   13  N   UNL     1       5.178   9.916  24.641  0.00  0.00    -0.151 NA
BRANCH   8  14
HETATM   14  C   UNL     1       4.656  13.501  24.630  0.00  0.00     0.084 A 
HETATM   15  C   UNL     1       4.866  14.246  23.457  0.00  0.00     0.143 A 
HETATM   16  F   UNL     1       5.296  13.642  22.339  0.00  0.00    -0.204 F 
HETATM   17  C   UNL     1       4.651  15.622  23.413  0.00  0.00     0.044 A 
HETATM   18  C   UNL     1       4.257  16.293  24.568  0.00  0.00     0.003 A 
HETATM   19  C   UNL     1       4.048  15.574  25.743  0.00  0.00     0.002 A 
HETATM   20  C   UNL     1       4.202  14.182  25.758  0.00  0.00     0.033 A 
ENDBRANCH   8  14
ENDBRANCH   1   7
BRANCH   2  21
HETATM   21  O   UNL     1       7.043  12.193  26.936  0.00  0.00    -0.360 OA
HETATM   22  H   UNL     1       7.683  12.488  27.621  0.00  0.00     0.217 HD
ENDBRANCH   2  21
BRANCH   6  23
HETATM   23  C   UNL     1      10.086  11.676  22.248  0.00  0.00     0.256 C 
HETATM   24  O   UNL     1      10.881  10.779  21.953  0.00  0.00    -0.267 OA
HETATM   25  N   UNL     1       9.986  12.829  21.458  0.00  0.00    -0.346 N 
HETATM   26  C   UNL     1      10.888  12.925  20.310  0.00  0.00     0.153 C 
BRANCH  25  27
HETATM   27  C   UNL     1       8.960  13.867  21.536  0.00  0.00     0.190 C 
BRANCH  27  28
HETATM   28  C   UNL     1       9.532  15.112  22.115  0.00  0.00     0.070 A 
HETATM   29  O   UNL     1       9.562  16.211  21.301  0.00  0.00    -0.325 OA
HETATM   30  C   UNL     1      10.161  17.208  22.005  0.00  0.00     0.142 A 
HETATM   31  C   UNL     1      10.515  16.768  23.258  0.00  0.00     0.027 A 
HETATM   32  C   UNL     1      10.086  15.423  23.340  0.00  0.00     0.036 A 
ENDBRANCH  27  28
ENDBRANCH  25  27
ENDBRANCH   6  23
BRANCH   4  33
HETATM   33  O   UNL     1      11.181  12.502  24.758  0.00  0.00    -0.360 OA
HETATM   34  H   UNL     1      11.184  13.474  24.814  0.00  0.00     0.217 HD
ENDBRANCH   4  33
TORSDOF 7
ENDMDL
MODEL 9
REMARK VINA RESULT:    -6.934      2.637      4.399
REMARK INTER + INTRA:         -12.285
REMARK INTER:                  -9.366
REMARK INTRA:                  -2.919
REMARK UNBOUND:                -2.919
REMARK  7 active torsions:
REMARK  status: ('A' for Active; 'I' for Inactive)
REMARK    1  A    between atoms: C_7  and  N_8 
REMARK    2  A    between atoms: C_14  and  C_15 
REMARK    3  A    between atoms: C_16  and  O_17 
REMARK    4  A    between atoms: C_19  and  O_20 
REMARK    5  A    between atoms: C_22  and  C_23 
REMARK       I    between atoms: C_23  and  N_25 
REMARK    6  A    between atoms: N_25  and  C_27 
REMARK    7  A    between atoms: C_27  and  C_28 
ROOT
HETATM    1  C   UNL     1       6.768  14.049  22.233  0.00  0.00     0.046 A 
HETATM    2  C   UNL     1       5.651  14.603  22.904  0.00  0.00     0.082 A 
HETATM    3  C   UNL     1       4.473  13.885  23.098  0.00  0.00     0.075 A 
HETATM    4  C   UNL     1       4.384  12.573  22.644  0.00  0.00     0.084 A 
HETATM    5  C   UNL     1       6.643  12.729  21.763  0.00  0.00     0.038 A 
HETATM    6  C   UNL     1       5.465  11.971  21.977  0.00  0.00     0.066 A 
ENDROOT
BRANCH   1   7
HETATM    7  C   UNL     1       8.045  14.841  22.291  0.00  0.00     0.172 A 
HETATM    8  N   UNL     1       9.229  14.565  22.934  0.00  0.00    -0.241 N 
HETATM    9  C   UNL     1      10.095  15.579  22.554  0.00  0.00     0.349 A 
HETATM   10  O   UNL     1      11.227  15.832  22.945  0.00  0.00    -0.245 OA
HETATM   11  N   UNL     1       9.383  16.373  21.680  0.00  0.00    -0.226 N 
HETATM   12  H   UNL     1       9.712  17.246  21.284  0.00  0.00     0.194 HD
HETATM   13  N   UNL     1       8.119  15.919  21.541  0.00  0.00    -0.151 NA
BRANCH   8  14
HETATM   14  C   UNL     1       9.642  13.607  23.875  0.00  0.00     0.084 A 
HETATM   15  C   UNL     1      10.035  12.328  23.442  0.00  0.00     0.143 A 
HETATM   16  F   UNL     1       9.816  11.946  22.175  0.00  0.00    -0.204 F 
HETATM   17  C   UNL     1      10.646  11.418  24.301  0.00  0.00     0.044 A 
HETATM   18  C   UNL     1      10.839  11.758  25.638  0.00  0.00     0.003 A 
HETATM   19  C   UNL     1      10.453  13.018  26.090  0.00  0.00     0.002 A 
HETATM   20  C   UNL     1       9.901  13.949  25.202  0.00  0.00     0.033 A 
ENDBRANCH   8  14
ENDBRANCH   1   7
BRANCH   2  21
HETATM   21  O   UNL     1       5.635  15.864  23.451  0.00  0.00    -0.360 OA
HETATM   22  H   UNL     1       4.739  16.034  23.817  0.00  0.00     0.217 HD
ENDBRANCH   2  21
BRANCH   6  23
HETATM   23  C   UNL     1       5.503  10.476  21.886  0.00  0.00     0.256 C 
HETATM   24  O   UNL     1       4.862   9.985  20.953  0.00  0.00    -0.267 OA
HETATM   25  N   UNL     1       6.120   9.653  22.838  0.00  0.00    -0.346 N 
HETATM   26  C   UNL     1       5.931   8.210  22.689  0.00  0.00     0.153 C 
BRANCH  25  27
HETATM   27  C   UNL     1       7.084  10.055  23.861  0.00  0.00     0.190 C 
BRANCH  27  28
HETATM   28  C   UNL     1       6.424  10.911  24.882  0.00  0.00     0.070 A 
HETATM   29  O   UNL     1       5.137  10.591  25.213  0.00  0.00    -0.325 OA
HETATM   30  C   UNL     1       4.717  11.520  26.113  0.00  0.00     0.142 A 
HETATM   31  C   UNL     1       5.715  12.431  26.367  0.00  0.00     0.027 A 
HETATM   32  C   UNL     1       6.826  12.025  25.592  0.00  0.00     0.036 A 
ENDBRANCH  27  28
ENDBRANCH  25  27
ENDBRANCH   6  23
BRANCH   4  33
HETATM   33  O   UNL     1       3.227  11.883  22.895  0.00  0.00    -0.360 OA
HETATM   34  H   UNL     1       3.303  11.460  23.769  0.00  0.00     0.217 HD
ENDBRANCH   4  33
TORSDOF 7
ENDMDL
