MODEL 1
REMARK VINA RESULT:    -6.646      0.000      0.000
REMARK INTER + INTRA:          -9.000
REMARK INTER:                  -7.972
REMARK INTRA:                  -1.028
REMARK UNBOUND:                -1.189
REMARK  4 active torsions:
REMARK  status: ('A' for Active; 'I' for Inactive)
REMARK    1  A    between atoms: O_1  and  C_2 
REMARK    2  A    between atoms: C_4  and  O_5 
REMARK    3  A    between atoms: C_6  and  C_9 
REMARK    4  A    between atoms: N_15  and  C_16 
ROOT
HETATM    1  C   UNL     1       8.258  13.545  23.442  0.00  0.00     0.171 A 
HETATM    2  N   UNL     1       9.509  13.496  23.826  0.00  0.00    -0.151 NA
HETATM    3  N   UNL     1       9.547  14.169  25.004  0.00  0.00    -0.226 N 
HETATM    4  H   UNL     1      10.360  14.173  25.604  0.00  0.00     0.194 HD
HETATM    5  C   UNL     1       8.279  14.595  25.371  0.00  0.00     0.349 A 
HETATM    6  O   UNL     1       8.008  15.101  26.452  0.00  0.00    -0.245 OA
HETATM    7  N   UNL     1       7.457  14.268  24.308  0.00  0.00    -0.244 N 
ENDROOT
BRANCH   1   8
HETATM    8  C   UNL     1       7.806  12.880  22.176  0.00  0.00     0.045 C 
HETATM    9  C   UNL     1       8.517  13.079  20.976  0.00  0.00     0.082 C 
HETATM   10  C   UNL     1       8.215  12.350  19.819  0.00  0.00     0.074 C 
HETATM   11  C   UNL     1       7.197  11.409  19.859  0.00  0.00     0.068 C 
HETATM   12  C   UNL     1       6.418  11.260  20.999  0.00  0.00     0.037 C 
HETATM   13  C   UNL     1       6.695  12.027  22.137  0.00  0.00     0.021 C 
BRANCH   9  14
HETATM   14  O   UNL     1       9.558  13.964  20.903  0.00  0.00    -0.360 OA
HETATM   15  H   UNL     1      10.178  13.677  20.211  0.00  0.00     0.217 HD
ENDBRANCH   9  14
BRANCH  11  16
HETATM   16  O   UNL     1       6.931  10.601  18.794  0.00  0.00    -0.361 OA
HETATM   17  H   UNL     1       6.521  11.132  18.089  0.00  0.00     0.217 HD
ENDBRANCH  11  16
ENDBRANCH   1   8
BRANCH   7  18
HETATM   18  C   UNL     1       6.073  14.560  24.276  0.00  0.00     0.051 A 
HETATM   19  C   UNL     1       5.123  13.710  24.895  0.00  0.00    -0.035 A 
HETATM   20  C   UNL     1       5.451  12.365  25.489  0.00  0.00     0.050 C 
HETATM   21  C   UNL     1       3.778  14.122  24.962  0.00  0.00     0.009 A 
HETATM   22  C   UNL     1       3.371  15.346  24.436  0.00  0.00     0.001 A 
HETATM   23  C   UNL     1       4.292  16.152  23.778  0.00  0.00     0.002 A 
HETATM   24  C   UNL     1       5.626  15.754  23.683  0.00  0.00     0.031 A 
ENDBRANCH   7  18
TORSDOF 4
ENDMDL
MODEL 2
REMARK VINA RESULT:    -6.509      2.381      3.464
REMARK INTER + INTRA:          -8.840
REMARK INTER:                  -7.735
REMARK INTRA:                  -1.104
REMARK UNBOUND:                -1.189
REMARK  4 active torsions:
REMARK  status: ('A' for Active; 'I' for Inactive)
REMARK    1  A    between atoms: O_1  and  C_2 
REMARK    2  A    between atoms: C_4  and  O_5 
REMARK    3  A    between atoms: C_6  and  C_9 
REMARK    4  A    between atoms: N_15  and  C_16 
ROOT
HETATM    1  C   UNL     1       7.729  12.497  21.115  0.00  0.00     0.171 A 
HETATM    2  N   UNL     1       8.576  12.341  20.128  0.00  0.00    -0.151 NA
HETATM    3  N   UNL     1       9.322  13.476  20.116  0.00  0.00    -0.226 N 
HETATM    4  H   UNL     1      10.150  13.578  19.547  0.00  0.00     0.194 HD
HETATM    5  C   UNL     1       8.953  14.321  21.152  0.00  0.00     0.349 A 
HETATM    6  O   UNL     1       9.553  15.343  21.455  0.00  0.00    -0.245 OA
HETATM    7  N   UNL     1       7.855  13.723  21.744  0.00  0.00    -0.244 N 
ENDROOT
BRANCH   1   8
HETATM    8  C   UNL     1       6.740  11.427  21.466  0.00  0.00     0.045 C 
HETATM    9  C   UNL     1       7.177  10.209  22.023  0.00  0.00     0.082 C 
HETATM   10  C   UNL     1       6.270   9.259  22.507  0.00  0.00     0.074 C 
HETATM   11  C   UNL     1       4.910   9.526  22.440  0.00  0.00     0.068 C 
HETATM   12  C   UNL     1       4.448  10.674  21.810  0.00  0.00     0.037 C 
HETATM   13  C   UNL     1       5.360  11.597  21.285  0.00  0.00     0.021 C 
BRANCH   9  14
HETATM   14  O   UNL     1       8.510   9.922  22.151  0.00  0.00    -0.360 OA
HETATM   15  H   UNL     1       8.616   9.091  22.643  0.00  0.00     0.217 HD
ENDBRANCH   9  14
BRANCH  11  16
HETATM   16  O   UNL     1       3.991   8.683  22.988  0.00  0.00    -0.361 OA
HETATM   17  H   UNL     1       3.525   9.146  23.705  0.00  0.00     0.217 HD
ENDBRANCH  11  16
ENDBRANCH   1   8
BRANCH   7  18
HETATM   18  C   UNL     1       7.156  14.287  22.837  0.00  0.00     0.051 A 
HETATM   19  C   UNL     1       7.652  14.192  24.161  0.00  0.00    -0.035 A 
HETATM   20  C   UNL     1       8.849  13.367  24.559  0.00  0.00     0.050 C 
HETATM   21  C   UNL     1       6.998  14.897  25.189  0.00  0.00     0.009 A 
HETATM   22  C   UNL     1       5.878  15.683  24.926  0.00  0.00     0.001 A 
HETATM   23  C   UNL     1       5.358  15.729  23.638  0.00  0.00     0.002 A 
HETATM   24  C   UNL     1       5.981  15.023  22.608  0.00  0.00     0.031 A 
ENDBRANCH   7  18
TORSDOF 4
ENDMDL
MODEL 3
REMARK VINA RESULT:    -6.441      1.624      2.428
REMARK INTER + INTRA:          -8.760
REMARK INTER:                  -7.655
REMARK INTRA:                  -1.104
REMARK UNBOUND:                -1.189
REMARK  4 active torsions:
REMARK  status: ('A' for Active; 'I' for Inactive)
REMARK    1  A    between atoms: O_1  and  C_2 
REMARK    2  A    between atoms: C_4  and  O_5 
REMARK    3  A    between atoms: C_6  and  C_9 
REMARK    4  A    between atoms: N_15  and  C_16 
ROOT
HETATM    1  C   UNL     1       7.852  11.906  22.676  0.00  0.00     0.171 A 
HETATM    2  N   UNL     1       8.921  11.165  22.827  0.00  0.00    -0.151 NA
HETATM    3  N   UNL     1       9.554  11.669  23.918  0.00  0.00    -0.226 N 
HETATM    4  H   UNL     1      10.337  11.206  24.356  0.00  0.00     0.194 HD
HETATM    5  C   UNL     1       8.826  12.710  24.474  0.00  0.00     0.349 A 
HETATM    6  O   UNL     1       9.096  13.248  25.539  0.00  0.00    -0.245 OA
HETATM    7  N   UNL     1       7.766  12.923  23.611  0.00  0.00    -0.244 N 
ENDROOT
BRANCH   1   8
HETATM    8  C   UNL     1       6.870  11.640  21.576  0.00  0.00     0.045 C 
HETATM    9  C   UNL     1       7.302  11.581  20.235  0.00  0.00     0.082 C 
HETATM   10  C   UNL     1       6.441  11.179  19.207  0.00  0.00     0.074 C 
HETATM   11  C   UNL     1       5.136  10.826  19.516  0.00  0.00     0.068 C 
HETATM   12  C   UNL     1       4.657  10.966  20.812  0.00  0.00     0.037 C 
HETATM   13  C   UNL     1       5.510  11.415  21.827  0.00  0.00     0.021 C 
BRANCH   9  14
HETATM   14  O   UNL     1       8.594  11.876  19.890  0.00  0.00    -0.360 OA
HETATM   15  H   UNL     1       8.801  11.464  19.035  0.00  0.00     0.217 HD
ENDBRANCH   9  14
BRANCH  11  16
HETATM   16  O   UNL     1       4.290  10.330  18.571  0.00  0.00    -0.361 OA
HETATM   17  H   UNL     1       4.072  11.037  17.939  0.00  0.00     0.217 HD
ENDBRANCH  11  16
ENDBRANCH   1   8
BRANCH   7  18
HETATM   18  C   UNL     1       6.792  13.930  23.808  0.00  0.00     0.051 A 
HETATM   19  C   UNL     1       6.885  15.187  23.160  0.00  0.00    -0.035 A 
HETATM   20  C   UNL     1       8.072  15.635  22.348  0.00  0.00     0.050 C 
HETATM   21  C   UNL     1       5.815  16.096  23.273  0.00  0.00     0.009 A 
HETATM   22  C   UNL     1       4.674  15.780  24.007  0.00  0.00     0.001 A 
HETATM   23  C   UNL     1       4.609  14.571  24.690  0.00  0.00     0.002 A 
HETATM   24  C   UNL     1       5.666  13.664  24.606  0.00  0.00     0.031 A 
ENDBRANCH   7  18
TORSDOF 4
ENDMDL
MODEL 4
REMARK VINA RESULT:    -6.426      3.191      4.416
REMARK INTER + INTRA:          -8.742
REMARK INTER:                  -7.575
REMARK INTRA:                  -1.167
REMARK UNBOUND:                -1.189
REMARK  4 active torsions:
REMARK  status: ('A' for Active; 'I' for Inactive)
REMARK    1  A    between atoms: O_1  and  C_2 
REMARK    2  A    between atoms: C_4  and  O_5 
REMARK    3  A    between atoms: C_6  and  C_9 
REMARK    4  A    between atoms: N_15  and  C_16 
ROOT
HETATM    1  C   UNL     1       3.276  12.348  22.836  0.00  0.00     0.171 A 
HETATM    2  N   UNL     1       2.004  12.040  22.871  0.00  0.00    -0.151 NA
HETATM    3  N   UNL     1       1.445  12.926  23.734  0.00  0.00    -0.226 N 
HETATM    4  H   UNL     1       0.446  13.018  23.851  0.00  0.00     0.194 HD
HETATM    5  C   UNL     1       2.392  13.829  24.197  0.00  0.00     0.349 A 
HETATM    6  O   UNL     1       2.131  14.814  24.874  0.00  0.00    -0.245 OA
HETATM    7  N   UNL     1       3.600  13.393  23.683  0.00  0.00    -0.244 N 
ENDROOT
BRANCH   1   8
HETATM    8  C   UNL     1       4.235  11.599  21.961  0.00  0.00     0.045 C 
HETATM    9  C   UNL     1       4.404  10.208  22.118  0.00  0.00     0.082 C 
HETATM   10  C   UNL     1       5.168   9.459  21.216  0.00  0.00     0.074 C 
HETATM   11  C   UNL     1       5.768  10.099  20.142  0.00  0.00     0.068 C 
HETATM   12  C   UNL     1       5.698  11.480  20.016  0.00  0.00     0.037 C 
HETATM   13  C   UNL     1       4.972  12.230  20.950  0.00  0.00     0.021 C 
BRANCH   9  14
HETATM   14  O   UNL     1       3.793   9.528  23.136  0.00  0.00    -0.360 OA
HETATM   15  H   UNL     1       2.867   9.815  23.207  0.00  0.00     0.217 HD
ENDBRANCH   9  14
BRANCH  11  16
HETATM   16  O   UNL     1       6.436   9.402  19.180  0.00  0.00    -0.361 OA
HETATM   17  H   UNL     1       6.226   8.457  19.271  0.00  0.00     0.217 HD
ENDBRANCH  11  16
ENDBRANCH   1   8
BRANCH   7  18
HETATM   18  C   UNL     1       4.834  14.035  23.946  0.00  0.00     0.051 A 
HETATM   19  C   UNL     1       5.777  13.482  24.847  0.00  0.00    -0.035 A 
HETATM   20  C   UNL     1       5.514  12.281  25.718  0.00  0.00     0.050 C 
HETATM   21  C   UNL     1       7.047  14.081  24.960  0.00  0.00     0.009 A 
HETATM   22  C   UNL     1       7.387  15.199  24.203  0.00  0.00     0.001 A 
HETATM   23  C   UNL     1       6.441  15.775  23.364  0.00  0.00     0.002 A 
HETATM   24  C   UNL     1       5.171  15.209  23.252  0.00  0.00     0.031 A 
ENDBRANCH   7  18
TORSDOF 4
ENDMDL
MODEL 5
REMARK VINA RESULT:    -6.352      1.345      1.605
REMARK INTER + INTRA:          -8.654
REMARK INTER:                  -7.469
REMARK INTRA:                  -1.186
REMARK UNBOUND:                -1.189
REMARK  4 active torsions:
REMARK  status: ('A' for Active; 'I' for Inactive)
REMARK    1  A    between atoms: O_1  and  C_2 
REMARK    2  A    between atoms: C_4  and  O_5 
REMARK    3  A    between atoms: C_6  and  C_9 
REMARK    4  A    between atoms: N_15  and  C_16 
ROOT
HETATM    1  C   UNL     1       8.275  13.150  23.841  0.00  0.00     0.171 A 
HETATM    2  N   UNL     1       9.505  13.098  24.287  0.00  0.00    -0.151 NA
HETATM    3  N   UNL     1       9.558  14.009  25.293  0.00  0.00    -0.226 N 
HETATM    4  H   UNL     1      10.349  14.087  25.916  0.00  0.00     0.194 HD
HETATM    5  C   UNL     1       8.317  14.592  25.497  0.00  0.00     0.349 A 
HETATM    6  O   UNL     1       8.052  15.341  26.428  0.00  0.00    -0.245 OA
HETATM    7  N   UNL     1       7.506  14.099  24.491  0.00  0.00    -0.244 N 
ENDROOT
BRANCH   1   8
HETATM    8  C   UNL     1       7.813  12.258  22.729  0.00  0.00     0.045 C 
HETATM    9  C   UNL     1       7.769  10.861  22.909  0.00  0.00     0.082 C 
HETATM   10  C   UNL     1       7.195  10.018  21.950  0.00  0.00     0.074 C 
HETATM   11  C   UNL     1       6.653  10.572  20.799  0.00  0.00     0.068 C 
HETATM   12  C   UNL     1       6.767  11.933  20.552  0.00  0.00     0.037 C 
HETATM   13  C   UNL     1       7.386  12.764  21.494  0.00  0.00     0.021 C 
BRANCH   9  14
HETATM   14  O   UNL     1       8.251  10.274  24.048  0.00  0.00    -0.360 OA
HETATM   15  H   UNL     1       8.976   9.669  23.819  0.00  0.00     0.217 HD
ENDBRANCH   9  14
BRANCH  11  16
HETATM   16  O   UNL     1       5.992   9.809  19.885  0.00  0.00    -0.361 OA
HETATM   17  H   UNL     1       5.888  10.319  19.063  0.00  0.00     0.217 HD
ENDBRANCH  11  16
ENDBRANCH   1   8
BRANCH   7  18
HETATM   18  C   UNL     1       6.151  14.474  24.330  0.00  0.00     0.051 A 
HETATM   19  C   UNL     1       5.098  13.682  24.851  0.00  0.00    -0.035 A 
HETATM   20  C   UNL     1       5.287  12.320  25.467  0.00  0.00     0.050 C 
HETATM   21  C   UNL     1       3.779  14.174  24.793  0.00  0.00     0.009 A 
HETATM   22  C   UNL     1       3.498  15.419  24.236  0.00  0.00     0.001 A 
HETATM   23  C   UNL     1       4.524  16.169  23.673  0.00  0.00     0.002 A 
HETATM   24  C   UNL     1       5.834  15.691  23.703  0.00  0.00     0.031 A 
ENDBRANCH   7  18
TORSDOF 4
ENDMDL
MODEL 6
REMARK VINA RESULT:    -6.295      2.691      5.234
REMARK INTER + INTRA:          -8.588
REMARK INTER:                  -7.572
REMARK INTRA:                  -1.016
REMARK UNBOUND:                -1.189
REMARK  4 active torsions:
REMARK  status: ('A' for Active; 'I' for Inactive)
REMARK    1  A    between atoms: O_1  and  C_2 
REMARK    2  A    between atoms: C_4  and  O_5 
REMARK    3  A    between atoms: C_6  and  C_9 
REMARK    4  A    between atoms: N_15  and  C_16 
ROOT
HETATM    1  C   UNL     1       6.369  12.749  21.585  0.00  0.00     0.171 A 
HETATM    2  N   UNL     1       6.235  12.026  20.500  0.00  0.00    -0.151 NA
HETATM    3  N   UNL     1       7.485  11.584  20.210  0.00  0.00    -0.226 N 
HETATM    4  H   UNL     1       7.665  10.886  19.502  0.00  0.00     0.194 HD
HETATM    5  C   UNL     1       8.394  12.005  21.169  0.00  0.00     0.349 A 
HETATM    6  O   UNL     1       9.558  11.634  21.225  0.00  0.00    -0.245 OA
HETATM    7  N   UNL     1       7.682  12.840  22.012  0.00  0.00    -0.244 N 
ENDROOT
BRANCH   1   8
HETATM    8  C   UNL     1       5.186  13.397  22.239  0.00  0.00     0.045 C 
HETATM    9  C   UNL     1       3.959  12.710  22.330  0.00  0.00     0.082 C 
HETATM   10  C   UNL     1       2.888  13.224  23.072  0.00  0.00     0.074 C 
HETATM   11  C   UNL     1       3.042  14.432  23.735  0.00  0.00     0.068 C 
HETATM   12  C   UNL     1       4.204  15.175  23.585  0.00  0.00     0.037 C 
HETATM   13  C   UNL     1       5.254  14.678  22.802  0.00  0.00     0.021 C 
BRANCH   9  14
HETATM   14  O   UNL     1       3.778  11.494  21.730  0.00  0.00    -0.360 OA
HETATM   15  H   UNL     1       3.064  11.561  21.073  0.00  0.00     0.217 HD
ENDBRANCH   9  14
BRANCH  11  16
HETATM   16  O   UNL     1       2.069  14.924  24.552  0.00  0.00    -0.361 OA
HETATM   17  H   UNL     1       2.424  15.003  25.454  0.00  0.00     0.217 HD
ENDBRANCH  11  16
ENDBRANCH   1   8
BRANCH   7  18
HETATM   18  C   UNL     1       8.260  13.504  23.119  0.00  0.00     0.051 A 
HETATM   19  C   UNL     1       8.821  14.799  22.994  0.00  0.00    -0.035 A 
HETATM   20  C   UNL     1       9.006  15.519  21.684  0.00  0.00     0.050 C 
HETATM   21  C   UNL     1       9.248  15.474  24.154  0.00  0.00     0.009 A 
HETATM   22  C   UNL     1       9.126  14.893  25.414  0.00  0.00     0.001 A 
HETATM   23  C   UNL     1       8.630  13.600  25.529  0.00  0.00     0.002 A 
HETATM   24  C   UNL     1       8.219  12.906  24.390  0.00  0.00     0.031 A 
ENDBRANCH   7  18
TORSDOF 4
ENDMDL
MODEL 7
REMARK VINA RESULT:    -6.188      1.555      1.932
REMARK INTER + INTRA:          -8.462
REMARK INTER:                  -7.308
REMARK INTRA:                  -1.155
REMARK UNBOUND:                -1.189
REMARK  4 active torsions:
REMARK  status: ('A' for Active; 'I' for Inactive)
REMARK    1  A    between atoms: O_1  and  C_2 
REMARK    2  A    between atoms: C_4  and  O_5 
REMARK    3  A    between atoms: C_6  and  C_9 
REMARK    4  A    between atoms: N_15  and  C_16 
ROOT
HETATM    1  C   UNL     1       7.763  11.803  22.676  0.00  0.00     0.171 A 
HETATM    2  N   UNL     1       8.864  11.119  22.867  0.00  0.00    -0.151 NA
HETATM    3  N   UNL     1       9.466  11.703  23.934  0.00  0.00    -0.226 N 
HETATM    4  H   UNL     1      10.268  11.298  24.397  0.00  0.00     0.194 HD
HETATM    5  C   UNL     1       8.688  12.735  24.437  0.00  0.00     0.349 A 
HETATM    6  O   UNL     1       8.928  13.335  25.476  0.00  0.00    -0.245 OA
HETATM    7  N   UNL     1       7.625  12.858  23.560  0.00  0.00    -0.244 N 
ENDROOT
BRANCH   1   8
HETATM    8  C   UNL     1       6.801  11.439  21.586  0.00  0.00     0.045 C 
HETATM    9  C   UNL     1       7.208  11.472  20.237  0.00  0.00     0.082 C 
HETATM   10  C   UNL     1       6.384  10.988  19.214  0.00  0.00     0.074 C 
HETATM   11  C   UNL     1       5.143  10.460  19.536  0.00  0.00     0.068 C 
HETATM   12  C   UNL     1       4.677  10.503  20.843  0.00  0.00     0.037 C 
HETATM   13  C   UNL     1       5.487  11.033  21.856  0.00  0.00     0.021 C 
BRANCH   9  14
HETATM   14  O   UNL     1       8.442  11.942  19.878  0.00  0.00    -0.360 OA
HETATM   15  H   UNL     1       8.403  12.908  19.776  0.00  0.00     0.217 HD
ENDBRANCH   9  14
BRANCH  11  16
HETATM   16  O   UNL     1       4.348   9.883  18.592  0.00  0.00    -0.361 OA
HETATM   17  H   UNL     1       3.418   9.974  18.863  0.00  0.00     0.217 HD
ENDBRANCH  11  16
ENDBRANCH   1   8
BRANCH   7  18
HETATM   18  C   UNL     1       6.605  13.827  23.706  0.00  0.00     0.051 A 
HETATM   19  C   UNL     1       5.499  13.614  24.567  0.00  0.00    -0.035 A 
HETATM   20  C   UNL     1       5.213  12.313  25.270  0.00  0.00     0.050 C 
HETATM   21  C   UNL     1       4.592  14.668  24.789  0.00  0.00     0.009 A 
HETATM   22  C   UNL     1       4.765  15.909  24.181  0.00  0.00     0.001 A 
HETATM   23  C   UNL     1       5.816  16.099  23.292  0.00  0.00     0.002 A 
HETATM   24  C   UNL     1       6.716  15.061  23.043  0.00  0.00     0.031 A 
ENDBRANCH   7  18
TORSDOF 4
ENDMDL
MODEL 8
REMARK VINA RESULT:    -6.099      2.929      5.085
REMARK INTER + INTRA:          -8.358
REMARK INTER:                  -7.169
REMARK INTRA:                  -1.189
REMARK UNBOUND:                -1.189
REMARK  4 active torsions:
REMARK  status: ('A' for Active; 'I' for Inactive)
REMARK    1  A    between atoms: O_1  and  C_2 
REMARK    2  A    between atoms: C_4  and  O_5 
REMARK    3  A    between atoms: C_6  and  C_9 
REMARK    4  A    between atoms: N_15  and  C_16 
ROOT
HETATM    1  C   UNL     1       6.163  12.536  21.922  0.00  0.00     0.171 A 
HETATM    2  N   UNL     1       7.117  12.303  21.056  0.00  0.00    -0.151 NA
HETATM    3  N   UNL     1       6.505  11.694  20.008  0.00  0.00    -0.226 N 
HETATM    4  H   UNL     1       6.973  11.523  19.128  0.00  0.00     0.194 HD
HETATM    5  C   UNL     1       5.138  11.601  20.219  0.00  0.00     0.349 A 
HETATM    6  O   UNL     1       4.334  11.224  19.377  0.00  0.00    -0.245 OA
HETATM    7  N   UNL     1       4.930  12.066  21.505  0.00  0.00    -0.244 N 
ENDROOT
BRANCH   1   8
HETATM    8  C   UNL     1       6.444  13.231  23.221  0.00  0.00     0.045 C 
HETATM    9  C   UNL     1       7.107  12.552  24.262  0.00  0.00     0.082 C 
HETATM   10  C   UNL     1       7.523  13.219  25.420  0.00  0.00     0.074 C 
HETATM   11  C   UNL     1       7.280  14.579  25.543  0.00  0.00     0.068 C 
HETATM   12  C   UNL     1       6.545  15.252  24.577  0.00  0.00     0.037 C 
HETATM   13  C   UNL     1       6.090  14.569  23.443  0.00  0.00     0.021 C 
BRANCH   9  14
HETATM   14  O   UNL     1       7.409  11.220  24.164  0.00  0.00    -0.360 OA
HETATM   15  H   UNL     1       8.276  11.116  23.738  0.00  0.00     0.217 HD
ENDBRANCH   9  14
BRANCH  11  16
HETATM   16  O   UNL     1       7.754  15.294  26.601  0.00  0.00    -0.361 OA
HETATM   17  H   UNL     1       7.492  14.851  27.426  0.00  0.00     0.217 HD
ENDBRANCH  11  16
ENDBRANCH   1   8
BRANCH   7  18
HETATM   18  C   UNL     1       3.656  12.112  22.120  0.00  0.00     0.051 A 
HETATM   19  C   UNL     1       3.293  11.195  23.137  0.00  0.00    -0.035 A 
HETATM   20  C   UNL     1       4.129  10.011  23.548  0.00  0.00     0.050 C 
HETATM   21  C   UNL     1       2.073  11.376  23.818  0.00  0.00     0.009 A 
HETATM   22  C   UNL     1       1.225  12.436  23.508  0.00  0.00     0.001 A 
HETATM   23  C   UNL     1       1.555  13.301  22.471  0.00  0.00     0.002 A 
HETATM   24  C   UNL     1       2.750  13.128  21.772  0.00  0.00     0.031 A 
ENDBRANCH   7  18
TORSDOF 4
ENDMDL
MODEL 9
REMARK VINA RESULT:    -6.077      2.943      4.928
REMARK INTER + INTRA:          -8.332
REMARK INTER:                  -7.246
REMARK INTRA:                  -1.086
REMARK UNBOUND:                -1.189
REMARK  4 active torsions:
REMARK  status: ('A' for Active; 'I' for Inactive)
REMARK    1  A    between atoms: O_1  and  C_2 
REMARK    2  A    between atoms: C_4  and  O_5 
REMARK    3  A    between atoms: C_6  and  C_9 
REMARK    4  A    between atoms: N_15  and  C_16 
ROOT
HETATM    1  C   UNL     1       6.073  11.973  23.385  0.00  0.00     0.171 A 
HETATM    2  N   UNL     1       5.929  10.734  23.786  0.00  0.00    -0.151 NA
HETATM    3  N   UNL     1       7.191  10.249  23.906  0.00  0.00    -0.226 N 
HETATM    4  H   UNL     1       7.393   9.357  24.335  0.00  0.00     0.194 HD
HETATM    5  C   UNL     1       8.128  11.231  23.620  0.00  0.00     0.349 A 
HETATM    6  O   UNL     1       9.333  11.102  23.786  0.00  0.00    -0.245 OA
HETATM    7  N   UNL     1       7.397  12.325  23.192  0.00  0.00    -0.244 N 
ENDROOT
BRANCH   1   8
HETATM    8  C   UNL     1       4.887  12.861  23.161  0.00  0.00     0.045 C 
HETATM    9  C   UNL     1       3.814  12.426  22.357  0.00  0.00     0.082 C 
HETATM   10  C   UNL     1       2.629  13.165  22.260  0.00  0.00     0.074 C 
HETATM   11  C   UNL     1       2.507  14.347  22.973  0.00  0.00     0.068 C 
HETATM   12  C   UNL     1       3.581  14.848  23.696  0.00  0.00     0.037 C 
HETATM   13  C   UNL     1       4.782  14.128  23.751  0.00  0.00     0.021 C 
BRANCH   9  14
HETATM   14  O   UNL     1       3.872  11.243  21.672  0.00  0.00    -0.360 OA
HETATM   15  H   UNL     1       3.002  11.051  21.284  0.00  0.00     0.217 HD
ENDBRANCH   9  14
BRANCH  11  16
HETATM   16  O   UNL     1       1.340  15.050  22.994  0.00  0.00    -0.361 OA
HETATM   17  H   UNL     1       0.615  14.451  23.242  0.00  0.00     0.217 HD
ENDBRANCH  11  16
ENDBRANCH   1   8
BRANCH   7  18
HETATM   18  C   UNL     1       7.989  13.541  22.776  0.00  0.00     0.051 A 
HETATM   19  C   UNL     1       8.447  14.500  23.713  0.00  0.00    -0.035 A 
HETATM   20  C   UNL     1       8.213  14.410  25.199  0.00  0.00     0.050 C 
HETATM   21  C   UNL     1       9.161  15.622  23.251  0.00  0.00     0.009 A 
HETATM   22  C   UNL     1       9.424  15.801  21.895  0.00  0.00     0.001 A 
HETATM   23  C   UNL     1       8.925  14.891  20.971  0.00  0.00     0.002 A 
HETATM   24  C   UNL     1       8.199  13.781  21.407  0.00  0.00     0.031 A 
ENDBRANCH   7  18
TORSDOF 4
ENDMDL
