MODEL 1
REMARK minimizedAffinity -10.1689539
REMARK minimizedRMSD -1
REMARK  5 active torsions:
REMARK  status: ('A' for Active; 'I' for Inactive)
REMARK    1  A    between atoms: C_6  and  C_7 
REMARK    2  A    between atoms: C_7  and  C_8 
REMARK    3  A    between atoms: C_15  and  C_19 
REMARK    4  A    between atoms: C_16  and  O_18 
REMARK    5  A    between atoms: N_23  and  C_24 
ROOT
HETATM    1  C   UNL     1       7.219  11.942  23.317  0.00  0.00     0.071 A 
HETATM    2  N   UNL     1       8.503  11.552  23.419  0.00  0.00    -0.178 NA
HETATM    3  N   UNL     1       8.430  10.231  23.621  0.00  0.00    -0.277 N 
HETATM    4  H   UNL     1       9.292   9.717  23.753  0.00  0.00     0.189 HD
HETATM    5  C   UNL     1       6.322  10.842  23.481  0.00  0.00     0.020 A 
HETATM    6  C   UNL     1       7.151   9.745  23.685  0.00  0.00     0.065 A 
HETATM    7  C   UNL     1       4.916  10.651  23.544  0.00  0.00     0.032 A 
HETATM    8  C   UNL     1       4.363   9.368  23.771  0.00  0.00     0.027 A 
HETATM    9  C   UNL     1       5.274   8.313  23.980  0.00  0.00     0.080 A 
HETATM   10  C   UNL     1       6.670   8.466  23.941  0.00  0.00     0.069 A 
ENDROOT
BRANCH   8  11
HETATM   11  C   UNL     1       2.893   9.175  23.939  0.00  0.00     0.073 C 
HETATM   12  C   UNL     1       2.214   7.955  23.916  0.00  0.00     0.053 C 
HETATM   13  C   UNL     1       0.921   8.203  24.361  0.00  0.00     0.141 C 
HETATM   14  N   UNL     1       0.735   9.481  24.635  0.00  0.00    -0.179 NA
HETATM   15  N   UNL     1       1.875  10.116  24.212  0.00  0.00    -0.234 N 
BRANCH  15  16
HETATM   16  C   UNL     1       1.800  11.546  24.111  0.00  0.00     0.059 A 
HETATM   17  C   UNL     1       0.967  12.098  23.110  0.00  0.00     0.031 A 
HETATM   18  C   UNL     1       0.843  13.480  22.946  0.00  0.00     0.002 A 
HETATM   19  C   UNL     1       1.550  14.332  23.784  0.00  0.00     0.000 A 
HETATM   20  C   UNL     1       2.400  13.804  24.753  0.00  0.00     0.002 A 
HETATM   21  C   UNL     1       2.546  12.416  24.904  0.00  0.00     0.031 A 
ENDBRANCH  15  16
ENDBRANCH   8  11
BRANCH   9  22
HETATM   22  O   UNL     1       4.859   7.045  24.303  0.00  0.00    -0.360 OA
HETATM   23  H   UNL     1       4.763   7.049  25.272  0.00  0.00     0.217 HD
ENDBRANCH   9  22
BRANCH   1  24
HETATM   24  C   UNL     1       6.886  13.396  23.241  0.00  0.00     0.100 C 
BRANCH  24  25
HETATM   25  C   UNL     1       6.174  13.842  24.500  0.00  0.00    -0.052 A 
HETATM   26  C   UNL     1       5.671  15.147  24.638  0.00  0.00     0.007 A 
HETATM   27  C   UNL     1       5.214  15.610  25.875  0.00  0.00     0.001 A 
HETATM   28  C   UNL     1       5.249  14.774  26.989  0.00  0.00     0.000 A 
HETATM   29  C   UNL     1       5.711  13.467  26.862  0.00  0.00     0.001 A 
HETATM   30  C   UNL     1       6.165  13.001  25.625  0.00  0.00     0.007 A 
ENDBRANCH  24  25
ENDBRANCH   1  24
TORSDOF 5
ENDMDL
MODEL 2
REMARK minimizedAffinity -9.98706055
REMARK minimizedRMSD -1
REMARK  5 active torsions:
REMARK  status: ('A' for Active; 'I' for Inactive)
REMARK    1  A    between atoms: C_6  and  C_7 
REMARK    2  A    between atoms: C_7  and  C_8 
REMARK    3  A    between atoms: C_15  and  C_19 
REMARK    4  A    between atoms: C_16  and  O_18 
REMARK    5  A    between atoms: N_23  and  C_24 
ROOT
HETATM    1  C   UNL     1       6.827  11.306  23.103  0.00  0.00     0.071 A 
HETATM    2  N   UNL     1       7.488  10.983  21.977  0.00  0.00    -0.178 NA
HETATM    3  N   UNL     1       6.739  10.024  21.419  0.00  0.00    -0.277 N 
HETATM    4  H   UNL     1       7.060   9.605  20.556  0.00  0.00     0.189 HD
HETATM    5  C   UNL     1       5.647  10.515  23.264  0.00  0.00     0.020 A 
HETATM    6  C   UNL     1       5.630   9.686  22.148  0.00  0.00     0.065 A 
HETATM    7  C   UNL     1       4.631  10.357  24.243  0.00  0.00     0.032 A 
HETATM    8  C   UNL     1       3.598   9.404  24.075  0.00  0.00     0.027 A 
HETATM    9  C   UNL     1       3.662   8.596  22.922  0.00  0.00     0.080 A 
HETATM   10  C   UNL     1       4.660   8.713  21.941  0.00  0.00     0.069 A 
ENDROOT
BRANCH   8  11
HETATM   11  C   UNL     1       2.586   9.162  25.144  0.00  0.00     0.073 C 
HETATM   12  C   UNL     1       2.656   8.186  26.140  0.00  0.00     0.053 C 
HETATM   13  C   UNL     1       1.654   8.472  27.060  0.00  0.00     0.141 C 
HETATM   14  N   UNL     1       0.953   9.532  26.704  0.00  0.00    -0.179 NA
HETATM   15  N   UNL     1       1.393   9.858  25.447  0.00  0.00    -0.234 N 
BRANCH  15  16
HETATM   16  C   UNL     1       0.576  10.780  24.712  0.00  0.00     0.059 A 
HETATM   17  C   UNL     1      -0.828  10.616  24.768  0.00  0.00     0.031 A 
HETATM   18  C   UNL     1      -1.689  11.472  24.078  0.00  0.00     0.002 A 
HETATM   19  C   UNL     1      -1.159  12.508  23.321  0.00  0.00     0.000 A 
HETATM   20  C   UNL     1       0.221  12.663  23.228  0.00  0.00     0.002 A 
HETATM   21  C   UNL     1       1.091  11.790  23.900  0.00  0.00     0.031 A 
ENDBRANCH  15  16
ENDBRANCH   8  11
BRANCH   9  22
HETATM   22  O   UNL     1       2.773   7.575  22.699  0.00  0.00    -0.360 OA
HETATM   23  H   UNL     1       3.148   6.805  23.162  0.00  0.00     0.217 HD
ENDBRANCH   9  22
BRANCH   1  24
HETATM   24  C   UNL     1       7.445  12.246  24.085  0.00  0.00     0.100 C 
BRANCH  24  25
HETATM   25  C   UNL     1       6.383  13.106  24.735  0.00  0.00    -0.052 A 
HETATM   26  C   UNL     1       5.801  14.193  24.062  0.00  0.00     0.007 A 
HETATM   27  C   UNL     1       4.988  15.104  24.741  0.00  0.00     0.001 A 
HETATM   28  C   UNL     1       4.743  14.939  26.103  0.00  0.00     0.000 A 
HETATM   29  C   UNL     1       5.282  13.848  26.778  0.00  0.00     0.001 A 
HETATM   30  C   UNL     1       6.092  12.934  26.099  0.00  0.00     0.007 A 
ENDBRANCH  24  25
ENDBRANCH   1  24
TORSDOF 5
ENDMDL
MODEL 3
REMARK minimizedAffinity -9.74662971
REMARK minimizedRMSD -1
REMARK  5 active torsions:
REMARK  status: ('A' for Active; 'I' for Inactive)
REMARK    1  A    between atoms: C_6  and  C_7 
REMARK    2  A    between atoms: C_7  and  C_8 
REMARK    3  A    between atoms: C_15  and  C_19 
REMARK    4  A    between atoms: C_16  and  O_18 
REMARK    5  A    between atoms: N_23  and  C_24 
ROOT
HETATM    1  C   UNL     1      -0.866  10.291  26.191  0.00  0.00     0.071 A 
HETATM    2  N   UNL     1      -2.086  10.803  25.948  0.00  0.00    -0.178 NA
HETATM    3  N   UNL     1      -1.921  11.532  24.837  0.00  0.00    -0.277 N 
HETATM    4  H   UNL     1      -2.718  12.040  24.474  0.00  0.00     0.189 HD
HETATM    5  C   UNL     1       0.090  10.728  25.221  0.00  0.00     0.020 A 
HETATM    6  C   UNL     1      -0.638  11.542  24.360  0.00  0.00     0.065 A 
HETATM    7  C   UNL     1       1.485  10.585  25.003  0.00  0.00     0.032 A 
HETATM    8  C   UNL     1       2.123  11.224  23.913  0.00  0.00     0.027 A 
HETATM    9  C   UNL     1       1.315  12.041  23.097  0.00  0.00     0.080 A 
HETATM   10  C   UNL     1      -0.065  12.219  23.290  0.00  0.00     0.069 A 
ENDROOT
BRANCH   8  11
HETATM   11  C   UNL     1       3.603  11.162  23.735  0.00  0.00     0.073 C 
HETATM   12  C   UNL     1       4.338  10.045  23.331  0.00  0.00     0.053 C 
HETATM   13  C   UNL     1       5.626  10.488  23.052  0.00  0.00     0.141 C 
HETATM   14  N   UNL     1       5.756  11.783  23.272  0.00  0.00    -0.179 NA
HETATM   15  N   UNL     1       4.581  12.175  23.861  0.00  0.00    -0.234 N 
BRANCH  15  16
HETATM   16  C   UNL     1       4.587  13.468  24.482  0.00  0.00     0.059 A 
HETATM   17  C   UNL     1       5.710  14.301  24.272  0.00  0.00     0.031 A 
HETATM   18  C   UNL     1       5.792  15.572  24.846  0.00  0.00     0.002 A 
HETATM   19  C   UNL     1       4.747  16.031  25.638  0.00  0.00     0.000 A 
HETATM   20  C   UNL     1       3.649  15.210  25.881  0.00  0.00     0.002 A 
HETATM   21  C   UNL     1       3.576  13.922  25.327  0.00  0.00     0.031 A 
ENDBRANCH  15  16
ENDBRANCH   8  11
BRANCH   9  22
HETATM   22  O   UNL     1       1.838  12.786  22.069  0.00  0.00    -0.360 OA
HETATM   23  H   UNL     1       2.126  13.620  22.481  0.00  0.00     0.217 HD
ENDBRANCH   9  22
BRANCH   1  24
HETATM   24  C   UNL     1      -0.613   9.536  27.454  0.00  0.00     0.100 C 
BRANCH  24  25
HETATM   25  C   UNL     1      -0.350   8.076  27.155  0.00  0.00    -0.052 A 
HETATM   26  C   UNL     1      -0.264   7.598  25.836  0.00  0.00     0.007 A 
HETATM   27  C   UNL     1      -0.239   6.226  25.573  0.00  0.00     0.001 A 
HETATM   28  C   UNL     1      -0.296   5.313  26.624  0.00  0.00     0.000 A 
HETATM   29  C   UNL     1      -0.345   5.769  27.938  0.00  0.00     0.001 A 
HETATM   30  C   UNL     1      -0.366   7.141  28.203  0.00  0.00     0.007 A 
ENDBRANCH  24  25
ENDBRANCH   1  24
TORSDOF 5
ENDMDL
MODEL 4
REMARK minimizedAffinity -9.52429771
REMARK minimizedRMSD -1
REMARK  5 active torsions:
REMARK  status: ('A' for Active; 'I' for Inactive)
REMARK    1  A    between atoms: C_6  and  C_7 
REMARK    2  A    between atoms: C_7  and  C_8 
REMARK    3  A    between atoms: C_15  and  C_19 
REMARK    4  A    between atoms: C_16  and  O_18 
REMARK    5  A    between atoms: N_23  and  C_24 
ROOT
HETATM    1  C   UNL     1       0.441  10.196  24.858  0.00  0.00     0.071 A 
HETATM    2  N   UNL     1      -0.379   9.133  24.775  0.00  0.00    -0.178 NA
HETATM    3  N   UNL     1       0.413   8.137  24.359  0.00  0.00    -0.277 N 
HETATM    4  H   UNL     1      -0.002   7.228  24.202  0.00  0.00     0.189 HD
HETATM    5  C   UNL     1       1.774   9.862  24.462  0.00  0.00     0.020 A 
HETATM    6  C   UNL     1       1.711   8.512  24.138  0.00  0.00     0.065 A 
HETATM    7  C   UNL     1       3.004  10.548  24.281  0.00  0.00     0.032 A 
HETATM    8  C   UNL     1       4.156   9.869  23.816  0.00  0.00     0.027 A 
HETATM    9  C   UNL     1       4.003   8.504  23.498  0.00  0.00     0.080 A 
HETATM   10  C   UNL     1       2.799   7.797  23.649  0.00  0.00     0.069 A 
ENDROOT
BRANCH   8  11
HETATM   11  C   UNL     1       5.423  10.601  23.527  0.00  0.00     0.073 C 
HETATM   12  C   UNL     1       6.595  10.047  23.006  0.00  0.00     0.053 C 
HETATM   13  C   UNL     1       7.425  11.107  22.659  0.00  0.00     0.141 C 
HETATM   14  N   UNL     1       6.874  12.272  22.943  0.00  0.00    -0.179 NA
HETATM   15  N   UNL     1       5.729  11.977  23.638  0.00  0.00    -0.234 N 
BRANCH  15  16
HETATM   16  C   UNL     1       5.112  13.071  24.332  0.00  0.00     0.059 A 
HETATM   17  C   UNL     1       5.783  13.610  25.454  0.00  0.00     0.031 A 
HETATM   18  C   UNL     1       5.245  14.673  26.183  0.00  0.00     0.002 A 
HETATM   19  C   UNL     1       4.027  15.217  25.797  0.00  0.00     0.000 A 
HETATM   20  C   UNL     1       3.337  14.677  24.715  0.00  0.00     0.002 A 
HETATM   21  C   UNL     1       3.863  13.591  23.996  0.00  0.00     0.031 A 
ENDBRANCH  15  16
ENDBRANCH   8  11
BRANCH   9  22
HETATM   22  O   UNL     1       5.021   7.766  22.949  0.00  0.00    -0.360 OA
HETATM   23  H   UNL     1       4.955   7.915  21.989  0.00  0.00     0.217 HD
ENDBRANCH   9  22
BRANCH   1  24
HETATM   24  C   UNL     1      -0.120  11.550  25.145  0.00  0.00     0.100 C 
BRANCH  24  25
HETATM   25  C   UNL     1      -0.546  12.229  23.862  0.00  0.00    -0.052 A 
HETATM   26  C   UNL     1      -1.875  12.176  23.406  0.00  0.00     0.007 A 
HETATM   27  C   UNL     1      -2.209  12.616  22.124  0.00  0.00     0.001 A 
HETATM   28  C   UNL     1      -1.222  13.119  21.279  0.00  0.00     0.000 A 
HETATM   29  C   UNL     1       0.092  13.213  21.727  0.00  0.00     0.001 A 
HETATM   30  C   UNL     1       0.428  12.776  23.011  0.00  0.00     0.007 A 
ENDBRANCH  24  25
ENDBRANCH   1  24
TORSDOF 5
ENDMDL
MODEL 5
REMARK minimizedAffinity -9.39333153
REMARK minimizedRMSD -1
REMARK  5 active torsions:
REMARK  status: ('A' for Active; 'I' for Inactive)
REMARK    1  A    between atoms: C_6  and  C_7 
REMARK    2  A    between atoms: C_7  and  C_8 
REMARK    3  A    between atoms: C_15  and  C_19 
REMARK    4  A    between atoms: C_16  and  O_18 
REMARK    5  A    between atoms: N_23  and  C_24 
ROOT
HETATM    1  C   UNL     1       1.980  12.491  23.121  0.00  0.00     0.071 A 
HETATM    2  N   UNL     1       1.541  13.170  22.046  0.00  0.00    -0.178 NA
HETATM    3  N   UNL     1       0.207  13.084  22.125  0.00  0.00    -0.277 N 
HETATM    4  H   UNL     1      -0.345  13.512  21.393  0.00  0.00     0.189 HD
HETATM    5  C   UNL     1       0.895  11.947  23.877  0.00  0.00     0.020 A 
HETATM    6  C   UNL     1      -0.244  12.351  23.190  0.00  0.00     0.065 A 
HETATM    7  C   UNL     1       0.741  11.116  25.018  0.00  0.00     0.032 A 
HETATM    8  C   UNL     1      -0.543  10.734  25.474  0.00  0.00     0.027 A 
HETATM    9  C   UNL     1      -1.644  11.175  24.712  0.00  0.00     0.080 A 
HETATM   10  C   UNL     1      -1.530  11.985  23.570  0.00  0.00     0.069 A 
ENDROOT
BRANCH   8  11
HETATM   11  C   UNL     1      -0.711   9.780  26.609  0.00  0.00     0.073 C 
HETATM   12  C   UNL     1      -1.156  10.098  27.894  0.00  0.00     0.053 C 
HETATM   13  C   UNL     1      -1.405   8.896  28.546  0.00  0.00     0.141 C 
HETATM   14  N   UNL     1      -1.130   7.858  27.778  0.00  0.00    -0.179 NA
HETATM   15  N   UNL     1      -0.536   8.378  26.657  0.00  0.00    -0.234 N 
BRANCH  15  16
HETATM   16  C   UNL     1       0.140   7.439  25.808  0.00  0.00     0.059 A 
HETATM   17  C   UNL     1       0.495   6.184  26.355  0.00  0.00     0.031 A 
HETATM   18  C   UNL     1       1.157   5.219  25.593  0.00  0.00     0.002 A 
HETATM   19  C   UNL     1       1.471   5.493  24.268  0.00  0.00     0.000 A 
HETATM   20  C   UNL     1       1.158   6.736  23.724  0.00  0.00     0.002 A 
HETATM   21  C   UNL     1       0.516   7.718  24.495  0.00  0.00     0.031 A 
ENDBRANCH  15  16
ENDBRANCH   8  11
BRANCH   9  22
HETATM   22  O   UNL     1      -2.930  10.790  24.999  0.00  0.00    -0.360 OA
HETATM   23  H   UNL     1      -3.050   9.943  24.536  0.00  0.00     0.217 HD
ENDBRANCH   9  22
BRANCH   1  24
HETATM   24  C   UNL     1       3.440  12.231  23.292  0.00  0.00     0.100 C 
BRANCH  24  25
HETATM   25  C   UNL     1       4.091  13.356  24.067  0.00  0.00    -0.052 A 
HETATM   26  C   UNL     1       3.331  14.382  24.655  0.00  0.00     0.007 A 
HETATM   27  C   UNL     1       3.949  15.521  25.176  0.00  0.00     0.001 A 
HETATM   28  C   UNL     1       5.335  15.650  25.121  0.00  0.00     0.000 A 
HETATM   29  C   UNL     1       6.106  14.627  24.575  0.00  0.00     0.001 A 
HETATM   30  C   UNL     1       5.489  13.485  24.057  0.00  0.00     0.007 A 
ENDBRANCH  24  25
ENDBRANCH   1  24
TORSDOF 5
ENDMDL
MODEL 6
REMARK minimizedAffinity -9.27957916
REMARK minimizedRMSD -1
REMARK  5 active torsions:
REMARK  status: ('A' for Active; 'I' for Inactive)
REMARK    1  A    between atoms: C_6  and  C_7 
REMARK    2  A    between atoms: C_7  and  C_8 
REMARK    3  A    between atoms: C_15  and  C_19 
REMARK    4  A    between atoms: C_16  and  O_18 
REMARK    5  A    between atoms: N_23  and  C_24 
ROOT
HETATM    1  C   UNL     1       5.205   8.238  24.398  0.00  0.00     0.071 A 
HETATM    2  N   UNL     1       5.155   7.230  25.288  0.00  0.00    -0.178 NA
HETATM    3  N   UNL     1       4.006   7.429  25.946  0.00  0.00    -0.277 N 
HETATM    4  H   UNL     1       3.765   6.792  26.694  0.00  0.00     0.189 HD
HETATM    5  C   UNL     1       4.072   9.101  24.518  0.00  0.00     0.020 A 
HETATM    6  C   UNL     1       3.318   8.543  25.544  0.00  0.00     0.065 A 
HETATM    7  C   UNL     1       3.625  10.314  23.930  0.00  0.00     0.032 A 
HETATM    8  C   UNL     1       2.420  10.927  24.348  0.00  0.00     0.027 A 
HETATM    9  C   UNL     1       1.723  10.303  25.402  0.00  0.00     0.080 A 
HETATM   10  C   UNL     1       2.142   9.112  26.019  0.00  0.00     0.069 A 
ENDROOT
BRANCH   8  11
HETATM   11  C   UNL     1       1.995  12.251  23.807  0.00  0.00     0.073 C 
HETATM   12  C   UNL     1       1.042  12.467  22.810  0.00  0.00     0.053 C 
HETATM   13  C   UNL     1       0.772  13.831  22.795  0.00  0.00     0.141 C 
HETATM   14  N   UNL     1       1.498  14.482  23.685  0.00  0.00    -0.179 NA
HETATM   15  N   UNL     1       2.379  13.558  24.187  0.00  0.00    -0.234 N 
BRANCH  15  16
HETATM   16  C   UNL     1       3.481  14.082  24.942  0.00  0.00     0.059 A 
HETATM   17  C   UNL     1       4.035  15.319  24.538  0.00  0.00     0.031 A 
HETATM   18  C   UNL     1       5.111  15.892  25.219  0.00  0.00     0.002 A 
HETATM   19  C   UNL     1       5.648  15.237  26.320  0.00  0.00     0.000 A 
HETATM   20  C   UNL     1       5.136  14.003  26.711  0.00  0.00     0.002 A 
HETATM   21  C   UNL     1       4.071  13.412  26.012  0.00  0.00     0.031 A 
ENDBRANCH  15  16
ENDBRANCH   8  11
BRANCH   9  22
HETATM   22  O   UNL     1       0.595  10.854  25.956  0.00  0.00    -0.360 OA
HETATM   23  H   UNL     1       0.920  11.465  26.640  0.00  0.00     0.217 HD
ENDBRANCH   9  22
BRANCH   1  24
HETATM   24  C   UNL     1       6.434   8.445  23.575  0.00  0.00     0.100 C 
BRANCH  24  25
HETATM   25  C   UNL     1       6.803   9.912  23.533  0.00  0.00    -0.052 A 
HETATM   26  C   UNL     1       6.849  10.694  24.700  0.00  0.00     0.007 A 
HETATM   27  C   UNL     1       6.975  12.083  24.626  0.00  0.00     0.001 A 
HETATM   28  C   UNL     1       7.062  12.710  23.385  0.00  0.00     0.000 A 
HETATM   29  C   UNL     1       7.055  11.948  22.220  0.00  0.00     0.001 A 
HETATM   30  C   UNL     1       6.932  10.558  22.293  0.00  0.00     0.007 A 
ENDBRANCH  24  25
ENDBRANCH   1  24
TORSDOF 5
ENDMDL
MODEL 7
REMARK minimizedAffinity -9.09552002
REMARK minimizedRMSD -1
REMARK  5 active torsions:
REMARK  status: ('A' for Active; 'I' for Inactive)
REMARK    1  A    between atoms: C_6  and  C_7 
REMARK    2  A    between atoms: C_7  and  C_8 
REMARK    3  A    between atoms: C_15  and  C_19 
REMARK    4  A    between atoms: C_16  and  O_18 
REMARK    5  A    between atoms: N_23  and  C_24 
ROOT
HETATM    1  C   UNL     1      -0.186   9.207  25.189  0.00  0.00     0.071 A 
HETATM    2  N   UNL     1      -1.371   9.822  25.356  0.00  0.00    -0.178 NA
HETATM    3  N   UNL     1      -1.164  11.064  24.903  0.00  0.00    -0.277 N 
HETATM    4  H   UNL     1      -1.927  11.726  24.953  0.00  0.00     0.189 HD
HETATM    5  C   UNL     1       0.792  10.093  24.638  0.00  0.00     0.020 A 
HETATM    6  C   UNL     1       0.116  11.296  24.474  0.00  0.00     0.065 A 
HETATM    7  C   UNL     1       2.175  10.041  24.319  0.00  0.00     0.032 A 
HETATM    8  C   UNL     1       2.848  11.176  23.808  0.00  0.00     0.027 A 
HETATM    9  C   UNL     1       2.092  12.360  23.684  0.00  0.00     0.080 A 
HETATM   10  C   UNL     1       0.728  12.453  24.004  0.00  0.00     0.069 A 
ENDROOT
BRANCH   8  11
HETATM   11  C   UNL     1       4.320  11.161  23.565  0.00  0.00     0.073 C 
HETATM   12  C   UNL     1       5.032  10.176  22.877  0.00  0.00     0.053 C 
HETATM   13  C   UNL     1       6.312  10.674  22.665  0.00  0.00     0.141 C 
HETATM   14  N   UNL     1       6.460  11.878  23.186  0.00  0.00    -0.179 NA
HETATM   15  N   UNL     1       5.310  12.115  23.895  0.00  0.00    -0.234 N 
BRANCH  15  16
HETATM   16  C   UNL     1       5.348  13.219  24.810  0.00  0.00     0.059 A 
HETATM   17  C   UNL     1       5.406  14.526  24.271  0.00  0.00     0.031 A 
HETATM   18  C   UNL     1       5.449  15.652  25.097  0.00  0.00     0.002 A 
HETATM   19  C   UNL     1       5.432  15.488  26.476  0.00  0.00     0.000 A 
HETATM   20  C   UNL     1       5.409  14.208  27.022  0.00  0.00     0.002 A 
HETATM   21  C   UNL     1       5.392  13.073  26.195  0.00  0.00     0.031 A 
ENDBRANCH  15  16
ENDBRANCH   8  11
BRANCH   9  22
HETATM   22  O   UNL     1       2.658  13.547  23.291  0.00  0.00    -0.360 OA
HETATM   23  H   UNL     1       3.002  13.947  24.109  0.00  0.00     0.217 HD
ENDBRANCH   9  22
BRANCH   1  24
HETATM   24  C   UNL     1       0.022   7.831  25.730  0.00  0.00     0.100 C 
BRANCH  24  25
HETATM   25  C   UNL     1       0.547   7.893  27.148  0.00  0.00    -0.052 A 
HETATM   26  C   UNL     1       1.914   7.739  27.435  0.00  0.00     0.007 A 
HETATM   27  C   UNL     1       2.355   7.581  28.751  0.00  0.00     0.001 A 
HETATM   28  C   UNL     1       1.437   7.579  29.799  0.00  0.00     0.000 A 
HETATM   29  C   UNL     1       0.083   7.767  29.536  0.00  0.00     0.001 A 
HETATM   30  C   UNL     1      -0.359   7.929  28.220  0.00  0.00     0.007 A 
ENDBRANCH  24  25
ENDBRANCH   1  24
TORSDOF 5
ENDMDL
MODEL 8
REMARK minimizedAffinity -9.0713768
REMARK minimizedRMSD -1
REMARK  5 active torsions:
REMARK  status: ('A' for Active; 'I' for Inactive)
REMARK    1  A    between atoms: C_6  and  C_7 
REMARK    2  A    between atoms: C_7  and  C_8 
REMARK    3  A    between atoms: C_15  and  C_19 
REMARK    4  A    between atoms: C_16  and  O_18 
REMARK    5  A    between atoms: N_23  and  C_24 
ROOT
HETATM    1  C   UNL     1       5.769  13.055  24.462  0.00  0.00     0.071 A 
HETATM    2  N   UNL     1       6.579  13.950  23.868  0.00  0.00    -0.178 NA
HETATM    3  N   UNL     1       7.474  13.200  23.214  0.00  0.00    -0.277 N 
HETATM    4  H   UNL     1       8.211  13.669  22.704  0.00  0.00     0.189 HD
HETATM    5  C   UNL     1       6.181  11.713  24.191  0.00  0.00     0.020 A 
HETATM    6  C   UNL     1       7.302  11.852  23.380  0.00  0.00     0.065 A 
HETATM    7  C   UNL     1       5.783  10.407  24.582  0.00  0.00     0.032 A 
HETATM    8  C   UNL     1       6.484   9.265  24.128  0.00  0.00     0.027 A 
HETATM    9  C   UNL     1       7.615   9.494  23.319  0.00  0.00     0.080 A 
HETATM   10  C   UNL     1       8.049  10.771  22.926  0.00  0.00     0.069 A 
ENDROOT
BRANCH   8  11
HETATM   11  C   UNL     1       6.135   7.898  24.613  0.00  0.00     0.073 C 
HETATM   12  C   UNL     1       6.988   6.793  24.648  0.00  0.00     0.053 C 
HETATM   13  C   UNL     1       6.350   5.811  25.397  0.00  0.00     0.141 C 
HETATM   14  N   UNL     1       5.161   6.208  25.809  0.00  0.00    -0.179 NA
HETATM   15  N   UNL     1       4.939   7.411  25.189  0.00  0.00    -0.234 N 
BRANCH  15  16
HETATM   16  C   UNL     1       3.591   7.900  25.224  0.00  0.00     0.059 A 
HETATM   17  C   UNL     1       2.787   7.715  24.075  0.00  0.00     0.031 A 
HETATM   18  C   UNL     1       1.466   8.166  24.031  0.00  0.00     0.002 A 
HETATM   19  C   UNL     1       0.927   8.808  25.138  0.00  0.00     0.000 A 
HETATM   20  C   UNL     1       1.715   9.028  26.264  0.00  0.00     0.002 A 
HETATM   21  C   UNL     1       3.052   8.598  26.302  0.00  0.00     0.031 A 
ENDBRANCH  15  16
ENDBRANCH   8  11
BRANCH   9  22
HETATM   22  O   UNL     1       8.429   8.472  22.898  0.00  0.00    -0.360 OA
HETATM   23  H   UNL     1       9.070   8.344  23.620  0.00  0.00     0.217 HD
ENDBRANCH   9  22
BRANCH   1  24
HETATM   24  C   UNL     1       4.724  13.518  25.422  0.00  0.00     0.100 C 
BRANCH  24  25
HETATM   25  C   UNL     1       3.344  13.360  24.821  0.00  0.00    -0.052 A 
HETATM   26  C   UNL     1       2.829  12.097  24.484  0.00  0.00     0.007 A 
HETATM   27  C   UNL     1       1.655  11.980  23.735  0.00  0.00     0.001 A 
HETATM   28  C   UNL     1       0.978  13.124  23.317  0.00  0.00     0.000 A 
HETATM   29  C   UNL     1       1.455  14.382  23.673  0.00  0.00     0.001 A 
HETATM   30  C   UNL     1       2.627  14.500  24.425  0.00  0.00     0.007 A 
ENDBRANCH  24  25
ENDBRANCH   1  24
TORSDOF 5
ENDMDL
MODEL 9
REMARK minimizedAffinity -9.04604626
REMARK minimizedRMSD -1
REMARK  5 active torsions:
REMARK  status: ('A' for Active; 'I' for Inactive)
REMARK    1  A    between atoms: C_6  and  C_7 
REMARK    2  A    between atoms: C_7  and  C_8 
REMARK    3  A    between atoms: C_15  and  C_19 
REMARK    4  A    between atoms: C_16  and  O_18 
REMARK    5  A    between atoms: N_23  and  C_24 
ROOT
HETATM    1  C   UNL     1       7.017  11.622  23.019  0.00  0.00     0.071 A 
HETATM    2  N   UNL     1       8.105  12.360  23.305  0.00  0.00    -0.178 NA
HETATM    3  N   UNL     1       7.625  13.401  23.996  0.00  0.00    -0.277 N 
HETATM    4  H   UNL     1       8.274  14.114  24.302  0.00  0.00     0.189 HD
HETATM    5  C   UNL     1       5.825  12.228  23.524  0.00  0.00     0.020 A 
HETATM    6  C   UNL     1       6.264  13.390  24.148  0.00  0.00     0.065 A 
HETATM    7  C   UNL     1       4.430  11.969  23.476  0.00  0.00     0.032 A 
HETATM    8  C   UNL     1       3.502  12.851  24.081  0.00  0.00     0.027 A 
HETATM    9  C   UNL     1       4.030  14.012  24.681  0.00  0.00     0.080 A 
HETATM   10  C   UNL     1       5.402  14.310  24.734  0.00  0.00     0.069 A 
ENDROOT
BRANCH   8  11
HETATM   11  C   UNL     1       2.032  12.640  23.949  0.00  0.00     0.073 C 
HETATM   12  C   UNL     1       1.101  13.580  23.502  0.00  0.00     0.053 C 
HETATM   13  C   UNL     1      -0.094  12.900  23.292  0.00  0.00     0.141 C 
HETATM   14  N   UNL     1       0.014  11.620  23.595  0.00  0.00    -0.179 NA
HETATM   15  N   UNL     1       1.252  11.481  24.167  0.00  0.00    -0.234 N 
BRANCH  15  16
HETATM   16  C   UNL     1       1.490  10.250  24.866  0.00  0.00     0.059 A 
HETATM   17  C   UNL     1       0.670   9.140  24.555  0.00  0.00     0.031 A 
HETATM   18  C   UNL     1       0.838   7.910  25.194  0.00  0.00     0.002 A 
HETATM   19  C   UNL     1       1.831   7.770  26.154  0.00  0.00     0.000 A 
HETATM   20  C   UNL     1       2.625   8.861  26.496  0.00  0.00     0.002 A 
HETATM   21  C   UNL     1       2.442  10.107  25.874  0.00  0.00     0.031 A 
ENDBRANCH  15  16
ENDBRANCH   8  11
BRANCH   9  22
HETATM   22  O   UNL     1       3.224  14.986  25.214  0.00  0.00    -0.360 OA
HETATM   23  H   UNL     1       3.003  15.570  24.467  0.00  0.00     0.217 HD
ENDBRANCH   9  22
BRANCH   1  24
HETATM   24  C   UNL     1       7.134  10.442  22.112  0.00  0.00     0.100 C 
BRANCH  24  25
HETATM   25  C   UNL     1       6.238   9.318  22.586  0.00  0.00    -0.052 A 
HETATM   26  C   UNL     1       5.062   8.974  21.898  0.00  0.00     0.007 A 
HETATM   27  C   UNL     1       4.138   8.090  22.459  0.00  0.00     0.001 A 
HETATM   28  C   UNL     1       4.378   7.534  23.715  0.00  0.00     0.000 A 
HETATM   29  C   UNL     1       5.554   7.836  24.394  0.00  0.00     0.001 A 
HETATM   30  C   UNL     1       6.482   8.718  23.832  0.00  0.00     0.007 A 
ENDBRANCH  24  25
ENDBRANCH   1  24
TORSDOF 5
ENDMDL
