MODEL 1
REMARK VINA RESULT:    -8.256      0.000      0.000
REMARK INTER + INTRA:         -12.431
REMARK INTER:                 -10.404
REMARK INTRA:                  -2.027
REMARK UNBOUND:                -2.004
REMARK  5 active torsions:
REMARK  status: ('A' for Active; 'I' for Inactive)
REMARK    1  A    between atoms: C_7  and  C_8 
REMARK    2  A    between atoms: C_8  and  C_9 
REMARK    3  A    between atoms: C_16  and  C_20 
REMARK    4  A    between atoms: C_17  and  O_19 
REMARK       I    between atoms: C_20  and  N_22 
REMARK    5  A    between atoms: N_22  and  C_24 
ROOT
HETATM    1  C   UNL     1       2.745  11.803  23.684  0.00  0.00     0.071 C 
HETATM    2  N   UNL     1       2.231  10.942  24.581  0.00  0.00    -0.178 NA
HETATM    3  N   UNL     1       3.012   9.859  24.478  0.00  0.00    -0.277 N 
HETATM    4  H   UNL     1       2.815   9.066  25.078  0.00  0.00     0.189 HD
HETATM    5  C   UNL     1       3.869  11.242  23.005  0.00  0.00     0.020 C 
HETATM    6  C   UNL     1       3.951   9.939  23.487  0.00  0.00     0.065 C 
HETATM    7  C   UNL     1       4.777  11.652  22.005  0.00  0.00     0.035 C 
HETATM    8  C   UNL     1       5.696  10.719  21.485  0.00  0.00     0.066 C 
HETATM    9  C   UNL     1       5.641   9.381  21.911  0.00  0.00     0.083 C 
HETATM   10  C   UNL     1       4.815   8.977  22.963  0.00  0.00     0.069 C 
ENDROOT
BRANCH   8  11
HETATM   11  C   UNL     1       6.689  11.110  20.456  0.00  0.00     0.260 C 
HETATM   12  O   UNL     1       6.562  10.560  19.355  0.00  0.00    -0.267 OA
HETATM   13  N   UNL     1       7.691  12.070  20.722  0.00  0.00    -0.318 N 
HETATM   14  C   UNL     1       8.432  12.602  19.579  0.00  0.00     0.159 C 
BRANCH  13  15
HETATM   15  C   UNL     1       8.137  12.472  22.024  0.00  0.00     0.040 A 
HETATM   16  C   UNL     1       7.697  13.661  22.616  0.00  0.00     0.072 A 
HETATM   17  C   UNL     1       8.204  14.060  23.848  0.00  0.00     0.118 A 
HETATM   18  F   UNL     1       7.792  15.219  24.384  0.00  0.00    -0.206 F 
HETATM   19  C   UNL     1       9.123  13.280  24.531  0.00  0.00     0.042 A 
HETATM   20  C   UNL     1       9.525  12.066  23.993  0.00  0.00     0.005 A 
HETATM   21  C   UNL     1       9.024  11.658  22.752  0.00  0.00     0.030 A 
ENDBRANCH  13  15
ENDBRANCH   8  11
BRANCH   9  22
HETATM   22  O   UNL     1       6.351   8.381  21.300  0.00  0.00    -0.360 OA
HETATM   23  H   UNL     1       6.646   7.766  22.007  0.00  0.00     0.217 HD
ENDBRANCH   9  22
BRANCH   1  24
HETATM   24  C   UNL     1       2.036  13.091  23.403  0.00  0.00     0.100 C 
BRANCH  24  25
HETATM   25  C   UNL     1       2.800  14.204  24.076  0.00  0.00    -0.052 A 
HETATM   26  C   UNL     1       2.487  14.571  25.394  0.00  0.00     0.014 A 
HETATM   27  C   UNL     1       3.153  15.630  26.025  0.00  0.00    -0.061 A 
HETATM   28  C   UNL     1       2.723  16.097  27.382  0.00  0.00     0.048 C 
HETATM   29  C   UNL     1       4.173  16.300  25.341  0.00  0.00     0.007 A 
HETATM   30  C   UNL     1       4.529  15.912  24.052  0.00  0.00     0.001 A 
HETATM   31  C   UNL     1       3.849  14.870  23.423  0.00  0.00     0.007 A 
ENDBRANCH  24  25
ENDBRANCH   1  24
TORSDOF 5
ENDMDL
MODEL 2
REMARK VINA RESULT:    -8.200      2.906      4.498
REMARK INTER + INTRA:         -12.361
REMARK INTER:                 -10.397
REMARK INTRA:                  -1.964
REMARK UNBOUND:                -2.004
REMARK  5 active torsions:
REMARK  status: ('A' for Active; 'I' for Inactive)
REMARK    1  A    between atoms: C_7  and  C_8 
REMARK    2  A    between atoms: C_8  and  C_9 
REMARK    3  A    between atoms: C_16  and  C_20 
REMARK    4  A    between atoms: C_17  and  O_19 
REMARK       I    between atoms: C_20  and  N_22 
REMARK    5  A    between atoms: N_22  and  C_24 
ROOT
HETATM    1  C   UNL     1       5.789  15.333  24.764  0.00  0.00     0.071 C 
HETATM    2  N   UNL     1       5.621  15.381  26.098  0.00  0.00    -0.178 NA
HETATM    3  N   UNL     1       6.713  14.778  26.586  0.00  0.00    -0.277 N 
HETATM    4  H   UNL     1       6.810  14.703  27.592  0.00  0.00     0.189 HD
HETATM    5  C   UNL     1       7.012  14.683  24.414  0.00  0.00     0.020 C 
HETATM    6  C   UNL     1       7.537  14.255  25.630  0.00  0.00     0.065 C 
HETATM    7  C   UNL     1       7.697  14.352  23.226  0.00  0.00     0.035 C 
HETATM    8  C   UNL     1       8.856  13.553  23.299  0.00  0.00     0.066 C 
HETATM    9  C   UNL     1       9.261  13.033  24.540  0.00  0.00     0.083 C 
HETATM   10  C   UNL     1       8.653  13.423  25.736  0.00  0.00     0.069 C 
ENDROOT
BRANCH   8  11
HETATM   11  C   UNL     1       9.627  13.203  22.082  0.00  0.00     0.260 C 
HETATM   12  O   UNL     1      10.441  14.054  21.703  0.00  0.00    -0.267 OA
HETATM   13  N   UNL     1       9.452  11.964  21.427  0.00  0.00    -0.318 N 
HETATM   14  C   UNL     1      10.447  11.588  20.423  0.00  0.00     0.159 C 
BRANCH  13  15
HETATM   15  C   UNL     1       8.314  11.102  21.562  0.00  0.00     0.040 A 
HETATM   16  C   UNL     1       7.111  11.364  20.898  0.00  0.00     0.072 A 
HETATM   17  C   UNL     1       6.003  10.550  21.108  0.00  0.00     0.118 A 
HETATM   18  F   UNL     1       4.849  10.837  20.485  0.00  0.00    -0.206 F 
HETATM   19  C   UNL     1       6.072   9.447  21.943  0.00  0.00     0.042 A 
HETATM   20  C   UNL     1       7.274   9.131  22.562  0.00  0.00     0.005 A 
HETATM   21  C   UNL     1       8.393   9.946  22.361  0.00  0.00     0.030 A 
ENDBRANCH  13  15
ENDBRANCH   8  11
BRANCH   9  22
HETATM   22  O   UNL     1      10.241  12.083  24.659  0.00  0.00    -0.360 OA
HETATM   23  H   UNL     1      11.102  12.545  24.554  0.00  0.00     0.217 HD
ENDBRANCH   9  22
BRANCH   1  24
HETATM   24  C   UNL     1       4.684  15.786  23.861  0.00  0.00     0.100 C 
BRANCH  24  25
HETATM   25  C   UNL     1       3.709  14.646  23.705  0.00  0.00    -0.052 A 
HETATM   26  C   UNL     1       2.380  14.797  24.130  0.00  0.00     0.014 A 
HETATM   27  C   UNL     1       1.467  13.739  24.034  0.00  0.00    -0.061 A 
HETATM   28  C   UNL     1       0.089  13.870  24.609  0.00  0.00     0.048 C 
HETATM   29  C   UNL     1       1.881  12.528  23.469  0.00  0.00     0.007 A 
HETATM   30  C   UNL     1       3.183  12.380  22.996  0.00  0.00     0.001 A 
HETATM   31  C   UNL     1       4.091  13.432  23.111  0.00  0.00     0.007 A 
ENDBRANCH  24  25
ENDBRANCH   1  24
TORSDOF 5
ENDMDL
MODEL 3
REMARK VINA RESULT:    -8.166      2.903      4.710
REMARK INTER + INTRA:         -12.318
REMARK INTER:                 -10.622
REMARK INTRA:                  -1.697
REMARK UNBOUND:                -2.004
REMARK  5 active torsions:
REMARK  status: ('A' for Active; 'I' for Inactive)
REMARK    1  A    between atoms: C_7  and  C_8 
REMARK    2  A    between atoms: C_8  and  C_9 
REMARK    3  A    between atoms: C_16  and  C_20 
REMARK    4  A    between atoms: C_17  and  O_19 
REMARK       I    between atoms: C_20  and  N_22 
REMARK    5  A    between atoms: N_22  and  C_24 
ROOT
HETATM    1  C   UNL     1       7.599  14.453  26.576  0.00  0.00     0.071 C 
HETATM    2  N   UNL     1       8.637  15.137  27.090  0.00  0.00    -0.178 NA
HETATM    3  N   UNL     1       9.715  14.497  26.617  0.00  0.00    -0.277 N 
HETATM    4  H   UNL     1      10.631  14.848  26.872  0.00  0.00     0.189 HD
HETATM    5  C   UNL     1       8.040  13.363  25.766  0.00  0.00     0.020 C 
HETATM    6  C   UNL     1       9.426  13.373  25.896  0.00  0.00     0.065 C 
HETATM    7  C   UNL     1       7.439  12.341  25.000  0.00  0.00     0.035 C 
HETATM    8  C   UNL     1       8.249  11.333  24.440  0.00  0.00     0.066 C 
HETATM    9  C   UNL     1       9.626  11.316  24.720  0.00  0.00     0.083 C 
HETATM   10  C   UNL     1      10.253  12.365  25.397  0.00  0.00     0.069 C 
ENDROOT
BRANCH   8  11
HETATM   11  C   UNL     1       7.668  10.256  23.603  0.00  0.00     0.260 C 
HETATM   12  O   UNL     1       7.497   9.171  24.172  0.00  0.00    -0.267 OA
HETATM   13  N   UNL     1       7.313  10.478  22.254  0.00  0.00    -0.318 N 
HETATM   14  C   UNL     1       6.489   9.463  21.600  0.00  0.00     0.159 C 
BRANCH  13  15
HETATM   15  C   UNL     1       7.797  11.546  21.429  0.00  0.00     0.040 A 
HETATM   16  C   UNL     1       8.811  11.343  20.486  0.00  0.00     0.072 A 
HETATM   17  C   UNL     1       9.311  12.414  19.753  0.00  0.00     0.118 A 
HETATM   18  F   UNL     1      10.304  12.203  18.875  0.00  0.00    -0.206 F 
HETATM   19  C   UNL     1       8.798  13.691  19.909  0.00  0.00     0.042 A 
HETATM   20  C   UNL     1       7.748  13.904  20.792  0.00  0.00     0.005 A 
HETATM   21  C   UNL     1       7.242  12.834  21.538  0.00  0.00     0.030 A 
ENDBRANCH  13  15
ENDBRANCH   8  11
BRANCH   9  22
HETATM   22  O   UNL     1      10.433  10.258  24.394  0.00  0.00    -0.360 OA
HETATM   23  H   UNL     1      11.335  10.621  24.246  0.00  0.00     0.217 HD
ENDBRANCH   9  22
BRANCH   1  24
HETATM   24  C   UNL     1       6.205  14.787  27.008  0.00  0.00     0.100 C 
BRANCH  24  25
HETATM   25  C   UNL     1       5.370  15.005  25.771  0.00  0.00    -0.052 A 
HETATM   26  C   UNL     1       4.004  14.684  25.782  0.00  0.00     0.014 A 
HETATM   27  C   UNL     1       3.217  14.837  24.633  0.00  0.00    -0.061 A 
HETATM   28  C   UNL     1       1.794  14.370  24.618  0.00  0.00     0.048 C 
HETATM   29  C   UNL     1       3.799  15.357  23.471  0.00  0.00     0.007 A 
HETATM   30  C   UNL     1       5.142  15.729  23.461  0.00  0.00     0.001 A 
HETATM   31  C   UNL     1       5.922  15.556  24.604  0.00  0.00     0.007 A 
ENDBRANCH  24  25
ENDBRANCH   1  24
TORSDOF 5
ENDMDL
MODEL 4
REMARK VINA RESULT:    -8.128      4.017      7.115
REMARK INTER + INTRA:         -12.269
REMARK INTER:                  -9.983
REMARK INTRA:                  -2.286
REMARK UNBOUND:                -2.004
REMARK  5 active torsions:
REMARK  status: ('A' for Active; 'I' for Inactive)
REMARK    1  A    between atoms: C_7  and  C_8 
REMARK    2  A    between atoms: C_8  and  C_9 
REMARK    3  A    between atoms: C_16  and  C_20 
REMARK    4  A    between atoms: C_17  and  O_19 
REMARK       I    between atoms: C_20  and  N_22 
REMARK    5  A    between atoms: N_22  and  C_24 
ROOT
HETATM    1  C   UNL     1       4.074   9.547  23.944  0.00  0.00     0.071 C 
HETATM    2  N   UNL     1       4.544   8.871  22.880  0.00  0.00    -0.178 NA
HETATM    3  N   UNL     1       3.539   8.049  22.547  0.00  0.00    -0.277 N 
HETATM    4  H   UNL     1       3.666   7.435  21.751  0.00  0.00     0.189 HD
HETATM    5  C   UNL     1       2.748   9.136  24.281  0.00  0.00     0.020 C 
HETATM    6  C   UNL     1       2.475   8.092  23.403  0.00  0.00     0.065 C 
HETATM    7  C   UNL     1       1.784   9.473  25.255  0.00  0.00     0.035 C 
HETATM    8  C   UNL     1       0.602   8.710  25.346  0.00  0.00     0.066 C 
HETATM    9  C   UNL     1       0.442   7.582  24.524  0.00  0.00     0.083 C 
HETATM   10  C   UNL     1       1.339   7.286  23.495  0.00  0.00     0.069 C 
ENDROOT
BRANCH   8  11
HETATM   11  C   UNL     1      -0.454   9.043  26.331  0.00  0.00     0.260 C 
HETATM   12  O   UNL     1      -0.665   8.187  27.199  0.00  0.00    -0.267 OA
HETATM   13  N   UNL     1      -1.146  10.275  26.286  0.00  0.00    -0.318 N 
HETATM   14  C   UNL     1      -1.951  10.637  27.451  0.00  0.00     0.159 C 
BRANCH  13  15
HETATM   15  C   UNL     1      -1.235  11.140  25.146  0.00  0.00     0.040 A 
HETATM   16  C   UNL     1      -0.385  12.241  24.991  0.00  0.00     0.072 A 
HETATM   17  C   UNL     1      -0.545  13.104  23.913  0.00  0.00     0.118 A 
HETATM   18  F   UNL     1       0.261  14.171  23.799  0.00  0.00    -0.206 F 
HETATM   19  C   UNL     1      -1.518  12.878  22.953  0.00  0.00     0.042 A 
HETATM   20  C   UNL     1      -2.330  11.757  23.051  0.00  0.00     0.005 A 
HETATM   21  C   UNL     1      -2.180  10.885  24.135  0.00  0.00     0.030 A 
ENDBRANCH  13  15
ENDBRANCH   8  11
BRANCH   9  22
HETATM   22  O   UNL     1      -0.571   6.676  24.703  0.00  0.00    -0.360 OA
HETATM   23  H   UNL     1      -0.248   6.012  25.353  0.00  0.00     0.217 HD
ENDBRANCH   9  22
BRANCH   1  24
HETATM   24  C   UNL     1       4.983  10.468  24.697  0.00  0.00     0.100 C 
BRANCH  24  25
HETATM   25  C   UNL     1       4.530  11.885  24.444  0.00  0.00    -0.052 A 
HETATM   26  C   UNL     1       3.800  12.572  25.425  0.00  0.00     0.014 A 
HETATM   27  C   UNL     1       3.331  13.872  25.197  0.00  0.00    -0.061 A 
HETATM   28  C   UNL     1       2.443  14.547  26.198  0.00  0.00     0.048 C 
HETATM   29  C   UNL     1       3.634  14.505  23.986  0.00  0.00     0.007 A 
HETATM   30  C   UNL     1       4.402  13.853  23.024  0.00  0.00     0.001 A 
HETATM   31  C   UNL     1       4.849  12.552  23.251  0.00  0.00     0.007 A 
ENDBRANCH  24  25
ENDBRANCH   1  24
TORSDOF 5
ENDMDL
MODEL 5
REMARK VINA RESULT:    -8.099      2.533      3.729
REMARK INTER + INTRA:         -12.233
REMARK INTER:                 -10.409
REMARK INTRA:                  -1.824
REMARK UNBOUND:                -2.004
REMARK  5 active torsions:
REMARK  status: ('A' for Active; 'I' for Inactive)
REMARK    1  A    between atoms: C_7  and  C_8 
REMARK    2  A    between atoms: C_8  and  C_9 
REMARK    3  A    between atoms: C_16  and  C_20 
REMARK    4  A    between atoms: C_17  and  O_19 
REMARK       I    between atoms: C_20  and  N_22 
REMARK    5  A    between atoms: N_22  and  C_24 
ROOT
HETATM    1  C   UNL     1       5.805  14.912  25.095  0.00  0.00     0.071 C 
HETATM    2  N   UNL     1       6.473  15.172  26.234  0.00  0.00    -0.178 NA
HETATM    3  N   UNL     1       7.252  14.096  26.407  0.00  0.00    -0.277 N 
HETATM    4  H   UNL     1       7.864  14.072  27.215  0.00  0.00     0.189 HD
HETATM    5  C   UNL     1       6.176  13.645  24.549  0.00  0.00     0.020 C 
HETATM    6  C   UNL     1       7.052  13.107  25.486  0.00  0.00     0.065 C 
HETATM    7  C   UNL     1       5.829  12.871  23.421  0.00  0.00     0.035 C 
HETATM    8  C   UNL     1       6.332  11.560  23.306  0.00  0.00     0.066 C 
HETATM    9  C   UNL     1       7.100  11.019  24.350  0.00  0.00     0.083 C 
HETATM   10  C   UNL     1       7.530  11.796  25.428  0.00  0.00     0.069 C 
ENDROOT
BRANCH   8  11
HETATM   11  C   UNL     1       6.021  10.718  22.126  0.00  0.00     0.260 C 
HETATM   12  O   UNL     1       5.136   9.869  22.293  0.00  0.00    -0.267 OA
HETATM   13  N   UNL     1       6.680  10.904  20.890  0.00  0.00    -0.318 N 
HETATM   14  C   UNL     1       6.114  10.238  19.718  0.00  0.00     0.159 C 
BRANCH  13  15
HETATM   15  C   UNL     1       7.931  11.580  20.706  0.00  0.00     0.040 A 
HETATM   16  C   UNL     1       7.990  12.934  20.356  0.00  0.00     0.072 A 
HETATM   17  C   UNL     1       9.216  13.542  20.111  0.00  0.00     0.118 A 
HETATM   18  F   UNL     1       9.249  14.834  19.747  0.00  0.00    -0.206 F 
HETATM   19  C   UNL     1      10.403  12.840  20.243  0.00  0.00     0.042 A 
HETATM   20  C   UNL     1      10.372  11.514  20.652  0.00  0.00     0.005 A 
HETATM   21  C   UNL     1       9.143  10.891  20.895  0.00  0.00     0.030 A 
ENDBRANCH  13  15
ENDBRANCH   8  11
BRANCH   9  22
HETATM   22  O   UNL     1       7.439   9.692  24.407  0.00  0.00    -0.360 OA
HETATM   23  H   UNL     1       7.143   9.285  23.563  0.00  0.00     0.217 HD
ENDBRANCH   9  22
BRANCH   1  24
HETATM   24  C   UNL     1       4.715  15.836  24.649  0.00  0.00     0.100 C 
BRANCH  24  25
HETATM   25  C   UNL     1       3.391  15.174  24.942  0.00  0.00    -0.052 A 
HETATM   26  C   UNL     1       2.627  14.641  23.892  0.00  0.00     0.014 A 
HETATM   27  C   UNL     1       1.375  14.061  24.134  0.00  0.00    -0.061 A 
HETATM   28  C   UNL     1       0.512  13.613  22.994  0.00  0.00     0.048 C 
HETATM   29  C   UNL     1       0.903  13.978  25.448  0.00  0.00     0.007 A 
HETATM   30  C   UNL     1       1.674  14.456  26.505  0.00  0.00     0.001 A 
HETATM   31  C   UNL     1       2.911  15.049  26.255  0.00  0.00     0.007 A 
ENDBRANCH  24  25
ENDBRANCH   1  24
TORSDOF 5
ENDMDL
MODEL 6
REMARK VINA RESULT:    -8.030      1.631      2.053
REMARK INTER + INTRA:         -12.146
REMARK INTER:                 -10.300
REMARK INTRA:                  -1.846
REMARK UNBOUND:                -2.004
REMARK  5 active torsions:
REMARK  status: ('A' for Active; 'I' for Inactive)
REMARK    1  A    between atoms: C_7  and  C_8 
REMARK    2  A    between atoms: C_8  and  C_9 
REMARK    3  A    between atoms: C_16  and  C_20 
REMARK    4  A    between atoms: C_17  and  O_19 
REMARK       I    between atoms: C_20  and  N_22 
REMARK    5  A    between atoms: N_22  and  C_24 
ROOT
HETATM    1  C   UNL     1       3.702  11.815  23.379  0.00  0.00     0.071 C 
HETATM    2  N   UNL     1       3.315  10.699  24.021  0.00  0.00    -0.178 NA
HETATM    3  N   UNL     1       4.381   9.891  23.942  0.00  0.00    -0.277 N 
HETATM    4  H   UNL     1       4.322   8.976  24.373  0.00  0.00     0.189 HD
HETATM    5  C   UNL     1       5.039  11.700  22.889  0.00  0.00     0.020 C 
HETATM    6  C   UNL     1       5.409  10.394  23.197  0.00  0.00     0.065 C 
HETATM    7  C   UNL     1       5.945  12.511  22.172  0.00  0.00     0.035 C 
HETATM    8  C   UNL     1       7.169  11.960  21.741  0.00  0.00     0.066 C 
HETATM    9  C   UNL     1       7.430  10.596  21.960  0.00  0.00     0.083 C 
HETATM   10  C   UNL     1       6.590   9.803  22.745  0.00  0.00     0.069 C 
ENDROOT
BRANCH   8  11
HETATM   11  C   UNL     1       8.166  12.779  21.012  0.00  0.00     0.260 C 
HETATM   12  O   UNL     1       8.287  12.526  19.807  0.00  0.00    -0.267 OA
HETATM   13  N   UNL     1       8.901  13.797  21.659  0.00  0.00    -0.318 N 
HETATM   14  C   UNL     1       9.637  14.736  20.812  0.00  0.00     0.159 C 
BRANCH  13  15
HETATM   15  C   UNL     1       9.098  13.914  23.074  0.00  0.00     0.040 A 
HETATM   16  C   UNL     1       9.765  12.926  23.807  0.00  0.00     0.072 A 
HETATM   17  C   UNL     1       9.875  13.033  25.189  0.00  0.00     0.118 A 
HETATM   18  F   UNL     1      10.492  12.059  25.876  0.00  0.00    -0.206 F 
HETATM   19  C   UNL     1       9.364  14.128  25.866  0.00  0.00     0.042 A 
HETATM   20  C   UNL     1       8.755  15.151  25.152  0.00  0.00     0.005 A 
HETATM   21  C   UNL     1       8.636  15.051  23.762  0.00  0.00     0.030 A 
ENDBRANCH  13  15
ENDBRANCH   8  11
BRANCH   9  22
HETATM   22  O   UNL     1       8.491   9.946  21.386  0.00  0.00    -0.360 OA
HETATM   23  H   UNL     1       9.059  10.634  20.975  0.00  0.00     0.217 HD
ENDBRANCH   9  22
BRANCH   1  24
HETATM   24  C   UNL     1       2.711  12.909  23.129  0.00  0.00     0.100 C 
BRANCH  24  25
HETATM   25  C   UNL     1       3.002  14.036  24.089  0.00  0.00    -0.052 A 
HETATM   26  C   UNL     1       2.401  14.049  25.357  0.00  0.00     0.014 A 
HETATM   27  C   UNL     1       2.623  15.106  26.249  0.00  0.00    -0.061 A 
HETATM   28  C   UNL     1       1.876  15.175  27.546  0.00  0.00     0.048 C 
HETATM   29  C   UNL     1       3.488  16.142  25.880  0.00  0.00     0.007 A 
HETATM   30  C   UNL     1       4.132  16.115  24.644  0.00  0.00     0.001 A 
HETATM   31  C   UNL     1       3.892  15.068  23.755  0.00  0.00     0.007 A 
ENDBRANCH  24  25
ENDBRANCH   1  24
TORSDOF 5
ENDMDL
MODEL 7
REMARK VINA RESULT:    -8.021      2.371      4.723
REMARK INTER + INTRA:         -12.135
REMARK INTER:                  -9.964
REMARK INTRA:                  -2.171
REMARK UNBOUND:                -2.004
REMARK  5 active torsions:
REMARK  status: ('A' for Active; 'I' for Inactive)
REMARK    1  A    between atoms: C_7  and  C_8 
REMARK    2  A    between atoms: C_8  and  C_9 
REMARK    3  A    between atoms: C_16  and  C_20 
REMARK    4  A    between atoms: C_17  and  O_19 
REMARK       I    between atoms: C_20  and  N_22 
REMARK    5  A    between atoms: N_22  and  C_24 
ROOT
HETATM    1  C   UNL     1       7.651  14.735  22.635  0.00  0.00     0.071 C 
HETATM    2  N   UNL     1       8.823  15.003  23.237  0.00  0.00    -0.178 NA
HETATM    3  N   UNL     1       9.505  13.853  23.150  0.00  0.00    -0.277 N 
HETATM    4  H   UNL     1      10.440  13.819  23.538  0.00  0.00     0.189 HD
HETATM    5  C   UNL     1       7.600  13.387  22.164  0.00  0.00     0.020 C 
HETATM    6  C   UNL     1       8.793  12.822  22.604  0.00  0.00     0.065 C 
HETATM    7  C   UNL     1       6.672  12.569  21.485  0.00  0.00     0.035 C 
HETATM    8  C   UNL     1       6.953  11.197  21.323  0.00  0.00     0.066 C 
HETATM    9  C   UNL     1       8.109  10.654  21.909  0.00  0.00     0.083 C 
HETATM   10  C   UNL     1       9.082  11.460  22.504  0.00  0.00     0.069 C 
ENDROOT
BRANCH   8  11
HETATM   11  C   UNL     1       6.024  10.304  20.591  0.00  0.00     0.260 C 
HETATM   12  O   UNL     1       6.130  10.317  19.358  0.00  0.00    -0.267 OA
HETATM   13  N   UNL     1       5.104   9.476  21.272  0.00  0.00    -0.318 N 
HETATM   14  C   UNL     1       4.441   8.428  20.498  0.00  0.00     0.159 C 
BRANCH  13  15
HETATM   15  C   UNL     1       4.663   9.656  22.625  0.00  0.00     0.040 A 
HETATM   16  C   UNL     1       4.877   8.678  23.603  0.00  0.00     0.072 A 
HETATM   17  C   UNL     1       4.371   8.849  24.887  0.00  0.00     0.118 A 
HETATM   18  F   UNL     1       4.561   7.886  25.802  0.00  0.00    -0.206 F 
HETATM   19  C   UNL     1       3.681   9.998  25.238  0.00  0.00     0.042 A 
HETATM   20  C   UNL     1       3.513  11.009  24.302  0.00  0.00     0.005 A 
HETATM   21  C   UNL     1       4.013  10.844  23.006  0.00  0.00     0.030 A 
ENDBRANCH  13  15
ENDBRANCH   8  11
BRANCH   9  22
HETATM   22  O   UNL     1       8.336   9.304  21.979  0.00  0.00    -0.360 OA
HETATM   23  H   UNL     1       8.221   8.948  21.070  0.00  0.00     0.217 HD
ENDBRANCH   9  22
BRANCH   1  24
HETATM   24  C   UNL     1       6.552  15.751  22.666  0.00  0.00     0.100 C 
BRANCH  24  25
HETATM   25  C   UNL     1       5.556  15.334  23.720  0.00  0.00    -0.052 A 
HETATM   26  C   UNL     1       4.232  15.047  23.357  0.00  0.00     0.014 A 
HETATM   27  C   UNL     1       3.278  14.699  24.323  0.00  0.00    -0.061 A 
HETATM   28  C   UNL     1       1.840  14.523  23.943  0.00  0.00     0.048 C 
HETATM   29  C   UNL     1       3.669  14.599  25.663  0.00  0.00     0.007 A 
HETATM   30  C   UNL     1       4.993  14.830  26.030  0.00  0.00     0.001 A 
HETATM   31  C   UNL     1       5.931  15.194  25.065  0.00  0.00     0.007 A 
ENDBRANCH  24  25
ENDBRANCH   1  24
TORSDOF 5
ENDMDL
MODEL 8
REMARK VINA RESULT:    -8.003      2.621      4.405
REMARK INTER + INTRA:         -12.112
REMARK INTER:                 -10.108
REMARK INTRA:                  -2.004
REMARK UNBOUND:                -2.004
REMARK  5 active torsions:
REMARK  status: ('A' for Active; 'I' for Inactive)
REMARK    1  A    between atoms: C_7  and  C_8 
REMARK    2  A    between atoms: C_8  and  C_9 
REMARK    3  A    between atoms: C_16  and  C_20 
REMARK    4  A    between atoms: C_17  and  O_19 
REMARK       I    between atoms: C_20  and  N_22 
REMARK    5  A    between atoms: N_22  and  C_24 
ROOT
HETATM    1  C   UNL     1       3.803   9.959  24.161  0.00  0.00     0.071 C 
HETATM    2  N   UNL     1       3.570   9.170  23.098  0.00  0.00    -0.178 NA
HETATM    3  N   UNL     1       4.722   9.192  22.416  0.00  0.00    -0.277 N 
HETATM    4  H   UNL     1       4.785   8.650  21.562  0.00  0.00     0.189 HD
HETATM    5  C   UNL     1       5.130  10.487  24.140  0.00  0.00     0.020 C 
HETATM    6  C   UNL     1       5.663  10.036  22.936  0.00  0.00     0.065 C 
HETATM    7  C   UNL     1       5.913  11.335  24.953  0.00  0.00     0.035 C 
HETATM    8  C   UNL     1       7.182  11.745  24.497  0.00  0.00     0.066 C 
HETATM    9  C   UNL     1       7.611  11.371  23.212  0.00  0.00     0.083 C 
HETATM   10  C   UNL     1       6.894  10.460  22.432  0.00  0.00     0.069 C 
ENDROOT
BRANCH   8  11
HETATM   11  C   UNL     1       8.054  12.610  25.327  0.00  0.00     0.260 C 
HETATM   12  O   UNL     1       8.959  12.029  25.938  0.00  0.00    -0.267 OA
HETATM   13  N   UNL     1       7.868  14.010  25.383  0.00  0.00    -0.318 N 
HETATM   14  C   UNL     1       8.937  14.807  25.984  0.00  0.00     0.159 C 
BRANCH  13  15
HETATM   15  C   UNL     1       6.668  14.708  25.024  0.00  0.00     0.040 A 
HETATM   16  C   UNL     1       5.677  14.999  25.968  0.00  0.00     0.072 A 
HETATM   17  C   UNL     1       4.492  15.611  25.575  0.00  0.00     0.118 A 
HETATM   18  F   UNL     1       3.542  15.854  26.491  0.00  0.00    -0.206 F 
HETATM   19  C   UNL     1       4.278  15.977  24.256  0.00  0.00     0.042 A 
HETATM   20  C   UNL     1       5.274  15.756  23.314  0.00  0.00     0.005 A 
HETATM   21  C   UNL     1       6.468  15.137  23.699  0.00  0.00     0.030 A 
ENDBRANCH  13  15
ENDBRANCH   8  11
BRANCH   9  22
HETATM   22  O   UNL     1       8.726  11.904  22.621  0.00  0.00    -0.360 OA
HETATM   23  H   UNL     1       9.410  11.987  23.323  0.00  0.00     0.217 HD
ENDBRANCH   9  22
BRANCH   1  24
HETATM   24  C   UNL     1       2.681  10.300  25.092  0.00  0.00     0.100 C 
BRANCH  24  25
HETATM   25  C   UNL     1       1.858  11.392  24.455  0.00  0.00    -0.052 A 
HETATM   26  C   UNL     1       0.482  11.206  24.253  0.00  0.00     0.014 A 
HETATM   27  C   UNL     1      -0.294  12.188  23.624  0.00  0.00    -0.061 A 
HETATM   28  C   UNL     1      -1.733  11.925  23.297  0.00  0.00     0.048 C 
HETATM   29  C   UNL     1       0.309  13.387  23.230  0.00  0.00     0.007 A 
HETATM   30  C   UNL     1       1.664  13.607  23.471  0.00  0.00     0.001 A 
HETATM   31  C   UNL     1       2.433  12.617  24.081  0.00  0.00     0.007 A 
ENDBRANCH  24  25
ENDBRANCH   1  24
TORSDOF 5
ENDMDL
