MODEL 1
REMARK VINA RESULT:    -8.170      0.000      0.000
REMARK INTER + INTRA:         -14.755
REMARK INTER:                 -10.824
REMARK INTRA:                  -3.931
REMARK UNBOUND:                -3.720
REMARK  7 active torsions:
REMARK  status: ('A' for Active; 'I' for Inactive)
REMARK    1  A    between atoms: C_7  and  N_8 
REMARK    2  A    between atoms: C_14  and  C_15 
REMARK    3  A    between atoms: C_16  and  O_17 
REMARK    4  A    between atoms: C_19  and  O_20 
REMARK    5  A    between atoms: C_22  and  C_23 
REMARK       I    between atoms: C_23  and  N_25 
REMARK    6  A    between atoms: N_25  and  C_27 
REMARK    7  A    between atoms: C_27  and  C_28 
ROOT
HETATM    1  C   UNL     1       9.619  11.712  22.549  0.00  0.00     0.046 A 
HETATM    2  C   UNL     1      10.140  12.801  21.809  0.00  0.00     0.082 A 
HETATM    3  C   UNL     1       9.620  13.162  20.573  0.00  0.00     0.075 A 
HETATM    4  C   UNL     1       8.539  12.462  20.054  0.00  0.00     0.084 A 
HETATM    5  C   UNL     1       8.553  10.971  21.983  0.00  0.00     0.038 A 
HETATM    6  C   UNL     1       7.967  11.375  20.752  0.00  0.00     0.066 A 
ENDROOT
BRANCH   1   7
HETATM    7  C   UNL     1      10.194  11.513  23.919  0.00  0.00     0.172 A 
HETATM    8  N   UNL     1       9.685  11.902  25.144  0.00  0.00    -0.244 N 
HETATM    9  C   UNL     1      10.627  11.491  26.083  0.00  0.00     0.349 A 
HETATM   10  O   UNL     1      10.681  11.692  27.283  0.00  0.00    -0.245 OA
HETATM   11  N   UNL     1      11.621  10.855  25.361  0.00  0.00    -0.226 N 
HETATM   12  H   UNL     1      12.519  10.583  25.742  0.00  0.00     0.194 HD
HETATM   13  N   UNL     1      11.348  10.890  24.035  0.00  0.00    -0.151 NA
BRANCH   8  14
HETATM   14  C   UNL     1       8.619  12.750  25.501  0.00  0.00     0.051 C 
HETATM   15  C   UNL     1       7.340  12.265  25.821  0.00  0.00    -0.035 C 
HETATM   16  C   UNL     1       6.851  10.919  25.351  0.00  0.00     0.050 C 
HETATM   17  C   UNL     1       6.396  13.138  26.384  0.00  0.00     0.009 C 
HETATM   18  C   UNL     1       6.606  14.514  26.359  0.00  0.00     0.001 C 
HETATM   19  C   UNL     1       7.783  15.020  25.823  0.00  0.00     0.002 C 
HETATM   20  C   UNL     1       8.802  14.143  25.446  0.00  0.00     0.031 C 
ENDBRANCH   8  14
ENDBRANCH   1   7
BRANCH   2  21
HETATM   21  O   UNL     1      11.152  13.621  22.244  0.00  0.00    -0.360 OA
HETATM   22  H   UNL     1      10.782  14.254  22.898  0.00  0.00     0.217 HD
ENDBRANCH   2  21
BRANCH   6  23
HETATM   23  C   UNL     1       6.557  11.001  20.392  0.00  0.00     0.256 C 
HETATM   24  O   UNL     1       6.422  10.509  19.265  0.00  0.00    -0.267 OA
HETATM   25  N   UNL     1       5.428  11.259  21.181  0.00  0.00    -0.348 N 
HETATM   26  C   UNL     1       4.128  10.992  20.563  0.00  0.00     0.153 C 
BRANCH  25  27
HETATM   27  C   UNL     1       5.395  11.700  22.577  0.00  0.00     0.164 C 
BRANCH  27  28
HETATM   28  C   UNL     1       5.191  13.192  22.797  0.00  0.00    -0.040 A 
HETATM   29  C   UNL     1       4.001  13.710  23.329  0.00  0.00     0.009 A 
HETATM   30  C   UNL     1       3.879  15.074  23.620  0.00  0.00     0.001 A 
HETATM   31  C   UNL     1       4.947  15.940  23.395  0.00  0.00     0.000 A 
HETATM   32  C   UNL     1       6.134  15.447  22.859  0.00  0.00     0.001 A 
HETATM   33  C   UNL     1       6.254  14.085  22.560  0.00  0.00     0.009 A 
ENDBRANCH  27  28
ENDBRANCH  25  27
ENDBRANCH   6  23
BRANCH   4  34
HETATM   34  O   UNL     1       8.038  12.890  18.854  0.00  0.00    -0.360 OA
HETATM   35  H   UNL     1       7.676  12.138  18.361  0.00  0.00     0.217 HD
ENDBRANCH   4  34
TORSDOF 7
ENDMDL
MODEL 2
REMARK VINA RESULT:    -8.070      2.516      5.371
REMARK INTER + INTRA:         -14.620
REMARK INTER:                 -10.850
REMARK INTRA:                  -3.770
REMARK UNBOUND:                -3.720
REMARK  7 active torsions:
REMARK  status: ('A' for Active; 'I' for Inactive)
REMARK    1  A    between atoms: C_7  and  N_8 
REMARK    2  A    between atoms: C_14  and  C_15 
REMARK    3  A    between atoms: C_16  and  O_17 
REMARK    4  A    between atoms: C_19  and  O_20 
REMARK    5  A    between atoms: C_22  and  C_23 
REMARK       I    between atoms: C_23  and  N_25 
REMARK    6  A    between atoms: N_25  and  C_27 
REMARK    7  A    between atoms: C_27  and  C_28 
ROOT
HETATM    1  C   UNL     1       7.265  12.636  21.425  0.00  0.00     0.046 A 
HETATM    2  C   UNL     1       8.159  11.614  21.025  0.00  0.00     0.082 A 
HETATM    3  C   UNL     1       9.463  11.893  20.636  0.00  0.00     0.075 A 
HETATM    4  C   UNL     1       9.922  13.203  20.667  0.00  0.00     0.084 A 
HETATM    5  C   UNL     1       7.727  13.974  21.397  0.00  0.00     0.038 A 
HETATM    6  C   UNL     1       9.081  14.264  21.069  0.00  0.00     0.066 A 
ENDROOT
BRANCH   1   7
HETATM    7  C   UNL     1       5.932  12.180  21.936  0.00  0.00     0.172 A 
HETATM    8  N   UNL     1       5.295  12.501  23.120  0.00  0.00    -0.244 N 
HETATM    9  C   UNL     1       4.099  11.787  23.102  0.00  0.00     0.349 A 
HETATM   10  O   UNL     1       3.247  11.660  23.963  0.00  0.00    -0.245 OA
HETATM   11  N   UNL     1       4.085  11.113  21.895  0.00  0.00    -0.226 N 
HETATM   12  H   UNL     1       3.422  10.387  21.653  0.00  0.00     0.194 HD
HETATM   13  N   UNL     1       5.222  11.353  21.198  0.00  0.00    -0.151 NA
BRANCH   8  14
HETATM   14  C   UNL     1       5.734  13.161  24.284  0.00  0.00     0.051 C 
HETATM   15  C   UNL     1       5.466  14.517  24.532  0.00  0.00    -0.035 C 
HETATM   16  C   UNL     1       5.148  15.489  23.424  0.00  0.00     0.050 C 
HETATM   17  C   UNL     1       5.734  15.049  25.803  0.00  0.00     0.009 C 
HETATM   18  C   UNL     1       6.517  14.340  26.712  0.00  0.00     0.001 C 
HETATM   19  C   UNL     1       6.987  13.078  26.377  0.00  0.00     0.002 C 
HETATM   20  C   UNL     1       6.556  12.473  25.195  0.00  0.00     0.031 C 
ENDBRANCH   8  14
ENDBRANCH   1   7
BRANCH   2  21
HETATM   21  O   UNL     1       7.857  10.274  21.027  0.00  0.00    -0.360 OA
HETATM   22  H   UNL     1       8.697   9.764  20.995  0.00  0.00     0.217 HD
ENDBRANCH   2  21
BRANCH   6  23
HETATM   23  C   UNL     1       9.751  15.524  21.538  0.00  0.00     0.256 C 
HETATM   24  O   UNL     1      10.298  16.184  20.645  0.00  0.00    -0.267 OA
HETATM   25  N   UNL     1       9.873  15.923  22.875  0.00  0.00    -0.348 N 
HETATM   26  C   UNL     1      10.732  17.081  23.133  0.00  0.00     0.153 C 
BRANCH  25  27
HETATM   27  C   UNL     1       9.190  15.360  24.042  0.00  0.00     0.164 C 
BRANCH  27  28
HETATM   28  C   UNL     1       9.976  14.329  24.838  0.00  0.00    -0.040 A 
HETATM   29  C   UNL     1      10.496  14.610  26.110  0.00  0.00     0.009 A 
HETATM   30  C   UNL     1      11.123  13.611  26.865  0.00  0.00     0.001 A 
HETATM   31  C   UNL     1      11.230  12.314  26.367  0.00  0.00     0.000 A 
HETATM   32  C   UNL     1      10.728  12.018  25.103  0.00  0.00     0.001 A 
HETATM   33  C   UNL     1      10.109  13.017  24.344  0.00  0.00     0.009 A 
ENDBRANCH  27  28
ENDBRANCH  25  27
ENDBRANCH   6  23
BRANCH   4  34
HETATM   34  O   UNL     1      11.228  13.413  20.316  0.00  0.00    -0.360 OA
HETATM   35  H   UNL     1      11.426  12.951  19.488  0.00  0.00     0.217 HD
ENDBRANCH   4  34
TORSDOF 7
ENDMDL
MODEL 3
REMARK VINA RESULT:    -7.955      2.059      2.993
REMARK INTER + INTRA:         -14.466
REMARK INTER:                 -10.887
REMARK INTRA:                  -3.578
REMARK UNBOUND:                -3.720
REMARK  7 active torsions:
REMARK  status: ('A' for Active; 'I' for Inactive)
REMARK    1  A    between atoms: C_7  and  N_8 
REMARK    2  A    between atoms: C_14  and  C_15 
REMARK    3  A    between atoms: C_16  and  O_17 
REMARK    4  A    between atoms: C_19  and  O_20 
REMARK    5  A    between atoms: C_22  and  C_23 
REMARK       I    between atoms: C_23  and  N_25 
REMARK    6  A    between atoms: N_25  and  C_27 
REMARK    7  A    between atoms: C_27  and  C_28 
ROOT
HETATM    1  C   UNL     1       8.430  12.453  22.309  0.00  0.00     0.046 A 
HETATM    2  C   UNL     1       8.366  12.873  20.958  0.00  0.00     0.082 A 
HETATM    3  C   UNL     1       7.701  12.130  19.990  0.00  0.00     0.075 A 
HETATM    4  C   UNL     1       7.053  10.957  20.353  0.00  0.00     0.084 A 
HETATM    5  C   UNL     1       7.814  11.226  22.654  0.00  0.00     0.038 A 
HETATM    6  C   UNL     1       7.071  10.493  21.687  0.00  0.00     0.066 A 
ENDROOT
BRANCH   1   7
HETATM    7  C   UNL     1       9.071  13.411  23.266  0.00  0.00     0.172 A 
HETATM    8  N   UNL     1       8.476  14.310  24.131  0.00  0.00    -0.244 N 
HETATM    9  C   UNL     1       9.528  14.965  24.765  0.00  0.00     0.349 A 
HETATM   10  O   UNL     1       9.516  15.908  25.536  0.00  0.00    -0.245 OA
HETATM   11  N   UNL     1      10.682  14.392  24.262  0.00  0.00    -0.226 N 
HETATM   12  H   UNL     1      11.614  14.759  24.411  0.00  0.00     0.194 HD
HETATM   13  N   UNL     1      10.385  13.452  23.333  0.00  0.00    -0.151 NA
BRANCH   8  14
HETATM   14  C   UNL     1       7.148  14.762  24.263  0.00  0.00     0.051 C 
HETATM   15  C   UNL     1       6.403  14.589  25.440  0.00  0.00    -0.035 C 
HETATM   16  C   UNL     1       6.732  13.519  26.450  0.00  0.00     0.050 C 
HETATM   17  C   UNL     1       5.177  15.258  25.581  0.00  0.00     0.009 C 
HETATM   18  C   UNL     1       4.564  15.844  24.476  0.00  0.00     0.001 C 
HETATM   19  C   UNL     1       5.197  15.812  23.241  0.00  0.00     0.002 C 
HETATM   20  C   UNL     1       6.500  15.322  23.147  0.00  0.00     0.031 C 
ENDBRANCH   8  14
ENDBRANCH   1   7
BRANCH   2  21
HETATM   21  O   UNL     1       8.894  14.050  20.485  0.00  0.00    -0.360 OA
HETATM   22  H   UNL     1       8.156  14.627  20.190  0.00  0.00     0.217 HD
ENDBRANCH   2  21
BRANCH   6  23
HETATM   23  C   UNL     1       5.985   9.536  22.090  0.00  0.00     0.256 C 
HETATM   24  O   UNL     1       5.874   8.541  21.362  0.00  0.00    -0.267 OA
HETATM   25  N   UNL     1       5.071   9.744  23.130  0.00  0.00    -0.348 N 
HETATM   26  C   UNL     1       3.971   8.784  23.233  0.00  0.00     0.153 C 
BRANCH  25  27
HETATM   27  C   UNL     1       5.122  10.772  24.172  0.00  0.00     0.164 C 
BRANCH  27  28
HETATM   28  C   UNL     1       4.009  11.810  24.137  0.00  0.00    -0.040 A 
HETATM   29  C   UNL     1       3.546  12.365  22.935  0.00  0.00     0.009 A 
HETATM   30  C   UNL     1       2.451  13.236  22.922  0.00  0.00     0.001 A 
HETATM   31  C   UNL     1       1.794  13.559  24.107  0.00  0.00     0.000 A 
HETATM   32  C   UNL     1       2.244  13.026  25.312  0.00  0.00     0.001 A 
HETATM   33  C   UNL     1       3.343  12.161  25.327  0.00  0.00     0.009 A 
ENDBRANCH  27  28
ENDBRANCH  25  27
ENDBRANCH   6  23
BRANCH   4  34
HETATM   34  O   UNL     1       6.377  10.289  19.368  0.00  0.00    -0.360 OA
HETATM   35  H   UNL     1       6.595  10.669  18.504  0.00  0.00     0.217 HD
ENDBRANCH   4  34
TORSDOF 7
ENDMDL
MODEL 4
REMARK VINA RESULT:    -7.919      2.484      3.774
REMARK INTER + INTRA:         -14.416
REMARK INTER:                 -10.479
REMARK INTRA:                  -3.937
REMARK UNBOUND:                -3.720
REMARK  7 active torsions:
REMARK  status: ('A' for Active; 'I' for Inactive)
REMARK    1  A    between atoms: C_7  and  N_8 
REMARK    2  A    between atoms: C_14  and  C_15 
REMARK    3  A    between atoms: C_16  and  O_17 
REMARK    4  A    between atoms: C_19  and  O_20 
REMARK    5  A    between atoms: C_22  and  C_23 
REMARK       I    between atoms: C_23  and  N_25 
REMARK    6  A    between atoms: N_25  and  C_27 
REMARK    7  A    between atoms: C_27  and  C_28 
ROOT
HETATM    1  C   UNL     1       7.461  11.873  22.962  0.00  0.00     0.046 A 
HETATM    2  C   UNL     1       7.193  11.914  21.572  0.00  0.00     0.082 A 
HETATM    3  C   UNL     1       6.319  11.019  20.968  0.00  0.00     0.075 A 
HETATM    4  C   UNL     1       5.663  10.073  21.744  0.00  0.00     0.084 A 
HETATM    5  C   UNL     1       6.829  10.868  23.733  0.00  0.00     0.038 A 
HETATM    6  C   UNL     1       5.880   9.991  23.138  0.00  0.00     0.066 A 
ENDROOT
BRANCH   1   7
HETATM    7  C   UNL     1       8.325  12.974  23.498  0.00  0.00     0.172 A 
HETATM    8  N   UNL     1       7.958  14.118  24.181  0.00  0.00    -0.244 N 
HETATM    9  C   UNL     1       9.145  14.805  24.420  0.00  0.00     0.349 A 
HETATM   10  O   UNL     1       9.332  15.909  24.899  0.00  0.00    -0.245 OA
HETATM   11  N   UNL     1      10.147  14.010  23.893  0.00  0.00    -0.226 N 
HETATM   12  H   UNL     1      11.108  14.308  23.771  0.00  0.00     0.194 HD
HETATM   13  N   UNL     1       9.627  12.899  23.318  0.00  0.00    -0.151 NA
BRANCH   8  14
HETATM   14  C   UNL     1       6.706  14.719  24.419  0.00  0.00     0.051 C 
HETATM   15  C   UNL     1       6.093  14.717  25.682  0.00  0.00    -0.035 C 
HETATM   16  C   UNL     1       6.433  13.696  26.738  0.00  0.00     0.050 C 
HETATM   17  C   UNL     1       4.964  15.523  25.899  0.00  0.00     0.009 C 
HETATM   18  C   UNL     1       4.284  16.087  24.822  0.00  0.00     0.001 C 
HETATM   19  C   UNL     1       4.760  15.895  23.532  0.00  0.00     0.002 C 
HETATM   20  C   UNL     1       5.988  15.261  23.337  0.00  0.00     0.031 C 
ENDBRANCH   8  14
ENDBRANCH   1   7
BRANCH   2  21
HETATM   21  O   UNL     1       7.713  12.848  20.709  0.00  0.00    -0.360 OA
HETATM   22  H   UNL     1       8.179  12.376  19.983  0.00  0.00     0.217 HD
ENDBRANCH   2  21
BRANCH   6  23
HETATM   23  C   UNL     1       4.816   9.314  23.954  0.00  0.00     0.256 C 
HETATM   24  O   UNL     1       4.638   8.119  23.685  0.00  0.00    -0.267 OA
HETATM   25  N   UNL     1       3.985   9.950  24.884  0.00  0.00    -0.348 N 
HETATM   26  C   UNL     1       2.884   9.153  25.427  0.00  0.00     0.153 C 
BRANCH  25  27
HETATM   27  C   UNL     1       4.126  11.302  25.431  0.00  0.00     0.164 C 
BRANCH  27  28
HETATM   28  C   UNL     1       3.157  12.342  24.890  0.00  0.00    -0.040 A 
HETATM   29  C   UNL     1       2.941  12.515  23.515  0.00  0.00     0.009 A 
HETATM   30  C   UNL     1       1.967  13.405  23.048  0.00  0.00     0.001 A 
HETATM   31  C   UNL     1       1.185  14.128  23.946  0.00  0.00     0.000 A 
HETATM   32  C   UNL     1       1.390  13.978  25.315  0.00  0.00     0.001 A 
HETATM   33  C   UNL     1       2.369  13.094  25.783  0.00  0.00     0.009 A 
ENDBRANCH  27  28
ENDBRANCH  25  27
ENDBRANCH   6  23
BRANCH   4  34
HETATM   34  O   UNL     1       4.780   9.246  21.103  0.00  0.00    -0.360 OA
HETATM   35  H   UNL     1       4.489   9.654  20.274  0.00  0.00     0.217 HD
ENDBRANCH   4  34
TORSDOF 7
ENDMDL
MODEL 5
REMARK VINA RESULT:    -7.903      2.145      5.322
REMARK INTER + INTRA:         -14.395
REMARK INTER:                 -10.868
REMARK INTRA:                  -3.528
REMARK UNBOUND:                -3.720
REMARK  7 active torsions:
REMARK  status: ('A' for Active; 'I' for Inactive)
REMARK    1  A    between atoms: C_7  and  N_8 
REMARK    2  A    between atoms: C_14  and  C_15 
REMARK    3  A    between atoms: C_16  and  O_17 
REMARK    4  A    between atoms: C_19  and  O_20 
REMARK    5  A    between atoms: C_22  and  C_23 
REMARK       I    between atoms: C_23  and  N_25 
REMARK    6  A    between atoms: N_25  and  C_27 
REMARK    7  A    between atoms: C_27  and  C_28 
ROOT
HETATM    1  C   UNL     1       8.149  11.013  22.758  0.00  0.00     0.046 A 
HETATM    2  C   UNL     1       8.612   9.838  23.398  0.00  0.00     0.082 A 
HETATM    3  C   UNL     1       9.484   9.887  24.478  0.00  0.00     0.075 A 
HETATM    4  C   UNL     1       9.894  11.118  24.971  0.00  0.00     0.084 A 
HETATM    5  C   UNL     1       8.620  12.260  23.235  0.00  0.00     0.038 A 
HETATM    6  C   UNL     1       9.456  12.325  24.384  0.00  0.00     0.066 A 
ENDROOT
BRANCH   1   7
HETATM    7  C   UNL     1       7.118  10.817  21.688  0.00  0.00     0.172 A 
HETATM    8  N   UNL     1       5.755  11.038  21.738  0.00  0.00    -0.244 N 
HETATM    9  C   UNL     1       5.274  10.672  20.484  0.00  0.00     0.349 A 
HETATM   10  O   UNL     1       4.130  10.592  20.073  0.00  0.00    -0.245 OA
HETATM   11  N   UNL     1       6.385  10.287  19.756  0.00  0.00    -0.226 N 
HETATM   12  H   UNL     1       6.347   9.819  18.859  0.00  0.00     0.194 HD
HETATM   13  N   UNL     1       7.506  10.367  20.513  0.00  0.00    -0.151 NA
BRANCH   8  14
HETATM   14  C   UNL     1       4.878  11.311  22.806  0.00  0.00     0.051 C 
HETATM   15  C   UNL     1       4.716  10.439  23.894  0.00  0.00    -0.035 C 
HETATM   16  C   UNL     1       5.046   8.971  23.804  0.00  0.00     0.050 C 
HETATM   17  C   UNL     1       4.004  10.875  25.024  0.00  0.00     0.009 C 
HETATM   18  C   UNL     1       3.224  12.027  24.963  0.00  0.00     0.001 C 
HETATM   19  C   UNL     1       3.196  12.778  23.795  0.00  0.00     0.002 C 
HETATM   20  C   UNL     1       4.055  12.451  22.744  0.00  0.00     0.031 C 
ENDBRANCH   8  14
ENDBRANCH   1   7
BRANCH   2  21
HETATM   21  O   UNL     1       8.221   8.565  23.060  0.00  0.00    -0.360 OA
HETATM   22  H   UNL     1       9.025   8.022  22.905  0.00  0.00     0.217 HD
ENDBRANCH   2  21
BRANCH   6  23
HETATM   23  C   UNL     1       9.530  13.563  25.233  0.00  0.00     0.256 C 
HETATM   24  O   UNL     1      10.646  14.096  25.275  0.00  0.00    -0.267 OA
HETATM   25  N   UNL     1       8.487  14.063  26.022  0.00  0.00    -0.348 N 
HETATM   26  C   UNL     1       8.824  15.165  26.925  0.00  0.00     0.153 C 
BRANCH  25  27
HETATM   27  C   UNL     1       7.079  13.660  26.002  0.00  0.00     0.164 C 
BRANCH  27  28
HETATM   28  C   UNL     1       6.117  14.640  25.347  0.00  0.00    -0.040 A 
HETATM   29  C   UNL     1       6.240  15.018  24.002  0.00  0.00     0.009 A 
HETATM   30  C   UNL     1       5.280  15.837  23.396  0.00  0.00     0.001 A 
HETATM   31  C   UNL     1       4.176  16.283  24.121  0.00  0.00     0.000 A 
HETATM   32  C   UNL     1       4.040  15.926  25.459  0.00  0.00     0.001 A 
HETATM   33  C   UNL     1       5.004  15.114  26.068  0.00  0.00     0.009 A 
ENDBRANCH  27  28
ENDBRANCH  25  27
ENDBRANCH   6  23
BRANCH   4  34
HETATM   34  O   UNL     1      10.717  11.107  26.065  0.00  0.00    -0.360 OA
HETATM   35  H   UNL     1      10.535  11.879  26.622  0.00  0.00     0.217 HD
ENDBRANCH   4  34
TORSDOF 7
ENDMDL
MODEL 6
REMARK VINA RESULT:    -7.792      5.588      8.564
REMARK INTER + INTRA:         -14.245
REMARK INTER:                 -11.658
REMARK INTRA:                  -2.587
REMARK UNBOUND:                -3.720
REMARK  7 active torsions:
REMARK  status: ('A' for Active; 'I' for Inactive)
REMARK    1  A    between atoms: C_7  and  N_8 
REMARK    2  A    between atoms: C_14  and  C_15 
REMARK    3  A    between atoms: C_16  and  O_17 
REMARK    4  A    between atoms: C_19  and  O_20 
REMARK    5  A    between atoms: C_22  and  C_23 
REMARK       I    between atoms: C_23  and  N_25 
REMARK    6  A    between atoms: N_25  and  C_27 
REMARK    7  A    between atoms: C_27  and  C_28 
ROOT
HETATM    1  C   UNL     1       0.884   9.140  24.824  0.00  0.00     0.046 A 
HETATM    2  C   UNL     1       0.720   7.852  24.260  0.00  0.00     0.082 A 
HETATM    3  C   UNL     1       1.731   7.235  23.535  0.00  0.00     0.075 A 
HETATM    4  C   UNL     1       2.951   7.879  23.377  0.00  0.00     0.084 A 
HETATM    5  C   UNL     1       2.113   9.810  24.608  0.00  0.00     0.038 A 
HETATM    6  C   UNL     1       3.179   9.160  23.927  0.00  0.00     0.066 A 
ENDROOT
BRANCH   1   7
HETATM    7  C   UNL     1      -0.241   9.630  25.684  0.00  0.00     0.172 A 
HETATM    8  N   UNL     1      -1.203  10.583  25.405  0.00  0.00    -0.244 N 
HETATM    9  C   UNL     1      -1.984  10.669  26.554  0.00  0.00     0.349 A 
HETATM   10  O   UNL     1      -2.889  11.435  26.833  0.00  0.00    -0.245 OA
HETATM   11  N   UNL     1      -1.458   9.740  27.433  0.00  0.00    -0.226 N 
HETATM   12  H   UNL     1      -1.710   9.672  28.411  0.00  0.00     0.194 HD
HETATM   13  N   UNL     1      -0.381   9.122  26.890  0.00  0.00    -0.151 NA
BRANCH   8  14
HETATM   14  C   UNL     1      -1.334  11.519  24.360  0.00  0.00     0.051 C 
HETATM   15  C   UNL     1      -0.505  12.646  24.244  0.00  0.00    -0.035 C 
HETATM   16  C   UNL     1       0.230  13.227  25.425  0.00  0.00     0.050 C 
HETATM   17  C   UNL     1      -0.541  13.407  23.065  0.00  0.00     0.009 C 
HETATM   18  C   UNL     1      -1.574  13.235  22.148  0.00  0.00     0.001 C 
HETATM   19  C   UNL     1      -2.542  12.267  22.376  0.00  0.00     0.002 C 
HETATM   20  C   UNL     1      -2.394  11.382  23.445  0.00  0.00     0.031 C 
ENDBRANCH   8  14
ENDBRANCH   1   7
BRANCH   2  21
HETATM   21  O   UNL     1      -0.405   7.077  24.410  0.00  0.00    -0.360 OA
HETATM   22  H   UNL     1      -0.301   6.528  25.218  0.00  0.00     0.217 HD
ENDBRANCH   2  21
BRANCH   6  23
HETATM   23  C   UNL     1       4.611   9.564  24.141  0.00  0.00     0.256 C 
HETATM   24  O   UNL     1       5.257   8.810  24.880  0.00  0.00    -0.267 OA
HETATM   25  N   UNL     1       5.198  10.740  23.659  0.00  0.00    -0.348 N 
HETATM   26  C   UNL     1       6.547  11.041  24.143  0.00  0.00     0.153 C 
BRANCH  25  27
HETATM   27  C   UNL     1       4.649  11.673  22.673  0.00  0.00     0.164 C 
BRANCH  27  28
HETATM   28  C   UNL     1       4.548  13.125  23.117  0.00  0.00    -0.040 A 
HETATM   29  C   UNL     1       5.606  14.030  22.951  0.00  0.00     0.009 A 
HETATM   30  C   UNL     1       5.449  15.384  23.271  0.00  0.00     0.001 A 
HETATM   31  C   UNL     1       4.230  15.858  23.751  0.00  0.00     0.000 A 
HETATM   32  C   UNL     1       3.170  14.973  23.932  0.00  0.00     0.001 A 
HETATM   33  C   UNL     1       3.328  13.618  23.620  0.00  0.00     0.009 A 
ENDBRANCH  27  28
ENDBRANCH  25  27
ENDBRANCH   6  23
BRANCH   4  34
HETATM   34  O   UNL     1       3.926   7.206  22.691  0.00  0.00    -0.360 OA
HETATM   35  H   UNL     1       3.915   6.269  22.938  0.00  0.00     0.217 HD
ENDBRANCH   4  34
TORSDOF 7
ENDMDL
MODEL 7
REMARK VINA RESULT:    -7.713      2.070      2.912
REMARK INTER + INTRA:         -14.138
REMARK INTER:                 -10.426
REMARK INTRA:                  -3.712
REMARK UNBOUND:                -3.720
REMARK  7 active torsions:
REMARK  status: ('A' for Active; 'I' for Inactive)
REMARK    1  A    between atoms: C_7  and  N_8 
REMARK    2  A    between atoms: C_14  and  C_15 
REMARK    3  A    between atoms: C_16  and  O_17 
REMARK    4  A    between atoms: C_19  and  O_20 
REMARK    5  A    between atoms: C_22  and  C_23 
REMARK       I    between atoms: C_23  and  N_25 
REMARK    6  A    between atoms: N_25  and  C_27 
REMARK    7  A    between atoms: C_27  and  C_28 
ROOT
HETATM    1  C   UNL     1       9.935  12.213  24.219  0.00  0.00     0.046 A 
HETATM    2  C   UNL     1      10.774  12.500  23.115  0.00  0.00     0.082 A 
HETATM    3  C   UNL     1      10.774  11.713  21.971  0.00  0.00     0.075 A 
HETATM    4  C   UNL     1       9.910  10.630  21.885  0.00  0.00     0.084 A 
HETATM    5  C   UNL     1       9.100  11.073  24.141  0.00  0.00     0.038 A 
HETATM    6  C   UNL     1       9.041  10.301  22.948  0.00  0.00     0.066 A 
ENDROOT
BRANCH   1   7
HETATM    7  C   UNL     1       9.949  13.215  25.333  0.00  0.00     0.172 A 
HETATM    8  N   UNL     1       8.977  14.129  25.697  0.00  0.00    -0.244 N 
HETATM    9  C   UNL     1       9.511  14.826  26.778  0.00  0.00     0.349 A 
HETATM   10  O   UNL     1       9.080  15.793  27.380  0.00  0.00    -0.245 OA
HETATM   11  N   UNL     1      10.752  14.261  27.010  0.00  0.00    -0.226 N 
HETATM   12  H   UNL     1      11.450  14.651  27.631  0.00  0.00     0.194 HD
HETATM   13  N   UNL     1      11.011  13.285  26.107  0.00  0.00    -0.151 NA
BRANCH   8  14
HETATM   14  C   UNL     1       7.795  14.557  25.064  0.00  0.00     0.051 C 
HETATM   15  C   UNL     1       6.548  14.563  25.711  0.00  0.00    -0.035 C 
HETATM   16  C   UNL     1       6.258  13.688  26.903  0.00  0.00     0.050 C 
HETATM   17  C   UNL     1       5.461  15.211  25.102  0.00  0.00     0.009 C 
HETATM   18  C   UNL     1       5.525  15.584  23.762  0.00  0.00     0.001 C 
HETATM   19  C   UNL     1       6.692  15.365  23.042  0.00  0.00     0.002 C 
HETATM   20  C   UNL     1       7.832  14.903  23.700  0.00  0.00     0.031 C 
ENDBRANCH   8  14
ENDBRANCH   1   7
BRANCH   2  21
HETATM   21  O   UNL     1      11.614  13.585  23.040  0.00  0.00    -0.360 OA
HETATM   22  H   UNL     1      11.614  14.040  23.911  0.00  0.00     0.217 HD
ENDBRANCH   2  21
BRANCH   6  23
HETATM   23  C   UNL     1       7.838   9.466  22.611  0.00  0.00     0.256 C 
HETATM   24  O   UNL     1       7.997   8.247  22.750  0.00  0.00    -0.267 OA
HETATM   25  N   UNL     1       6.639   9.957  22.077  0.00  0.00    -0.348 N 
HETATM   26  C   UNL     1       5.665   8.957  21.636  0.00  0.00     0.153 C 
BRANCH  25  27
HETATM   27  C   UNL     1       6.215  11.354  21.970  0.00  0.00     0.164 C 
BRANCH  27  28
HETATM   28  C   UNL     1       5.116  11.791  22.927  0.00  0.00    -0.040 A 
HETATM   29  C   UNL     1       4.011  12.541  22.500  0.00  0.00     0.009 A 
HETATM   30  C   UNL     1       2.962  12.839  23.378  0.00  0.00     0.001 A 
HETATM   31  C   UNL     1       2.995  12.381  24.694  0.00  0.00     0.000 A 
HETATM   32  C   UNL     1       4.087  11.642  25.140  0.00  0.00     0.001 A 
HETATM   33  C   UNL     1       5.140  11.352  24.265  0.00  0.00     0.009 A 
ENDBRANCH  27  28
ENDBRANCH  25  27
ENDBRANCH   6  23
BRANCH   4  34
HETATM   34  O   UNL     1       9.921   9.916  20.717  0.00  0.00    -0.360 OA
HETATM   35  H   UNL     1      10.701   9.341  20.690  0.00  0.00     0.217 HD
ENDBRANCH   4  34
TORSDOF 7
ENDMDL
MODEL 8
REMARK VINA RESULT:    -7.670      2.941      5.686
REMARK INTER + INTRA:         -14.081
REMARK INTER:                  -9.944
REMARK INTRA:                  -4.137
REMARK UNBOUND:                -3.720
REMARK  7 active torsions:
REMARK  status: ('A' for Active; 'I' for Inactive)
REMARK    1  A    between atoms: C_7  and  N_8 
REMARK    2  A    between atoms: C_14  and  C_15 
REMARK    3  A    between atoms: C_16  and  O_17 
REMARK    4  A    between atoms: C_19  and  O_20 
REMARK    5  A    between atoms: C_22  and  C_23 
REMARK       I    between atoms: C_23  and  N_25 
REMARK    6  A    between atoms: N_25  and  C_27 
REMARK    7  A    between atoms: C_27  and  C_28 
ROOT
HETATM    1  C   UNL     1       3.760  11.401  23.131  0.00  0.00     0.046 A 
HETATM    2  C   UNL     1       3.776  10.061  23.588  0.00  0.00     0.082 A 
HETATM    3  C   UNL     1       4.496   9.072  22.930  0.00  0.00     0.075 A 
HETATM    4  C   UNL     1       5.249   9.402  21.811  0.00  0.00     0.084 A 
HETATM    5  C   UNL     1       4.486  11.713  21.956  0.00  0.00     0.038 A 
HETATM    6  C   UNL     1       5.283  10.724  21.315  0.00  0.00     0.066 A 
ENDROOT
BRANCH   1   7
HETATM    7  C   UNL     1       3.044  12.385  24.005  0.00  0.00     0.172 A 
HETATM    8  N   UNL     1       3.568  13.350  24.845  0.00  0.00    -0.244 N 
HETATM    9  C   UNL     1       2.467  13.965  25.434  0.00  0.00     0.349 A 
HETATM   10  O   UNL     1       2.414  14.803  26.317  0.00  0.00    -0.245 OA
HETATM   11  N   UNL     1       1.357  13.350  24.884  0.00  0.00    -0.226 N 
HETATM   12  H   UNL     1       0.410  13.468  25.225  0.00  0.00     0.194 HD
HETATM   13  N   UNL     1       1.727  12.374  24.021  0.00  0.00    -0.151 NA
BRANCH   8  14
HETATM   14  C   UNL     1       4.876  13.597  25.304  0.00  0.00     0.051 C 
HETATM   15  C   UNL     1       5.657  14.663  24.830  0.00  0.00    -0.035 C 
HETATM   16  C   UNL     1       5.402  15.314  23.494  0.00  0.00     0.050 C 
HETATM   17  C   UNL     1       6.854  14.985  25.490  0.00  0.00     0.009 C 
HETATM   18  C   UNL     1       7.413  14.097  26.406  0.00  0.00     0.001 C 
HETATM   19  C   UNL     1       6.752  12.914  26.708  0.00  0.00     0.002 C 
HETATM   20  C   UNL     1       5.471  12.691  26.201  0.00  0.00     0.031 C 
ENDBRANCH   8  14
ENDBRANCH   1   7
BRANCH   2  21
HETATM   21  O   UNL     1       3.141   9.620  24.724  0.00  0.00    -0.360 OA
HETATM   22  H   UNL     1       3.525  10.089  25.497  0.00  0.00     0.217 HD
ENDBRANCH   2  21
BRANCH   6  23
HETATM   23  C   UNL     1       6.453  11.096  20.450  0.00  0.00     0.256 C 
HETATM   24  O   UNL     1       6.476  10.543  19.343  0.00  0.00    -0.267 OA
HETATM   25  N   UNL     1       7.519  11.915  20.842  0.00  0.00    -0.348 N 
HETATM   26  C   UNL     1       8.654  11.995  19.921  0.00  0.00     0.153 C 
BRANCH  25  27
HETATM   27  C   UNL     1       7.606  12.757  22.038  0.00  0.00     0.164 C 
BRANCH  27  28
HETATM   28  C   UNL     1       8.304  12.136  23.239  0.00  0.00    -0.040 A 
HETATM   29  C   UNL     1       7.863  10.938  23.819  0.00  0.00     0.009 A 
HETATM   30  C   UNL     1       8.585  10.333  24.854  0.00  0.00     0.001 A 
HETATM   31  C   UNL     1       9.765  10.910  25.320  0.00  0.00     0.000 A 
HETATM   32  C   UNL     1      10.215  12.104  24.763  0.00  0.00     0.001 A 
HETATM   33  C   UNL     1       9.489  12.713  23.734  0.00  0.00     0.009 A 
ENDBRANCH  27  28
ENDBRANCH  25  27
ENDBRANCH   6  23
BRANCH   4  34
HETATM   34  O   UNL     1       5.974   8.396  21.230  0.00  0.00    -0.360 OA
HETATM   35  H   UNL     1       6.580   8.766  20.571  0.00  0.00     0.217 HD
ENDBRANCH   4  34
TORSDOF 7
ENDMDL
MODEL 9
REMARK VINA RESULT:    -7.595      2.623      3.962
REMARK INTER + INTRA:         -13.979
REMARK INTER:                 -10.259
REMARK INTRA:                  -3.720
REMARK UNBOUND:                -3.720
REMARK  7 active torsions:
REMARK  status: ('A' for Active; 'I' for Inactive)
REMARK    1  A    between atoms: C_7  and  N_8 
REMARK    2  A    between atoms: C_14  and  C_15 
REMARK    3  A    between atoms: C_16  and  O_17 
REMARK    4  A    between atoms: C_19  and  O_20 
REMARK    5  A    between atoms: C_22  and  C_23 
REMARK       I    between atoms: C_23  and  N_25 
REMARK    6  A    between atoms: N_25  and  C_27 
REMARK    7  A    between atoms: C_27  and  C_28 
ROOT
HETATM    1  C   UNL     1       7.043   9.722  24.011  0.00  0.00     0.046 A 
HETATM    2  C   UNL     1       6.993   8.976  22.808  0.00  0.00     0.082 A 
HETATM    3  C   UNL     1       5.798   8.485  22.300  0.00  0.00     0.075 A 
HETATM    4  C   UNL     1       4.609   8.755  22.965  0.00  0.00     0.084 A 
HETATM    5  C   UNL     1       5.831   9.941  24.709  0.00  0.00     0.038 A 
HETATM    6  C   UNL     1       4.593   9.504  24.161  0.00  0.00     0.066 A 
ENDROOT
BRANCH   1   7
HETATM    7  C   UNL     1       8.380  10.293  24.376  0.00  0.00     0.172 A 
HETATM    8  N   UNL     1       8.806  11.607  24.342  0.00  0.00    -0.244 N 
HETATM    9  C   UNL     1      10.135  11.577  24.757  0.00  0.00     0.349 A 
HETATM   10  O   UNL     1      10.966  12.465  24.797  0.00  0.00    -0.245 OA
HETATM   11  N   UNL     1      10.405  10.251  25.042  0.00  0.00    -0.226 N 
HETATM   12  H   UNL     1      11.332   9.882  25.218  0.00  0.00     0.194 HD
HETATM   13  N   UNL     1       9.324   9.475  24.789  0.00  0.00    -0.151 NA
BRANCH   8  14
HETATM   14  C   UNL     1       8.239  12.774  23.792  0.00  0.00     0.051 C 
HETATM   15  C   UNL     1       8.078  13.958  24.530  0.00  0.00    -0.035 C 
HETATM   16  C   UNL     1       8.018  13.964  26.036  0.00  0.00     0.050 C 
HETATM   17  C   UNL     1       7.719  15.140  23.863  0.00  0.00     0.009 C 
HETATM   18  C   UNL     1       7.246  15.093  22.554  0.00  0.00     0.001 C 
HETATM   19  C   UNL     1       7.182  13.876  21.889  0.00  0.00     0.002 C 
HETATM   20  C   UNL     1       7.722  12.735  22.485  0.00  0.00     0.031 C 
ENDBRANCH   8  14
ENDBRANCH   1   7
BRANCH   2  21
HETATM   21  O   UNL     1       8.083   8.709  22.015  0.00  0.00    -0.360 OA
HETATM   22  H   UNL     1       8.888   8.715  22.578  0.00  0.00     0.217 HD
ENDBRANCH   2  21
BRANCH   6  23
HETATM   23  C   UNL     1       3.292  10.155  24.540  0.00  0.00     0.256 C 
HETATM   24  O   UNL     1       2.581   9.487  25.301  0.00  0.00    -0.267 OA
HETATM   25  N   UNL     1       2.818  11.369  24.027  0.00  0.00    -0.348 N 
HETATM   26  C   UNL     1       1.443  11.730  24.375  0.00  0.00     0.153 C 
BRANCH  25  27
HETATM   27  C   UNL     1       3.558  12.355  23.236  0.00  0.00     0.164 C 
BRANCH  27  28
HETATM   28  C   UNL     1       3.940  13.637  23.962  0.00  0.00    -0.040 A 
HETATM   29  C   UNL     1       3.767  14.901  23.381  0.00  0.00     0.009 A 
HETATM   30  C   UNL     1       4.028  16.067  24.110  0.00  0.00     0.001 A 
HETATM   31  C   UNL     1       4.454  15.990  25.435  0.00  0.00     0.000 A 
HETATM   32  C   UNL     1       4.640  14.744  26.027  0.00  0.00     0.001 A 
HETATM   33  C   UNL     1       4.388  13.577  25.296  0.00  0.00     0.009 A 
ENDBRANCH  27  28
ENDBRANCH  25  27
ENDBRANCH   6  23
BRANCH   4  34
HETATM   34  O   UNL     1       3.456   8.285  22.394  0.00  0.00    -0.360 OA
HETATM   35  H   UNL     1       2.952   7.773  23.044  0.00  0.00     0.217 HD
ENDBRANCH   4  34
TORSDOF 7
ENDMDL
