REMARK  7 active torsions:
REMARK  status: ('A' for Active; 'I' for Inactive)
REMARK    1  A    between atoms: C_7  and  N_8 
REMARK    2  A    between atoms: C_14  and  C_15 
REMARK    3  A    between atoms: C_16  and  O_17 
REMARK    4  A    between atoms: C_19  and  O_20 
REMARK    5  A    between atoms: C_22  and  C_23 
REMARK       I    between atoms: C_23  and  N_25 
REMARK    6  A    between atoms: N_25  and  C_27 
REMARK    7  A    between atoms: C_27  and  C_28 
ROOT
HETATM    1  C   UNL     1       0.058  -1.353   0.052  0.00  0.00     0.046 A 
HETATM    2  C   UNL     1      -1.163  -1.601  -0.621  0.00  0.00     0.082 A 
HETATM    3  C   UNL     1      -2.066  -0.583  -0.899  0.00  0.00     0.075 A 
HETATM    4  C   UNL     1      -1.759   0.722  -0.538  0.00  0.00     0.084 A 
HETATM    5  C   UNL     1       0.333  -0.027   0.465  0.00  0.00     0.038 A 
HETATM    6  C   UNL     1      -0.551   1.034   0.124  0.00  0.00     0.066 A 
ENDROOT
BRANCH   1   7
HETATM    7  C   UNL     1       0.990  -2.520   0.175  0.00  0.00     0.172 A 
HETATM    8  N   UNL     1       2.368  -2.529   0.283  0.00  0.00    -0.244 N 
HETATM    9  C   UNL     1       2.726  -3.873   0.343  0.00  0.00     0.349 A 
HETATM   10  O   UNL     1       3.827  -4.394   0.341  0.00  0.00    -0.245 OA
HETATM   11  N   UNL     1       1.537  -4.578   0.300  0.00  0.00    -0.226 N 
HETATM   12  H   UNL     1       1.471  -5.580   0.169  0.00  0.00     0.194 HD
HETATM   13  N   UNL     1       0.483  -3.735   0.182  0.00  0.00    -0.151 NA
BRANCH   8  14
HETATM   14  C   UNL     1       3.338  -1.521   0.118  0.00  0.00     0.051 C 
HETATM   15  C   UNL     1       3.225  -0.513  -0.853  0.00  0.00    -0.035 C 
HETATM   16  C   UNL     1       2.375  -0.678  -2.087  0.00  0.00     0.050 C 
HETATM   17  C   UNL     1       4.104   0.581  -0.813  0.00  0.00     0.009 C 
HETATM   18  C   UNL     1       5.248   0.536  -0.020  0.00  0.00     0.001 C 
HETATM   19  C   UNL     1       5.489  -0.575   0.777  0.00  0.00     0.002 C 
HETATM   20  C   UNL     1       4.517  -1.571   0.884  0.00  0.00     0.031 C 
ENDBRANCH   8  14
ENDBRANCH   1   7
BRANCH   2  21
HETATM   21  O   UNL     1      -1.549  -2.829  -1.101  0.00  0.00    -0.360 OA
HETATM   22  H   UNL     1      -0.932  -3.509  -0.751  0.00  0.00     0.217 HD
ENDBRANCH   2  21
BRANCH   6  23
HETATM   23  C   UNL     1      -0.076   2.457   0.040  0.00  0.00     0.256 C 
HETATM   24  O   UNL     1      -0.246   2.996  -1.061  0.00  0.00    -0.267 OA
HETATM   25  N   UNL     1       0.606   3.141   1.054  0.00  0.00    -0.348 N 
HETATM   26  C   UNL     1       1.154   4.452   0.701  0.00  0.00     0.153 C 
BRANCH  25  27
HETATM   27  C   UNL     1       0.779   2.730   2.449  0.00  0.00     0.164 C 
BRANCH  27  28
HETATM   28  C   UNL     1       0.134   3.631   3.492  0.00  0.00    -0.040 A 
HETATM   29  C   UNL     1      -1.147   4.174   3.317  0.00  0.00     0.009 A 
HETATM   30  C   UNL     1      -1.759   4.912   4.337  0.00  0.00     0.001 A 
HETATM   31  C   UNL     1      -1.106   5.110   5.552  0.00  0.00     0.000 A 
HETATM   32  C   UNL     1       0.170   4.587   5.742  0.00  0.00     0.001 A 
HETATM   33  C   UNL     1       0.786   3.856   4.720  0.00  0.00     0.009 A 
ENDBRANCH  27  28
ENDBRANCH  25  27
ENDBRANCH   6  23
BRANCH   4  34
HETATM   34  O   UNL     1      -2.665   1.691  -0.877  0.00  0.00    -0.360 OA
HETATM   35  H   UNL     1      -3.187   1.401  -1.640  0.00  0.00     0.217 HD
ENDBRANCH   4  34
TORSDOF 7
