MODEL 1
REMARK VINA RESULT:    -8.412      0.000      0.000
REMARK INTER + INTRA:         -12.005
REMARK INTER:                 -11.008
REMARK INTRA:                  -0.997
REMARK UNBOUND:                -0.889
REMARK  6 active torsions:
REMARK  status: ('A' for Active; 'I' for Inactive)
REMARK    1  A    between atoms: N_8  and  C_9 
REMARK    2  A    between atoms: C_14  and  N_15 
REMARK       I    between atoms: N_15  and  C_17 
REMARK    3  A    between atoms: C_17  and  C_19 
REMARK    4  A    between atoms: C_21  and  O_22 
REMARK    5  A    between atoms: C_29  and  C_30 
REMARK    6  A    between atoms: C_30  and  C_31 
ROOT
HETATM    1  C   UNL     1       4.440   6.995  22.797  0.00  0.00     0.066 C 
HETATM    2  C   UNL     1       3.843   7.695  21.723  0.00  0.00     0.035 C 
HETATM    3  C   UNL     1       5.730   6.456  22.594  0.00  0.00     0.083 C 
HETATM    4  C   UNL     1       6.375   6.511  21.355  0.00  0.00     0.069 C 
HETATM    5  C   UNL     1       5.650   7.051  20.291  0.00  0.00     0.065 A 
HETATM    6  C   UNL     1       4.385   7.608  20.427  0.00  0.00     0.020 A 
HETATM    7  N   UNL     1       5.957   7.191  18.963  0.00  0.00    -0.277 N 
HETATM    8  H   UNL     1       6.829   6.955  18.503  0.00  0.00     0.189 HD
HETATM    9  N   UNL     1       4.950   7.671  18.214  0.00  0.00    -0.178 NA
HETATM   10  C   UNL     1       3.961   7.916  19.093  0.00  0.00     0.071 A 
ENDROOT
BRANCH   1  11
HETATM   11  C   UNL     1       3.753   6.777  24.126  0.00  0.00     0.260 C 
HETATM   12  N   UNL     1       3.416   7.872  24.984  0.00  0.00    -0.318 N 
HETATM   13  C   UNL     1       3.642   9.259  24.560  0.00  0.00     0.159 C 
HETATM   14  O   UNL     1       3.463   5.599  24.360  0.00  0.00    -0.267 OA
BRANCH  12  15
HETATM   15  C   UNL     1       2.719   7.718  26.258  0.00  0.00     0.037 A 
HETATM   16  C   UNL     1       3.358   7.137  27.363  0.00  0.00     0.032 A 
HETATM   17  C   UNL     1       2.815   7.162  28.665  0.00  0.00     0.031 A 
HETATM   18  C   UNL     1       1.574   7.726  28.928  0.00  0.00     0.030 A 
HETATM   19  C   UNL     1       0.872   8.171  27.801  0.00  0.00     0.031 A 
HETATM   20  C   UNL     1       1.426   8.181  26.497  0.00  0.00     0.032 A 
BRANCH  18  21
HETATM   21  N   UNL     1       1.040   7.807  30.203  0.00  0.00    -0.378 N 
HETATM   22  C   UNL     1       1.056   9.039  31.009  0.00  0.00     0.150 C 
HETATM   23  C   UNL     1       1.450   8.684  32.460  0.00  0.00     0.252 C 
HETATM   24  N   UNL     1       0.572   7.580  33.009  0.00  0.00    -0.072 N 
HETATM   25  H   UNL     1      -0.383   7.938  33.138  0.00  0.00     0.277 HD
HETATM   26  H   UNL     1       0.916   7.301  33.936  0.00  0.00     0.277 HD
HETATM   27  C   UNL     1       0.529   6.362  32.109  0.00  0.00     0.252 C 
HETATM   28  C   UNL     1       0.105   6.775  30.688  0.00  0.00     0.150 C 
ENDBRANCH  18  21
ENDBRANCH  12  15
ENDBRANCH   1  11
BRANCH   3  29
HETATM   29  O   UNL     1       6.449   5.835  23.591  0.00  0.00    -0.360 OA
HETATM   30  H   UNL     1       6.504   6.451  24.353  0.00  0.00     0.217 HD
ENDBRANCH   3  29
BRANCH  10  31
HETATM   31  C   UNL     1       2.643   8.442  18.573  0.00  0.00     0.100 C 
BRANCH  31  32
HETATM   32  C   UNL     1       1.878   7.391  17.769  0.00  0.00    -0.052 A 
HETATM   33  C   UNL     1       1.805   7.396  16.369  0.00  0.00     0.007 A 
HETATM   34  C   UNL     1       1.089   6.415  15.678  0.00  0.00     0.001 A 
HETATM   35  C   UNL     1       0.352   5.459  16.368  0.00  0.00     0.007 A 
HETATM   36  C   UNL     1       0.287   5.499  17.763  0.00  0.00    -0.061 A 
HETATM   37  C   UNL     1       1.084   6.436  18.454  0.00  0.00     0.014 A 
HETATM   38  C   UNL     1      -0.641   4.553  18.473  0.00  0.00     0.048 C 
ENDBRANCH  31  32
ENDBRANCH  10  31
TORSDOF 6
ENDMDL
MODEL 2
REMARK VINA RESULT:    -8.223      1.569      2.122
REMARK INTER + INTRA:         -11.756
REMARK INTER:                 -10.555
REMARK INTRA:                  -1.201
REMARK UNBOUND:                -0.889
REMARK  6 active torsions:
REMARK  status: ('A' for Active; 'I' for Inactive)
REMARK    1  A    between atoms: N_8  and  C_9 
REMARK    2  A    between atoms: C_14  and  N_15 
REMARK       I    between atoms: N_15  and  C_17 
REMARK    3  A    between atoms: C_17  and  C_19 
REMARK    4  A    between atoms: C_21  and  O_22 
REMARK    5  A    between atoms: C_29  and  C_30 
REMARK    6  A    between atoms: C_30  and  C_31 
ROOT
HETATM    1  C   UNL     1       4.110   7.479  21.195  0.00  0.00     0.066 C 
HETATM    2  C   UNL     1       3.298   7.735  20.065  0.00  0.00     0.035 C 
HETATM    3  C   UNL     1       5.352   6.841  20.980  0.00  0.00     0.083 C 
HETATM    4  C   UNL     1       5.746   6.379  19.720  0.00  0.00     0.069 C 
HETATM    5  C   UNL     1       4.816   6.498  18.686  0.00  0.00     0.065 A 
HETATM    6  C   UNL     1       3.584   7.126  18.829  0.00  0.00     0.020 A 
HETATM    7  N   UNL     1       4.857   6.097  17.377  0.00  0.00    -0.277 N 
HETATM    8  H   UNL     1       5.632   5.659  16.890  0.00  0.00     0.189 HD
HETATM    9  N   UNL     1       3.712   6.297  16.704  0.00  0.00    -0.178 NA
HETATM   10  C   UNL     1       2.903   6.912  17.586  0.00  0.00     0.071 A 
ENDROOT
BRANCH   1  11
HETATM   11  C   UNL     1       3.697   7.828  22.607  0.00  0.00     0.260 C 
HETATM   12  N   UNL     1       2.964   6.909  23.422  0.00  0.00    -0.318 N 
HETATM   13  C   UNL     1       2.667   5.551  22.948  0.00  0.00     0.159 C 
HETATM   14  O   UNL     1       4.100   8.930  22.995  0.00  0.00    -0.267 OA
BRANCH  12  15
HETATM   15  C   UNL     1       2.576   7.182  24.803  0.00  0.00     0.037 A 
HETATM   16  C   UNL     1       3.458   6.922  25.863  0.00  0.00     0.032 A 
HETATM   17  C   UNL     1       3.223   7.365  27.182  0.00  0.00     0.031 A 
HETATM   18  C   UNL     1       2.065   8.049  27.529  0.00  0.00     0.030 A 
HETATM   19  C   UNL     1       1.119   8.175  26.503  0.00  0.00     0.031 A 
HETATM   20  C   UNL     1       1.364   7.764  25.169  0.00  0.00     0.032 A 
BRANCH  18  21
HETATM   21  N   UNL     1       1.832   8.536  28.804  0.00  0.00    -0.378 N 
HETATM   22  C   UNL     1       2.910   8.857  29.755  0.00  0.00     0.150 C 
HETATM   23  C   UNL     1       2.522   8.323  31.151  0.00  0.00     0.252 C 
HETATM   24  N   UNL     1       1.148   8.812  31.561  0.00  0.00    -0.072 N 
HETATM   25  H   UNL     1       1.186   9.825  31.732  0.00  0.00     0.277 HD
HETATM   26  H   UNL     1       0.879   8.367  32.446  0.00  0.00     0.277 HD
HETATM   27  C   UNL     1       0.088   8.524  30.517  0.00  0.00     0.252 C 
HETATM   28  C   UNL     1       0.518   9.103  29.158  0.00  0.00     0.150 C 
ENDBRANCH  18  21
ENDBRANCH  12  15
ENDBRANCH   1  11
BRANCH   3  29
HETATM   29  O   UNL     1       6.267   6.622  21.985  0.00  0.00    -0.360 OA
HETATM   30  H   UNL     1       7.145   6.925  21.668  0.00  0.00     0.217 HD
ENDBRANCH   3  29
BRANCH  10  31
HETATM   31  C   UNL     1       1.496   7.258  17.159  0.00  0.00     0.100 C 
BRANCH  31  32
HETATM   32  C   UNL     1       0.755   6.054  16.579  0.00  0.00    -0.052 A 
HETATM   33  C   UNL     1       0.342   5.977  15.241  0.00  0.00     0.007 A 
HETATM   34  C   UNL     1      -0.336   4.855  14.756  0.00  0.00     0.001 A 
HETATM   35  C   UNL     1      -0.702   3.824  15.615  0.00  0.00     0.007 A 
HETATM   36  C   UNL     1      -0.430   3.922  16.981  0.00  0.00    -0.061 A 
HETATM   37  C   UNL     1       0.334   5.014  17.446  0.00  0.00     0.014 A 
HETATM   38  C   UNL     1      -0.974   2.869  17.906  0.00  0.00     0.048 C 
ENDBRANCH  31  32
ENDBRANCH  10  31
TORSDOF 6
ENDMDL
MODEL 3
REMARK VINA RESULT:    -7.852      3.541      9.705
REMARK INTER + INTRA:         -11.266
REMARK INTER:                 -10.132
REMARK INTRA:                  -1.134
REMARK UNBOUND:                -0.889
REMARK  6 active torsions:
REMARK  status: ('A' for Active; 'I' for Inactive)
REMARK    1  A    between atoms: N_8  and  C_9 
REMARK    2  A    between atoms: C_14  and  N_15 
REMARK       I    between atoms: N_15  and  C_17 
REMARK    3  A    between atoms: C_17  and  C_19 
REMARK    4  A    between atoms: C_21  and  O_22 
REMARK    5  A    between atoms: C_29  and  C_30 
REMARK    6  A    between atoms: C_30  and  C_31 
ROOT
HETATM    1  C   UNL     1       2.306   7.501  25.660  0.00  0.00     0.066 C 
HETATM    2  C   UNL     1       1.000   7.940  25.982  0.00  0.00     0.035 C 
HETATM    3  C   UNL     1       3.273   7.509  26.689  0.00  0.00     0.083 C 
HETATM    4  C   UNL     1       3.005   8.020  27.963  0.00  0.00     0.069 C 
HETATM    5  C   UNL     1       1.753   8.607  28.155  0.00  0.00     0.065 A 
HETATM    6  C   UNL     1       0.755   8.621  27.189  0.00  0.00     0.020 A 
HETATM    7  N   UNL     1       1.206   9.244  29.237  0.00  0.00    -0.277 N 
HETATM    8  H   UNL     1       1.621   9.369  30.155  0.00  0.00     0.189 HD
HETATM    9  N   UNL     1      -0.005   9.777  29.007  0.00  0.00    -0.178 NA
HETATM   10  C   UNL     1      -0.296   9.424  27.742  0.00  0.00     0.071 A 
ENDROOT
BRANCH   1  11
HETATM   11  C   UNL     1       2.711   7.059  24.273  0.00  0.00     0.260 C 
HETATM   12  N   UNL     1       2.840   5.674  23.935  0.00  0.00    -0.318 N 
HETATM   13  C   UNL     1       2.491   4.627  24.903  0.00  0.00     0.159 C 
HETATM   14  O   UNL     1       2.853   7.984  23.467  0.00  0.00    -0.267 OA
BRANCH  12  15
HETATM   15  C   UNL     1       3.191   5.194  22.601  0.00  0.00     0.037 A 
HETATM   16  C   UNL     1       4.094   4.134  22.433  0.00  0.00     0.032 A 
HETATM   17  C   UNL     1       4.299   3.490  21.195  0.00  0.00     0.031 A 
HETATM   18  C   UNL     1       3.652   3.906  20.038  0.00  0.00     0.030 A 
HETATM   19  C   UNL     1       2.866   5.058  20.179  0.00  0.00     0.031 A 
HETATM   20  C   UNL     1       2.628   5.686  21.426  0.00  0.00     0.032 A 
BRANCH  18  21
HETATM   21  N   UNL     1       3.799   3.263  18.821  0.00  0.00    -0.378 N 
HETATM   22  C   UNL     1       2.845   3.412  17.709  0.00  0.00     0.150 C 
HETATM   23  C   UNL     1       2.579   2.023  17.087  0.00  0.00     0.252 C 
HETATM   24  N   UNL     1       3.875   1.330  16.723  0.00  0.00    -0.072 N 
HETATM   25  H   UNL     1       4.315   1.825  15.937  0.00  0.00     0.277 HD
HETATM   26  H   UNL     1       3.672   0.376  16.401  0.00  0.00     0.277 HD
HETATM   27  C   UNL     1       4.852   1.267  17.879  0.00  0.00     0.252 C 
HETATM   28  C   UNL     1       5.097   2.680  18.436  0.00  0.00     0.150 C 
ENDBRANCH  18  21
ENDBRANCH  12  15
ENDBRANCH   1  11
BRANCH   3  29
HETATM   29  O   UNL     1       4.550   7.021  26.522  0.00  0.00    -0.360 OA
HETATM   30  H   UNL     1       4.482   6.076  26.263  0.00  0.00     0.217 HD
ENDBRANCH   3  29
BRANCH  10  31
HETATM   31  C   UNL     1      -1.599   9.896  27.139  0.00  0.00     0.100 C 
BRANCH  31  32
HETATM   32  C   UNL     1      -1.381  10.758  25.896  0.00  0.00    -0.052 A 
HETATM   33  C   UNL     1      -1.905  10.438  24.636  0.00  0.00     0.007 A 
HETATM   34  C   UNL     1      -1.675  11.257  23.527  0.00  0.00     0.001 A 
HETATM   35  C   UNL     1      -0.840  12.364  23.626  0.00  0.00     0.007 A 
HETATM   36  C   UNL     1      -0.188  12.643  24.829  0.00  0.00    -0.061 A 
HETATM   37  C   UNL     1      -0.497  11.865  25.966  0.00  0.00     0.014 A 
HETATM   38  C   UNL     1       0.828  13.750  24.864  0.00  0.00     0.048 C 
ENDBRANCH  31  32
ENDBRANCH  10  31
TORSDOF 6
ENDMDL
MODEL 4
REMARK VINA RESULT:    -7.837      3.978      9.263
REMARK INTER + INTRA:         -11.246
REMARK INTER:                 -10.513
REMARK INTRA:                  -0.733
REMARK UNBOUND:                -0.889
REMARK  6 active torsions:
REMARK  status: ('A' for Active; 'I' for Inactive)
REMARK    1  A    between atoms: N_8  and  C_9 
REMARK    2  A    between atoms: C_14  and  N_15 
REMARK       I    between atoms: N_15  and  C_17 
REMARK    3  A    between atoms: C_17  and  C_19 
REMARK    4  A    between atoms: C_21  and  O_22 
REMARK    5  A    between atoms: C_29  and  C_30 
REMARK    6  A    between atoms: C_30  and  C_31 
ROOT
HETATM    1  C   UNL     1       0.824   7.288  26.677  0.00  0.00     0.066 C 
HETATM    2  C   UNL     1      -0.306   8.061  26.323  0.00  0.00     0.035 C 
HETATM    3  C   UNL     1       1.350   7.452  27.977  0.00  0.00     0.083 C 
HETATM    4  C   UNL     1       0.854   8.408  28.869  0.00  0.00     0.069 C 
HETATM    5  C   UNL     1      -0.139   9.263  28.387  0.00  0.00     0.065 A 
HETATM    6  C   UNL     1      -0.707   9.147  27.125  0.00  0.00     0.020 A 
HETATM    7  N   UNL     1      -0.781  10.326  28.966  0.00  0.00    -0.277 N 
HETATM    8  H   UNL     1      -0.674  10.669  29.915  0.00  0.00     0.189 HD
HETATM    9  N   UNL     1      -1.616  10.979  28.142  0.00  0.00    -0.178 NA
HETATM   10  C   UNL     1      -1.571  10.282  26.992  0.00  0.00     0.071 A 
ENDROOT
BRANCH   1  11
HETATM   11  C   UNL     1       1.501   6.329  25.725  0.00  0.00     0.260 C 
HETATM   12  N   UNL     1       2.240   6.794  24.591  0.00  0.00    -0.318 N 
HETATM   13  C   UNL     1       2.446   8.230  24.363  0.00  0.00     0.159 C 
HETATM   14  O   UNL     1       1.407   5.141  26.051  0.00  0.00    -0.267 OA
BRANCH  12  15
HETATM   15  C   UNL     1       2.944   5.911  23.664  0.00  0.00     0.037 A 
HETATM   16  C   UNL     1       3.300   4.609  24.042  0.00  0.00     0.032 A 
HETATM   17  C   UNL     1       3.780   3.648  23.127  0.00  0.00     0.031 A 
HETATM   18  C   UNL     1       3.981   3.952  21.787  0.00  0.00     0.030 A 
HETATM   19  C   UNL     1       3.767   5.294  21.443  0.00  0.00     0.031 A 
HETATM   20  C   UNL     1       3.252   6.253  22.349  0.00  0.00     0.032 A 
BRANCH  18  21
HETATM   21  N   UNL     1       4.405   3.017  20.859  0.00  0.00    -0.378 N 
HETATM   22  C   UNL     1       5.112   3.373  19.617  0.00  0.00     0.150 C 
HETATM   23  C   UNL     1       4.530   2.544  18.452  0.00  0.00     0.252 C 
HETATM   24  N   UNL     1       4.530   1.066  18.779  0.00  0.00    -0.072 N 
HETATM   25  H   UNL     1       5.499   0.725  18.807  0.00  0.00     0.277 HD
HETATM   26  H   UNL     1       4.053   0.551  18.030  0.00  0.00     0.277 HD
HETATM   27  C   UNL     1       3.856   0.757  20.101  0.00  0.00     0.252 C 
HETATM   28  C   UNL     1       4.497   1.591  21.224  0.00  0.00     0.150 C 
ENDBRANCH  18  21
ENDBRANCH  12  15
ENDBRANCH   1  11
BRANCH   3  29
HETATM   29  O   UNL     1       2.388   6.692  28.467  0.00  0.00    -0.360 OA
HETATM   30  H   UNL     1       3.149   7.289  28.635  0.00  0.00     0.217 HD
ENDBRANCH   3  29
BRANCH  10  31
HETATM   31  C   UNL     1      -2.385  10.771  25.816  0.00  0.00     0.100 C 
BRANCH  31  32
HETATM   32  C   UNL     1      -1.558  11.627  24.858  0.00  0.00    -0.052 A 
HETATM   33  C   UNL     1      -0.486  12.431  25.273  0.00  0.00     0.007 A 
HETATM   34  C   UNL     1       0.239  13.200  24.359  0.00  0.00     0.001 A 
HETATM   35  C   UNL     1      -0.144  13.260  23.024  0.00  0.00     0.007 A 
HETATM   36  C   UNL     1      -1.287  12.582  22.594  0.00  0.00    -0.061 A 
HETATM   37  C   UNL     1      -1.959  11.737  23.502  0.00  0.00     0.014 A 
HETATM   38  C   UNL     1      -1.766  12.791  21.183  0.00  0.00     0.048 C 
ENDBRANCH  31  32
ENDBRANCH  10  31
TORSDOF 6
ENDMDL
MODEL 5
REMARK VINA RESULT:    -7.822      3.159     10.581
REMARK INTER + INTRA:         -11.226
REMARK INTER:                 -10.349
REMARK INTRA:                  -0.876
REMARK UNBOUND:                -0.889
REMARK  6 active torsions:
REMARK  status: ('A' for Active; 'I' for Inactive)
REMARK    1  A    between atoms: N_8  and  C_9 
REMARK    2  A    between atoms: C_14  and  N_15 
REMARK       I    between atoms: N_15  and  C_17 
REMARK    3  A    between atoms: C_17  and  C_19 
REMARK    4  A    between atoms: C_21  and  O_22 
REMARK    5  A    between atoms: C_29  and  C_30 
REMARK    6  A    between atoms: C_30  and  C_31 
ROOT
HETATM    1  C   UNL     1       3.505   6.366  22.393  0.00  0.00     0.066 C 
HETATM    2  C   UNL     1       2.551   6.250  23.430  0.00  0.00     0.035 C 
HETATM    3  C   UNL     1       4.833   6.687  22.756  0.00  0.00     0.083 C 
HETATM    4  C   UNL     1       5.196   6.982  24.074  0.00  0.00     0.069 C 
HETATM    5  C   UNL     1       4.167   7.032  25.015  0.00  0.00     0.065 A 
HETATM    6  C   UNL     1       2.845   6.716  24.725  0.00  0.00     0.020 A 
HETATM    7  N   UNL     1       4.170   7.349  26.348  0.00  0.00    -0.277 N 
HETATM    8  H   UNL     1       4.972   7.571  26.927  0.00  0.00     0.189 HD
HETATM    9  N   UNL     1       2.949   7.388  26.906  0.00  0.00    -0.178 NA
HETATM   10  C   UNL     1       2.112   7.021  25.919  0.00  0.00     0.071 A 
ENDROOT
BRANCH   1  11
HETATM   11  C   UNL     1       3.164   6.192  20.931  0.00  0.00     0.260 C 
HETATM   12  N   UNL     1       2.603   4.974  20.432  0.00  0.00    -0.318 N 
HETATM   13  C   UNL     1       2.250   3.878  21.343  0.00  0.00     0.159 C 
HETATM   14  O   UNL     1       3.354   7.200  20.243  0.00  0.00    -0.267 OA
BRANCH  12  15
HETATM   15  C   UNL     1       2.220   4.768  19.038  0.00  0.00     0.037 A 
HETATM   16  C   UNL     1       2.697   3.664  18.316  0.00  0.00     0.032 A 
HETATM   17  C   UNL     1       2.193   3.299  17.050  0.00  0.00     0.031 A 
HETATM   18  C   UNL     1       1.218   4.051  16.407  0.00  0.00     0.030 A 
HETATM   19  C   UNL     1       0.852   5.234  17.061  0.00  0.00     0.031 A 
HETATM   20  C   UNL     1       1.328   5.587  18.348  0.00  0.00     0.032 A 
BRANCH  18  21
HETATM   21  N   UNL     1       0.672   3.689  15.187  0.00  0.00    -0.378 N 
HETATM   22  C   UNL     1       1.457   3.077  14.101  0.00  0.00     0.150 C 
HETATM   23  C   UNL     1       1.060   3.737  12.762  0.00  0.00     0.252 C 
HETATM   24  N   UNL     1      -0.440   3.702  12.559  0.00  0.00    -0.072 N 
HETATM   25  H   UNL     1      -0.738   2.730  12.404  0.00  0.00     0.277 HD
HETATM   26  H   UNL     1      -0.681   4.229  11.711  0.00  0.00     0.277 HD
HETATM   27  C   UNL     1      -1.205   4.275  13.735  0.00  0.00     0.252 C 
HETATM   28  C   UNL     1      -0.788   3.560  15.031  0.00  0.00     0.150 C 
ENDBRANCH  18  21
ENDBRANCH  12  15
ENDBRANCH   1  11
BRANCH   3  29
HETATM   29  O   UNL     1       5.867   6.736  21.848  0.00  0.00    -0.360 OA
HETATM   30  H   UNL     1       6.223   7.651  21.844  0.00  0.00     0.217 HD
ENDBRANCH   3  29
BRANCH  10  31
HETATM   31  C   UNL     1       0.628   6.991  26.201  0.00  0.00     0.100 C 
BRANCH  31  32
HETATM   32  C   UNL     1       0.025   8.393  26.274  0.00  0.00    -0.052 A 
HETATM   33  C   UNL     1      -0.282   9.037  27.481  0.00  0.00     0.007 A 
HETATM   34  C   UNL     1      -0.837  10.320  27.496  0.00  0.00     0.001 A 
HETATM   35  C   UNL     1      -1.186  10.954  26.309  0.00  0.00     0.007 A 
HETATM   36  C   UNL     1      -1.022  10.293  25.090  0.00  0.00    -0.061 A 
HETATM   37  C   UNL     1      -0.379   9.038  25.077  0.00  0.00     0.014 A 
HETATM   38  C   UNL     1      -1.552  10.939  23.839  0.00  0.00     0.048 C 
ENDBRANCH  31  32
ENDBRANCH  10  31
TORSDOF 6
ENDMDL
MODEL 6
REMARK VINA RESULT:    -7.740      4.167     11.114
REMARK INTER + INTRA:         -11.117
REMARK INTER:                 -10.416
REMARK INTRA:                  -0.701
REMARK UNBOUND:                -0.889
REMARK  6 active torsions:
REMARK  status: ('A' for Active; 'I' for Inactive)
REMARK    1  A    between atoms: N_8  and  C_9 
REMARK    2  A    between atoms: C_14  and  N_15 
REMARK       I    between atoms: N_15  and  C_17 
REMARK    3  A    between atoms: C_17  and  C_19 
REMARK    4  A    between atoms: C_21  and  O_22 
REMARK    5  A    between atoms: C_29  and  C_30 
REMARK    6  A    between atoms: C_30  and  C_31 
ROOT
HETATM    1  C   UNL     1       3.337   5.603  19.143  0.00  0.00     0.066 C 
HETATM    2  C   UNL     1       3.110   5.413  20.526  0.00  0.00     0.035 C 
HETATM    3  C   UNL     1       4.613   6.062  18.744  0.00  0.00     0.083 C 
HETATM    4  C   UNL     1       5.601   6.418  19.668  0.00  0.00     0.069 C 
HETATM    5  C   UNL     1       5.244   6.383  21.017  0.00  0.00     0.065 A 
HETATM    6  C   UNL     1       4.012   5.931  21.474  0.00  0.00     0.020 A 
HETATM    7  N   UNL     1       5.937   6.724  22.148  0.00  0.00    -0.277 N 
HETATM    8  H   UNL     1       6.900   7.036  22.211  0.00  0.00     0.189 HD
HETATM    9  N   UNL     1       5.215   6.652  23.278  0.00  0.00    -0.178 NA
HETATM   10  C   UNL     1       4.016   6.185  22.885  0.00  0.00     0.071 A 
ENDROOT
BRANCH   1  11
HETATM   11  C   UNL     1       2.278   5.367  18.091  0.00  0.00     0.260 C 
HETATM   12  N   UNL     1       2.168   4.116  17.406  0.00  0.00    -0.318 N 
HETATM   13  C   UNL     1       3.023   2.979  17.770  0.00  0.00     0.159 C 
HETATM   14  O   UNL     1       1.502   6.315  17.932  0.00  0.00    -0.267 OA
BRANCH  12  15
HETATM   15  C   UNL     1       1.139   3.824  16.410  0.00  0.00     0.037 A 
HETATM   16  C   UNL     1       0.093   2.936  16.697  0.00  0.00     0.032 A 
HETATM   17  C   UNL     1      -1.036   2.786  15.864  0.00  0.00     0.031 A 
HETATM   18  C   UNL     1      -1.158   3.479  14.666  0.00  0.00     0.030 A 
HETATM   19  C   UNL     1      -0.044   4.250  14.310  0.00  0.00     0.031 A 
HETATM   20  C   UNL     1       1.076   4.433  15.158  0.00  0.00     0.032 A 
BRANCH  18  21
HETATM   21  N   UNL     1      -2.275   3.386  13.854  0.00  0.00    -0.378 N 
HETATM   22  C   UNL     1      -2.635   4.408  12.855  0.00  0.00     0.150 C 
HETATM   23  C   UNL     1      -4.155   4.672  12.933  0.00  0.00     0.252 C 
HETATM   24  N   UNL     1      -4.940   3.381  12.831  0.00  0.00    -0.072 N 
HETATM   25  H   UNL     1      -4.847   3.002  11.880  0.00  0.00     0.277 HD
HETATM   26  H   UNL     1      -5.936   3.577  12.980  0.00  0.00     0.277 HD
HETATM   27  C   UNL     1      -4.483   2.336  13.829  0.00  0.00     0.252 C 
HETATM   28  C   UNL     1      -2.970   2.098  13.684  0.00  0.00     0.150 C 
ENDBRANCH  18  21
ENDBRANCH  12  15
ENDBRANCH   1  11
BRANCH   3  29
HETATM   29  O   UNL     1       4.982   6.197  17.425  0.00  0.00    -0.360 OA
HETATM   30  H   UNL     1       5.962   6.164  17.379  0.00  0.00     0.217 HD
ENDBRANCH   3  29
BRANCH  10  31
HETATM   31  C   UNL     1       2.930   6.011  23.922  0.00  0.00     0.100 C 
BRANCH  31  32
HETATM   32  C   UNL     1       2.341   7.348  24.370  0.00  0.00    -0.052 A 
HETATM   33  C   UNL     1       1.048   7.482  24.897  0.00  0.00     0.007 A 
HETATM   34  C   UNL     1       0.552   8.728  25.290  0.00  0.00     0.001 A 
HETATM   35  C   UNL     1       1.296   9.883  25.082  0.00  0.00     0.007 A 
HETATM   36  C   UNL     1       2.533   9.812  24.437  0.00  0.00    -0.061 A 
HETATM   37  C   UNL     1       3.065   8.543  24.126  0.00  0.00     0.014 A 
HETATM   38  C   UNL     1       3.242  11.091  24.085  0.00  0.00     0.048 C 
ENDBRANCH  31  32
ENDBRANCH  10  31
TORSDOF 6
ENDMDL
MODEL 7
REMARK VINA RESULT:    -7.732      4.728      9.703
REMARK INTER + INTRA:         -11.107
REMARK INTER:                  -9.765
REMARK INTRA:                  -1.342
REMARK UNBOUND:                -0.889
REMARK  6 active torsions:
REMARK  status: ('A' for Active; 'I' for Inactive)
REMARK    1  A    between atoms: N_8  and  C_9 
REMARK    2  A    between atoms: C_14  and  N_15 
REMARK       I    between atoms: N_15  and  C_17 
REMARK    3  A    between atoms: C_17  and  C_19 
REMARK    4  A    between atoms: C_21  and  O_22 
REMARK    5  A    between atoms: C_29  and  C_30 
REMARK    6  A    between atoms: C_30  and  C_31 
ROOT
HETATM    1  C   UNL     1       2.864   5.088  19.081  0.00  0.00     0.066 C 
HETATM    2  C   UNL     1       3.576   5.075  20.303  0.00  0.00     0.035 C 
HETATM    3  C   UNL     1       3.501   5.656  17.956  0.00  0.00     0.083 C 
HETATM    4  C   UNL     1       4.750   6.280  18.040  0.00  0.00     0.069 C 
HETATM    5  C   UNL     1       5.311   6.397  19.313  0.00  0.00     0.065 A 
HETATM    6  C   UNL     1       4.741   5.849  20.457  0.00  0.00     0.020 A 
HETATM    7  N   UNL     1       6.464   6.995  19.745  0.00  0.00    -0.277 N 
HETATM    8  H   UNL     1       7.176   7.445  19.179  0.00  0.00     0.189 HD
HETATM    9  N   UNL     1       6.619   6.991  21.080  0.00  0.00    -0.178 NA
HETATM   10  C   UNL     1       5.557   6.308  21.543  0.00  0.00     0.071 A 
ENDROOT
BRANCH   1  11
HETATM   11  C   UNL     1       1.457   4.552  18.937  0.00  0.00     0.260 C 
HETATM   12  N   UNL     1       1.206   3.214  18.499  0.00  0.00    -0.318 N 
HETATM   13  C   UNL     1       2.312   2.278  18.263  0.00  0.00     0.159 C 
HETATM   14  O   UNL     1       0.576   5.344  19.287  0.00  0.00    -0.267 OA
BRANCH  12  15
HETATM   15  C   UNL     1      -0.130   2.637  18.381  0.00  0.00     0.037 A 
HETATM   16  C   UNL     1      -0.801   2.139  19.509  0.00  0.00     0.032 A 
HETATM   17  C   UNL     1      -2.164   1.775  19.492  0.00  0.00     0.031 A 
HETATM   18  C   UNL     1      -2.923   1.838  18.330  0.00  0.00     0.030 A 
HETATM   19  C   UNL     1      -2.214   2.192  17.175  0.00  0.00     0.031 A 
HETATM   20  C   UNL     1      -0.855   2.592  17.192  0.00  0.00     0.032 A 
BRANCH  18  21
HETATM   21  N   UNL     1      -4.273   1.533  18.297  0.00  0.00    -0.378 N 
HETATM   22  C   UNL     1      -5.094   1.636  17.079  0.00  0.00     0.150 C 
HETATM   23  C   UNL     1      -6.445   2.293  17.439  0.00  0.00     0.252 C 
HETATM   24  N   UNL     1      -7.111   1.576  18.594  0.00  0.00    -0.072 N 
HETATM   25  H   UNL     1      -7.414   0.643  18.285  0.00  0.00     0.277 HD
HETATM   26  H   UNL     1      -7.956   2.089  18.871  0.00  0.00     0.277 HD
HETATM   27  C   UNL     1      -6.201   1.429  19.797  0.00  0.00     0.252 C 
HETATM   28  C   UNL     1      -4.888   0.745  19.381  0.00  0.00     0.150 C 
ENDBRANCH  18  21
ENDBRANCH  12  15
ENDBRANCH   1  11
BRANCH   3  29
HETATM   29  O   UNL     1       2.948   5.644  16.695  0.00  0.00    -0.360 OA
HETATM   30  H   UNL     1       3.559   6.118  16.091  0.00  0.00     0.217 HD
ENDBRANCH   3  29
BRANCH  10  31
HETATM   31  C   UNL     1       5.397   6.141  23.036  0.00  0.00     0.100 C 
BRANCH  31  32
HETATM   32  C   UNL     1       4.306   7.046  23.605  0.00  0.00    -0.052 A 
HETATM   33  C   UNL     1       3.068   6.568  24.059  0.00  0.00     0.007 A 
HETATM   34  C   UNL     1       2.099   7.436  24.568  0.00  0.00     0.001 A 
HETATM   35  C   UNL     1       2.303   8.811  24.552  0.00  0.00     0.007 A 
HETATM   36  C   UNL     1       3.464   9.340  23.985  0.00  0.00    -0.061 A 
HETATM   37  C   UNL     1       4.476   8.453  23.556  0.00  0.00     0.014 A 
HETATM   38  C   UNL     1       3.587  10.831  23.839  0.00  0.00     0.048 C 
ENDBRANCH  31  32
ENDBRANCH  10  31
TORSDOF 6
ENDMDL
MODEL 8
REMARK VINA RESULT:    -7.723      2.655     10.083
REMARK INTER + INTRA:         -11.095
REMARK INTER:                  -9.604
REMARK INTRA:                  -1.491
REMARK UNBOUND:                -0.889
REMARK  6 active torsions:
REMARK  status: ('A' for Active; 'I' for Inactive)
REMARK    1  A    between atoms: N_8  and  C_9 
REMARK    2  A    between atoms: C_14  and  N_15 
REMARK       I    between atoms: N_15  and  C_17 
REMARK    3  A    between atoms: C_17  and  C_19 
REMARK    4  A    between atoms: C_21  and  O_22 
REMARK    5  A    between atoms: C_29  and  C_30 
REMARK    6  A    between atoms: C_30  and  C_31 
ROOT
HETATM    1  C   UNL     1       4.402   5.083  28.711  0.00  0.00     0.066 C 
HETATM    2  C   UNL     1       3.097   5.223  29.237  0.00  0.00     0.035 C 
HETATM    3  C   UNL     1       5.489   5.271  29.595  0.00  0.00     0.083 C 
HETATM    4  C   UNL     1       5.312   5.678  30.921  0.00  0.00     0.069 C 
HETATM    5  C   UNL     1       4.008   5.978  31.319  0.00  0.00     0.065 A 
HETATM    6  C   UNL     1       2.897   5.803  30.503  0.00  0.00     0.020 A 
HETATM    7  N   UNL     1       3.507   6.454  32.501  0.00  0.00    -0.277 N 
HETATM    8  H   UNL     1       4.018   6.640  33.358  0.00  0.00     0.189 HD
HETATM    9  N   UNL     1       2.191   6.721  32.473  0.00  0.00    -0.178 NA
HETATM   10  C   UNL     1       1.796   6.347  31.243  0.00  0.00     0.071 A 
ENDROOT
BRANCH   1  11
HETATM   11  C   UNL     1       4.681   4.775  27.258  0.00  0.00     0.260 C 
HETATM   12  N   UNL     1       4.301   5.677  26.214  0.00  0.00    -0.318 N 
HETATM   13  C   UNL     1       3.709   6.984  26.526  0.00  0.00     0.159 C 
HETATM   14  O   UNL     1       5.307   3.726  27.074  0.00  0.00    -0.267 OA
BRANCH  12  15
HETATM   15  C   UNL     1       4.581   5.444  24.800  0.00  0.00     0.037 A 
HETATM   16  C   UNL     1       3.657   4.774  23.985  0.00  0.00     0.032 A 
HETATM   17  C   UNL     1       3.774   4.715  22.580  0.00  0.00     0.031 A 
HETATM   18  C   UNL     1       4.854   5.279  21.912  0.00  0.00     0.030 A 
HETATM   19  C   UNL     1       5.849   5.816  22.739  0.00  0.00     0.031 A 
HETATM   20  C   UNL     1       5.720   5.910  24.146  0.00  0.00     0.032 A 
BRANCH  18  21
HETATM   21  N   UNL     1       4.969   5.277  20.533  0.00  0.00    -0.378 N 
HETATM   22  C   UNL     1       5.559   6.391  19.770  0.00  0.00     0.150 C 
HETATM   23  C   UNL     1       4.683   6.668  18.529  0.00  0.00     0.252 C 
HETATM   24  N   UNL     1       4.452   5.403  17.729  0.00  0.00    -0.072 N 
HETATM   25  H   UNL     1       5.337   5.112  17.293  0.00  0.00     0.277 HD
HETATM   26  H   UNL     1       3.793   5.598  16.966  0.00  0.00     0.277 HD
HETATM   27  C   UNL     1       3.915   4.265  18.572  0.00  0.00     0.252 C 
HETATM   28  C   UNL     1       4.844   4.019  19.774  0.00  0.00     0.150 C 
ENDBRANCH  18  21
ENDBRANCH  12  15
ENDBRANCH   1  11
BRANCH   3  29
HETATM   29  O   UNL     1       6.800   5.072  29.223  0.00  0.00    -0.360 OA
HETATM   30  H   UNL     1       7.049   4.155  29.469  0.00  0.00     0.217 HD
ENDBRANCH   3  29
BRANCH  10  31
HETATM   31  C   UNL     1       0.348   6.546  30.855  0.00  0.00     0.100 C 
BRANCH  31  32
HETATM   32  C   UNL     1       0.199   7.419  29.610  0.00  0.00    -0.052 A 
HETATM   33  C   UNL     1       0.056   8.813  29.661  0.00  0.00     0.007 A 
HETATM   34  C   UNL     1      -0.082   9.570  28.494  0.00  0.00     0.001 A 
HETATM   35  C   UNL     1      -0.175   8.947  27.254  0.00  0.00     0.007 A 
HETATM   36  C   UNL     1      -0.174   7.553  27.170  0.00  0.00    -0.061 A 
HETATM   37  C   UNL     1       0.057   6.801  28.342  0.00  0.00     0.014 A 
HETATM   38  C   UNL     1      -0.433   6.907  25.837  0.00  0.00     0.048 C 
ENDBRANCH  31  32
ENDBRANCH  10  31
TORSDOF 6
ENDMDL
MODEL 9
REMARK VINA RESULT:    -7.662      3.676     11.091
REMARK INTER + INTRA:         -11.015
REMARK INTER:                 -10.126
REMARK INTRA:                  -0.889
REMARK UNBOUND:                -0.889
REMARK  6 active torsions:
REMARK  status: ('A' for Active; 'I' for Inactive)
REMARK    1  A    between atoms: N_8  and  C_9 
REMARK    2  A    between atoms: C_14  and  N_15 
REMARK       I    between atoms: N_15  and  C_17 
REMARK    3  A    between atoms: C_17  and  C_19 
REMARK    4  A    between atoms: C_21  and  O_22 
REMARK    5  A    between atoms: C_29  and  C_30 
REMARK    6  A    between atoms: C_30  and  C_31 
ROOT
HETATM    1  C   UNL     1       3.947   6.620  20.027  0.00  0.00     0.066 C 
HETATM    2  C   UNL     1       3.523   6.364  21.352  0.00  0.00     0.035 C 
HETATM    3  C   UNL     1       4.691   7.798  19.792  0.00  0.00     0.083 C 
HETATM    4  C   UNL     1       4.929   8.743  20.794  0.00  0.00     0.069 C 
HETATM    5  C   UNL     1       4.323   8.516  22.031  0.00  0.00     0.065 A 
HETATM    6  C   UNL     1       3.591   7.374  22.330  0.00  0.00     0.020 A 
HETATM    7  N   UNL     1       4.300   9.261  23.181  0.00  0.00    -0.277 N 
HETATM    8  H   UNL     1       4.784  10.134  23.360  0.00  0.00     0.189 HD
HETATM    9  N   UNL     1       3.512   8.758  24.146  0.00  0.00    -0.178 NA
HETATM   10  C   UNL     1       3.046   7.604  23.636  0.00  0.00     0.071 A 
ENDROOT
BRANCH   1  11
HETATM   11  C   UNL     1       3.617   5.714  18.863  0.00  0.00     0.260 C 
HETATM   12  N   UNL     1       2.328   5.732  18.241  0.00  0.00    -0.318 N 
HETATM   13  C   UNL     1       1.306   6.703  18.652  0.00  0.00     0.159 C 
HETATM   14  O   UNL     1       4.564   5.022  18.475  0.00  0.00    -0.267 OA
BRANCH  12  15
HETATM   15  C   UNL     1       1.971   4.906  17.091  0.00  0.00     0.037 A 
HETATM   16  C   UNL     1       1.858   3.514  17.213  0.00  0.00     0.032 A 
HETATM   17  C   UNL     1       1.309   2.697  16.202  0.00  0.00     0.031 A 
HETATM   18  C   UNL     1       0.889   3.221  14.986  0.00  0.00     0.030 A 
HETATM   19  C   UNL     1       1.141   4.588  14.809  0.00  0.00     0.031 A 
HETATM   20  C   UNL     1       1.659   5.419  15.833  0.00  0.00     0.032 A 
BRANCH  18  21
HETATM   21  N   UNL     1       0.303   2.450  13.997  0.00  0.00    -0.378 N 
HETATM   22  C   UNL     1      -0.855   2.897  13.205  0.00  0.00     0.150 C 
HETATM   23  C   UNL     1      -1.859   1.729  13.081  0.00  0.00     0.252 C 
HETATM   24  N   UNL     1      -1.181   0.478  12.563  0.00  0.00    -0.072 N 
HETATM   25  H   UNL     1      -0.911   0.621  11.581  0.00  0.00     0.277 HD
HETATM   26  H   UNL     1      -1.847  -0.302  12.581  0.00  0.00     0.277 HD
HETATM   27  C   UNL     1       0.048   0.101  13.366  0.00  0.00     0.252 C 
HETATM   28  C   UNL     1       1.019   1.293  13.429  0.00  0.00     0.150 C 
ENDBRANCH  18  21
ENDBRANCH  12  15
ENDBRANCH   1  11
BRANCH   3  29
HETATM   29  O   UNL     1       5.235   8.109  18.566  0.00  0.00    -0.360 OA
HETATM   30  H   UNL     1       5.934   7.448  18.368  0.00  0.00     0.217 HD
ENDBRANCH   3  29
BRANCH  10  31
HETATM   31  C   UNL     1       2.084   6.782  24.463  0.00  0.00     0.100 C 
BRANCH  31  32
HETATM   32  C   UNL     1       1.233   7.649  25.389  0.00  0.00    -0.052 A 
HETATM   33  C   UNL     1       1.140   7.436  26.772  0.00  0.00     0.007 A 
HETATM   34  C   UNL     1       0.344   8.255  27.579  0.00  0.00     0.001 A 
HETATM   35  C   UNL     1      -0.451   9.246  27.014  0.00  0.00     0.007 A 
HETATM   36  C   UNL     1      -0.492   9.404  25.627  0.00  0.00    -0.061 A 
HETATM   37  C   UNL     1       0.382   8.635  24.829  0.00  0.00     0.014 A 
HETATM   38  C   UNL     1      -1.477  10.375  25.037  0.00  0.00     0.048 C 
ENDBRANCH  31  32
ENDBRANCH  10  31
TORSDOF 6
ENDMDL
