MODEL 1
REMARK VINA RESULT:    -7.184      0.000      0.000
REMARK INTER + INTRA:         -10.556
REMARK INTER:                  -9.421
REMARK INTRA:                  -1.134
REMARK UNBOUND:                -1.482
REMARK  6 active torsions:
REMARK  status: ('A' for Active; 'I' for Inactive)
REMARK    1  A    between atoms: O_1  and  C_2 
REMARK    2  A    between atoms: C_2  and  C_4 
REMARK    3  A    between atoms: C_6  and  C_7 
REMARK    4  A    between atoms: N_13  and  C_14 
REMARK    5  A    between atoms: C_21  and  O_22 
REMARK    6  A    between atoms: C_25  and  O_26 
ROOT
HETATM    1  C   UNL     1       1.889   7.329  18.529  0.00  0.00     0.073 C 
HETATM    2  C   UNL     1       2.876   6.906  19.439  0.00  0.00     0.039 C 
HETATM    3  C   UNL     1       2.749   5.709  20.161  0.00  0.00     0.048 C 
HETATM    4  C   UNL     1       1.570   4.968  20.008  0.00  0.00     0.100 C 
HETATM    5  C   UNL     1       0.650   5.302  19.004  0.00  0.00     0.079 C 
HETATM    6 BR   UNL     1      -0.852   4.183  18.654  0.00  0.00    -0.045 Br
HETATM    7  C   UNL     1       0.806   6.483  18.271  0.00  0.00     0.102 C 
ENDROOT
BRANCH   3   8
HETATM    8  C   UNL     1       3.847   5.376  21.111  0.00  0.00     0.172 A 
HETATM    9  N   UNL     1       4.351   4.169  21.154  0.00  0.00    -0.151 NA
HETATM   10  N   UNL     1       5.388   4.257  22.036  0.00  0.00    -0.226 N 
HETATM   11  H   UNL     1       5.949   3.460  22.305  0.00  0.00     0.194 HD
HETATM   12  C   UNL     1       5.510   5.546  22.536  0.00  0.00     0.349 A 
HETATM   13  O   UNL     1       6.344   5.913  23.349  0.00  0.00    -0.245 OA
HETATM   14  N   UNL     1       4.489   6.263  21.941  0.00  0.00    -0.241 N 
BRANCH  14  15
HETATM   15  C   UNL     1       4.179   7.587  22.296  0.00  0.00     0.084 A 
HETATM   16  C   UNL     1       3.398   7.820  23.439  0.00  0.00     0.033 A 
HETATM   17  C   UNL     1       3.221   9.121  23.916  0.00  0.00     0.002 A 
HETATM   18  C   UNL     1       3.763  10.202  23.221  0.00  0.00     0.003 A 
HETATM   19  C   UNL     1       4.476   9.985  22.043  0.00  0.00     0.044 A 
HETATM   20  C   UNL     1       4.689   8.683  21.594  0.00  0.00     0.143 A 
HETATM   21  F   UNL     1       5.383   8.497  20.462  0.00  0.00    -0.204 F 
ENDBRANCH  14  15
ENDBRANCH   3   8
BRANCH   4  22
HETATM   22  O   UNL     1       1.208   3.963  20.864  0.00  0.00    -0.358 OA
HETATM   23  H   UNL     1       0.642   3.322  20.399  0.00  0.00     0.217 HD
ENDBRANCH   4  22
BRANCH   1  24
HETATM   24  C   UNL     1       2.043   8.683  17.928  0.00  0.00     0.179 C 
HETATM   25  O   UNL     1       2.493   9.628  18.558  0.00  0.00    -0.646 OA
BRANCH  24  26
HETATM   26  O   UNL     1       1.597   8.817  16.661  0.00  0.00    -0.773 OA
HETATM   27  H   UNL     1       0.691   9.196  16.612  0.00  0.00     0.167 HD
ENDBRANCH  24  26
ENDBRANCH   1  24
BRANCH   7  28
HETATM   28  O   UNL     1      -0.126   6.841  17.325  0.00  0.00    -0.358 OA
HETATM   29  H   UNL     1      -0.533   6.014  16.988  0.00  0.00     0.217 HD
ENDBRANCH   7  28
TORSDOF 6
ENDMDL
MODEL 2
REMARK VINA RESULT:    -7.007      3.425      5.214
REMARK INTER + INTRA:         -10.332
REMARK INTER:                  -8.982
REMARK INTRA:                  -1.350
REMARK UNBOUND:                -1.482
REMARK  6 active torsions:
REMARK  status: ('A' for Active; 'I' for Inactive)
REMARK    1  A    between atoms: O_1  and  C_2 
REMARK    2  A    between atoms: C_2  and  C_4 
REMARK    3  A    between atoms: C_6  and  C_7 
REMARK    4  A    between atoms: N_13  and  C_14 
REMARK    5  A    between atoms: C_21  and  O_22 
REMARK    6  A    between atoms: C_25  and  O_26 
ROOT
HETATM    1  C   UNL     1       3.203   4.748  23.043  0.00  0.00     0.073 C 
HETATM    2  C   UNL     1       4.047   5.690  22.424  0.00  0.00     0.039 C 
HETATM    3  C   UNL     1       4.725   5.400  21.230  0.00  0.00     0.048 C 
HETATM    4  C   UNL     1       4.600   4.110  20.697  0.00  0.00     0.100 C 
HETATM    5  C   UNL     1       3.656   3.216  21.222  0.00  0.00     0.079 C 
HETATM    6 BR   UNL     1       3.335   1.539  20.377  0.00  0.00    -0.045 Br
HETATM    7  C   UNL     1       2.965   3.532  22.396  0.00  0.00     0.102 C 
ENDROOT
BRANCH   3   8
HETATM    8  C   UNL     1       5.606   6.467  20.679  0.00  0.00     0.172 A 
HETATM    9  N   UNL     1       6.790   6.689  21.193  0.00  0.00    -0.151 NA
HETATM   10  N   UNL     1       7.346   7.637  20.384  0.00  0.00    -0.226 N 
HETATM   11  H   UNL     1       8.258   8.040  20.558  0.00  0.00     0.194 HD
HETATM   12  C   UNL     1       6.479   7.993  19.361  0.00  0.00     0.349 A 
HETATM   13  O   UNL     1       6.709   8.822  18.495  0.00  0.00    -0.245 OA
HETATM   14  N   UNL     1       5.340   7.239  19.574  0.00  0.00    -0.241 N 
BRANCH  14  15
HETATM   15  C   UNL     1       4.160   7.413  18.831  0.00  0.00     0.084 A 
HETATM   16  C   UNL     1       3.369   8.548  19.064  0.00  0.00     0.033 A 
HETATM   17  C   UNL     1       2.291   8.839  18.225  0.00  0.00     0.002 A 
HETATM   18  C   UNL     1       1.952   7.966  17.191  0.00  0.00     0.003 A 
HETATM   19  C   UNL     1       2.686   6.796  17.000  0.00  0.00     0.044 A 
HETATM   20  C   UNL     1       3.788   6.532  17.810  0.00  0.00     0.143 A 
HETATM   21  F   UNL     1       4.483   5.404  17.604  0.00  0.00    -0.204 F 
ENDBRANCH  14  15
ENDBRANCH   3   8
BRANCH   4  22
HETATM   22  O   UNL     1       5.432   3.626  19.723  0.00  0.00    -0.358 OA
HETATM   23  H   UNL     1       5.027   2.847  19.302  0.00  0.00     0.217 HD
ENDBRANCH   4  22
BRANCH   1  24
HETATM   24  C   UNL     1       2.651   5.096  24.382  0.00  0.00     0.179 C 
HETATM   25  O   UNL     1       2.836   4.394  25.365  0.00  0.00    -0.646 OA
BRANCH  24  26
HETATM   26  O   UNL     1       1.882   6.204  24.430  0.00  0.00    -0.773 OA
HETATM   27  H   UNL     1       0.999   6.040  24.828  0.00  0.00     0.167 HD
ENDBRANCH  24  26
ENDBRANCH   1  24
BRANCH   7  28
HETATM   28  O   UNL     1       2.081   2.633  22.945  0.00  0.00    -0.358 OA
HETATM   29  H   UNL     1       1.508   3.129  23.568  0.00  0.00     0.217 HD
ENDBRANCH   7  28
TORSDOF 6
ENDMDL
MODEL 3
REMARK VINA RESULT:    -6.873      5.419      7.154
REMARK INTER + INTRA:         -10.162
REMARK INTER:                  -8.938
REMARK INTRA:                  -1.224
REMARK UNBOUND:                -1.482
REMARK  6 active torsions:
REMARK  status: ('A' for Active; 'I' for Inactive)
REMARK    1  A    between atoms: O_1  and  C_2 
REMARK    2  A    between atoms: C_2  and  C_4 
REMARK    3  A    between atoms: C_6  and  C_7 
REMARK    4  A    between atoms: N_13  and  C_14 
REMARK    5  A    between atoms: C_21  and  O_22 
REMARK    6  A    between atoms: C_25  and  O_26 
ROOT
HETATM    1  C   UNL     1       3.110   9.310  24.014  0.00  0.00     0.073 C 
HETATM    2  C   UNL     1       2.176   9.711  24.987  0.00  0.00     0.039 C 
HETATM    3  C   UNL     1       1.415   8.777  25.708  0.00  0.00     0.048 C 
HETATM    4  C   UNL     1       1.555   7.421  25.383  0.00  0.00     0.100 C 
HETATM    5  C   UNL     1       2.578   7.002  24.521  0.00  0.00     0.079 C 
HETATM    6 BR   UNL     1       2.905   5.147  24.234  0.00  0.00    -0.045 Br
HETATM    7  C   UNL     1       3.349   7.945  23.834  0.00  0.00     0.102 C 
ENDROOT
BRANCH   3   8
HETATM    8  C   UNL     1       0.443   9.319  26.698  0.00  0.00     0.172 A 
HETATM    9  N   UNL     1       0.309   8.765  27.876  0.00  0.00    -0.151 NA
HETATM   10  N   UNL     1      -0.563   9.575  28.543  0.00  0.00    -0.226 N 
HETATM   11  H   UNL     1      -0.892   9.376  29.478  0.00  0.00     0.194 HD
HETATM   12  C   UNL     1      -0.963  10.641  27.748  0.00  0.00     0.349 A 
HETATM   13  O   UNL     1      -1.744  11.518  28.082  0.00  0.00    -0.245 OA
HETATM   14  N   UNL     1      -0.315  10.454  26.541  0.00  0.00    -0.241 N 
BRANCH  14  15
HETATM   15  C   UNL     1      -0.568  11.248  25.409  0.00  0.00     0.084 A 
HETATM   16  C   UNL     1       0.099  12.475  25.275  0.00  0.00     0.033 A 
HETATM   17  C   UNL     1       0.005  13.200  24.085  0.00  0.00     0.002 A 
HETATM   18  C   UNL     1      -0.808  12.742  23.047  0.00  0.00     0.003 A 
HETATM   19  C   UNL     1      -1.534  11.563  23.202  0.00  0.00     0.044 A 
HETATM   20  C   UNL     1      -1.403  10.818  24.372  0.00  0.00     0.143 A 
HETATM   21  F   UNL     1      -2.106   9.683  24.496  0.00  0.00    -0.204 F 
ENDBRANCH  14  15
ENDBRANCH   3   8
BRANCH   4  22
HETATM   22  O   UNL     1       0.668   6.463  25.797  0.00  0.00    -0.358 OA
HETATM   23  H   UNL     1       0.009   6.861  26.393  0.00  0.00     0.217 HD
ENDBRANCH   4  22
BRANCH   1  24
HETATM   24  C   UNL     1       3.755  10.377  23.199  0.00  0.00     0.179 C 
HETATM   25  O   UNL     1       3.910  11.514  23.620  0.00  0.00    -0.646 OA
BRANCH  24  26
HETATM   26  O   UNL     1       4.104  10.027  21.943  0.00  0.00    -0.773 OA
HETATM   27  H   UNL     1       3.700   9.179  21.656  0.00  0.00     0.167 HD
ENDBRANCH  24  26
ENDBRANCH   1  24
BRANCH   7  28
HETATM   28  O   UNL     1       4.316   7.535  22.945  0.00  0.00    -0.358 OA
HETATM   29  H   UNL     1       3.861   7.287  22.112  0.00  0.00     0.217 HD
ENDBRANCH   7  28
TORSDOF 6
ENDMDL
MODEL 4
REMARK VINA RESULT:    -6.865      6.392      7.565
REMARK INTER + INTRA:         -10.153
REMARK INTER:                  -8.839
REMARK INTRA:                  -1.314
REMARK UNBOUND:                -1.482
REMARK  6 active torsions:
REMARK  status: ('A' for Active; 'I' for Inactive)
REMARK    1  A    between atoms: O_1  and  C_2 
REMARK    2  A    between atoms: C_2  and  C_4 
REMARK    3  A    between atoms: C_6  and  C_7 
REMARK    4  A    between atoms: N_13  and  C_14 
REMARK    5  A    between atoms: C_21  and  O_22 
REMARK    6  A    between atoms: C_25  and  O_26 
ROOT
HETATM    1  C   UNL     1      -1.105  10.865  24.624  0.00  0.00     0.073 C 
HETATM    2  C   UNL     1      -1.150   9.576  25.187  0.00  0.00     0.039 C 
HETATM    3  C   UNL     1       0.016   8.828  25.412  0.00  0.00     0.048 C 
HETATM    4  C   UNL     1       1.238   9.370  24.992  0.00  0.00     0.100 C 
HETATM    5  C   UNL     1       1.311  10.703  24.563  0.00  0.00     0.079 C 
HETATM    6 BR   UNL     1       2.995  11.510  24.186  0.00  0.00    -0.045 Br
HETATM    7  C   UNL     1       0.141  11.446  24.374  0.00  0.00     0.102 C 
ENDROOT
BRANCH   3   8
HETATM    8  C   UNL     1      -0.156   7.468  25.994  0.00  0.00     0.172 A 
HETATM    9  N   UNL     1      -0.807   6.538  25.341  0.00  0.00    -0.151 NA
HETATM   10  N   UNL     1      -0.671   5.417  26.107  0.00  0.00    -0.226 N 
HETATM   11  H   UNL     1      -1.108   4.536  25.872  0.00  0.00     0.194 HD
HETATM   12  C   UNL     1       0.078   5.678  27.246  0.00  0.00     0.349 A 
HETATM   13  O   UNL     1       0.351   4.864  28.114  0.00  0.00    -0.245 OA
HETATM   14  N   UNL     1       0.392   7.022  27.172  0.00  0.00    -0.241 N 
BRANCH  14  15
HETATM   15  C   UNL     1       1.027   7.716  28.217  0.00  0.00     0.084 A 
HETATM   16  C   UNL     1       0.242   8.310  29.216  0.00  0.00     0.033 A 
HETATM   17  C   UNL     1       0.843   8.851  30.355  0.00  0.00     0.002 A 
HETATM   18  C   UNL     1       2.233   8.865  30.474  0.00  0.00     0.003 A 
HETATM   19  C   UNL     1       3.024   8.345  29.450  0.00  0.00     0.044 A 
HETATM   20  C   UNL     1       2.419   7.765  28.336  0.00  0.00     0.143 A 
HETATM   21  F   UNL     1       3.200   7.265  27.367  0.00  0.00    -0.204 F 
ENDBRANCH  14  15
ENDBRANCH   3   8
BRANCH   4  22
HETATM   22  O   UNL     1       2.383   8.626  24.885  0.00  0.00    -0.358 OA
HETATM   23  H   UNL     1       2.630   8.537  23.948  0.00  0.00     0.217 HD
ENDBRANCH   4  22
BRANCH   1  24
HETATM   24  C   UNL     1      -2.403  11.512  24.285  0.00  0.00     0.179 C 
HETATM   25  O   UNL     1      -2.483  12.433  23.487  0.00  0.00    -0.646 OA
BRANCH  24  26
HETATM   26  O   UNL     1      -3.480  11.058  24.962  0.00  0.00    -0.773 OA
HETATM   27  H   UNL     1      -4.171  11.745  25.087  0.00  0.00     0.167 HD
ENDBRANCH  24  26
ENDBRANCH   1  24
BRANCH   7  28
HETATM   28  O   UNL     1       0.207  12.735  23.899  0.00  0.00    -0.358 OA
HETATM   29  H   UNL     1      -0.306  13.300  24.517  0.00  0.00     0.217 HD
ENDBRANCH   7  28
TORSDOF 6
ENDMDL
MODEL 5
REMARK VINA RESULT:    -6.731      3.190      4.939
REMARK INTER + INTRA:          -9.984
REMARK INTER:                  -9.304
REMARK INTRA:                  -0.680
REMARK UNBOUND:                -1.482
REMARK  6 active torsions:
REMARK  status: ('A' for Active; 'I' for Inactive)
REMARK    1  A    between atoms: O_1  and  C_2 
REMARK    2  A    between atoms: C_2  and  C_4 
REMARK    3  A    between atoms: C_6  and  C_7 
REMARK    4  A    between atoms: N_13  and  C_14 
REMARK    5  A    between atoms: C_21  and  O_22 
REMARK    6  A    between atoms: C_25  and  O_26 
ROOT
HETATM    1  C   UNL     1       2.372   4.255  20.895  0.00  0.00     0.073 C 
HETATM    2  C   UNL     1       3.307   5.216  20.466  0.00  0.00     0.039 C 
HETATM    3  C   UNL     1       4.528   5.407  21.133  0.00  0.00     0.048 C 
HETATM    4  C   UNL     1       4.769   4.659  22.293  0.00  0.00     0.100 C 
HETATM    5  C   UNL     1       3.915   3.606  22.646  0.00  0.00     0.079 C 
HETATM    6 BR   UNL     1       4.345   2.456  24.104  0.00  0.00    -0.045 Br
HETATM    7  C   UNL     1       2.716   3.409  21.953  0.00  0.00     0.102 C 
ENDROOT
BRANCH   3   8
HETATM    8  C   UNL     1       5.428   6.467  20.600  0.00  0.00     0.172 A 
HETATM    9  N   UNL     1       6.602   6.681  21.139  0.00  0.00    -0.151 NA
HETATM   10  N   UNL     1       7.183   7.622  20.341  0.00  0.00    -0.226 N 
HETATM   11  H   UNL     1       8.093   8.020  20.534  0.00  0.00     0.194 HD
HETATM   12  C   UNL     1       6.341   7.983  19.298  0.00  0.00     0.349 A 
HETATM   13  O   UNL     1       6.597   8.810  18.437  0.00  0.00    -0.245 OA
HETATM   14  N   UNL     1       5.192   7.238  19.488  0.00  0.00    -0.241 N 
BRANCH  14  15
HETATM   15  C   UNL     1       4.030   7.419  18.718  0.00  0.00     0.084 A 
HETATM   16  C   UNL     1       3.209   8.528  18.976  0.00  0.00     0.033 A 
HETATM   17  C   UNL     1       2.148   8.832  18.119  0.00  0.00     0.002 A 
HETATM   18  C   UNL     1       1.858   7.997  17.040  0.00  0.00     0.003 A 
HETATM   19  C   UNL     1       2.621   6.852  16.822  0.00  0.00     0.044 A 
HETATM   20  C   UNL     1       3.706   6.576  17.652  0.00  0.00     0.143 A 
HETATM   21  F   UNL     1       4.431   5.472  17.419  0.00  0.00    -0.204 F 
ENDBRANCH  14  15
ENDBRANCH   3   8
BRANCH   4  22
HETATM   22  O   UNL     1       5.768   4.965  23.178  0.00  0.00    -0.358 OA
HETATM   23  H   UNL     1       5.400   5.038  24.076  0.00  0.00     0.217 HD
ENDBRANCH   4  22
BRANCH   1  24
HETATM   24  C   UNL     1       1.047   4.235  20.216  0.00  0.00     0.179 C 
HETATM   25  O   UNL     1       0.493   3.194  19.900  0.00  0.00    -0.646 OA
BRANCH  24  26
HETATM   26  O   UNL     1       0.522   5.443  19.918  0.00  0.00    -0.773 OA
HETATM   27  H   UNL     1       1.019   5.913  19.214  0.00  0.00     0.167 HD
ENDBRANCH  24  26
ENDBRANCH   1  24
BRANCH   7  28
HETATM   28  O   UNL     1       1.850   2.411  22.334  0.00  0.00    -0.358 OA
HETATM   29  H   UNL     1       1.308   2.760  23.074  0.00  0.00     0.217 HD
ENDBRANCH   7  28
TORSDOF 6
ENDMDL
MODEL 6
REMARK VINA RESULT:    -6.696      5.477      7.462
REMARK INTER + INTRA:          -9.939
REMARK INTER:                  -8.689
REMARK INTRA:                  -1.250
REMARK UNBOUND:                -1.482
REMARK  6 active torsions:
REMARK  status: ('A' for Active; 'I' for Inactive)
REMARK    1  A    between atoms: O_1  and  C_2 
REMARK    2  A    between atoms: C_2  and  C_4 
REMARK    3  A    between atoms: C_6  and  C_7 
REMARK    4  A    between atoms: N_13  and  C_14 
REMARK    5  A    between atoms: C_21  and  O_22 
REMARK    6  A    between atoms: C_25  and  O_26 
ROOT
HETATM    1  C   UNL     1       2.537   7.282  23.929  0.00  0.00     0.073 C 
HETATM    2  C   UNL     1       1.640   7.775  24.895  0.00  0.00     0.039 C 
HETATM    3  C   UNL     1       1.667   9.116  25.309  0.00  0.00     0.048 C 
HETATM    4  C   UNL     1       2.666   9.948  24.786  0.00  0.00     0.100 C 
HETATM    5  C   UNL     1       3.469   9.508  23.725  0.00  0.00     0.079 C 
HETATM    6 BR   UNL     1       4.688  10.700  22.873  0.00  0.00    -0.045 Br
HETATM    7  C   UNL     1       3.409   8.176  23.302  0.00  0.00     0.102 C 
ENDROOT
BRANCH   3   8
HETATM    8  C   UNL     1       0.682   9.519  26.352  0.00  0.00     0.172 A 
HETATM    9  N   UNL     1       0.662   8.924  27.518  0.00  0.00    -0.151 NA
HETATM   10  N   UNL     1      -0.268   9.612  28.242  0.00  0.00    -0.226 N 
HETATM   11  H   UNL     1      -0.532   9.353  29.183  0.00  0.00     0.194 HD
HETATM   12  C   UNL     1      -0.819  10.644  27.495  0.00  0.00     0.349 A 
HETATM   13  O   UNL     1      -1.680  11.417  27.885  0.00  0.00    -0.245 OA
HETATM   14  N   UNL     1      -0.206  10.563  26.258  0.00  0.00    -0.241 N 
BRANCH  14  15
HETATM   15  C   UNL     1      -0.595  11.350  25.161  0.00  0.00     0.084 A 
HETATM   16  C   UNL     1       0.030  12.589  24.956  0.00  0.00     0.033 A 
HETATM   17  C   UNL     1      -0.207  13.310  23.783  0.00  0.00     0.002 A 
HETATM   18  C   UNL     1      -1.118  12.836  22.840  0.00  0.00     0.003 A 
HETATM   19  C   UNL     1      -1.801  11.643  23.071  0.00  0.00     0.044 A 
HETATM   20  C   UNL     1      -1.529  10.903  24.220  0.00  0.00     0.143 A 
HETATM   21  F   UNL     1      -2.193   9.755  24.419  0.00  0.00    -0.204 F 
ENDBRANCH  14  15
ENDBRANCH   3   8
BRANCH   4  22
HETATM   22  O   UNL     1       2.974  11.167  25.328  0.00  0.00    -0.358 OA
HETATM   23  H   UNL     1       3.622  11.624  24.762  0.00  0.00     0.217 HD
ENDBRANCH   4  22
BRANCH   1  24
HETATM   24  C   UNL     1       2.529   5.815  23.670  0.00  0.00     0.179 C 
HETATM   25  O   UNL     1       2.926   5.006  24.493  0.00  0.00    -0.646 OA
BRANCH  24  26
HETATM   26  O   UNL     1       2.110   5.438  22.443  0.00  0.00    -0.773 OA
HETATM   27  H   UNL     1       1.238   4.986  22.458  0.00  0.00     0.167 HD
ENDBRANCH  24  26
ENDBRANCH   1  24
BRANCH   7  28
HETATM   28  O   UNL     1       4.236   7.729  22.299  0.00  0.00    -0.358 OA
HETATM   29  H   UNL     1       4.055   8.275  21.504  0.00  0.00     0.217 HD
ENDBRANCH   7  28
TORSDOF 6
ENDMDL
MODEL 7
REMARK VINA RESULT:    -6.668      2.597      3.565
REMARK INTER + INTRA:          -9.904
REMARK INTER:                  -8.590
REMARK INTRA:                  -1.314
REMARK UNBOUND:                -1.482
REMARK  6 active torsions:
REMARK  status: ('A' for Active; 'I' for Inactive)
REMARK    1  A    between atoms: O_1  and  C_2 
REMARK    2  A    between atoms: C_2  and  C_4 
REMARK    3  A    between atoms: C_6  and  C_7 
REMARK    4  A    between atoms: N_13  and  C_14 
REMARK    5  A    between atoms: C_21  and  O_22 
REMARK    6  A    between atoms: C_25  and  O_26 
ROOT
HETATM    1  C   UNL     1       5.421   7.296  20.115  0.00  0.00     0.073 C 
HETATM    2  C   UNL     1       5.499   6.983  21.485  0.00  0.00     0.039 C 
HETATM    3  C   UNL     1       4.454   6.321  22.150  0.00  0.00     0.048 C 
HETATM    4  C   UNL     1       3.287   6.038  21.428  0.00  0.00     0.100 C 
HETATM    5  C   UNL     1       3.254   6.216  20.038  0.00  0.00     0.079 C 
HETATM    6 BR   UNL     1       1.746   5.645  19.023  0.00  0.00    -0.045 Br
HETATM    7  C   UNL     1       4.316   6.850  19.384  0.00  0.00     0.102 C 
ENDROOT
BRANCH   3   8
HETATM    8  C   UNL     1       4.640   6.060  23.604  0.00  0.00     0.172 A 
HETATM    9  N   UNL     1       5.479   5.144  24.018  0.00  0.00    -0.151 NA
HETATM   10  N   UNL     1       5.474   5.258  25.377  0.00  0.00    -0.226 N 
HETATM   11  H   UNL     1       6.006   4.645  25.982  0.00  0.00     0.194 HD
HETATM   12  C   UNL     1       4.615   6.266  25.791  0.00  0.00     0.349 A 
HETATM   13  O   UNL     1       4.405   6.584  26.951  0.00  0.00    -0.245 OA
HETATM   14  N   UNL     1       4.062   6.770  24.629  0.00  0.00    -0.241 N 
BRANCH  14  15
HETATM   15  C   UNL     1       3.024   7.717  24.626  0.00  0.00     0.084 A 
HETATM   16  C   UNL     1       1.725   7.306  24.964  0.00  0.00     0.033 A 
HETATM   17  C   UNL     1       0.712   8.251  25.141  0.00  0.00     0.002 A 
HETATM   18  C   UNL     1       0.969   9.604  24.917  0.00  0.00     0.003 A 
HETATM   19  C   UNL     1       2.237  10.013  24.507  0.00  0.00     0.044 A 
HETATM   20  C   UNL     1       3.257   9.073  24.374  0.00  0.00     0.143 A 
HETATM   21  F   UNL     1       4.470   9.490  23.985  0.00  0.00    -0.204 F 
ENDBRANCH  14  15
ENDBRANCH   3   8
BRANCH   4  22
HETATM   22  O   UNL     1       2.112   5.675  22.030  0.00  0.00    -0.358 OA
HETATM   23  H   UNL     1       1.499   5.317  21.365  0.00  0.00     0.217 HD
ENDBRANCH   4  22
BRANCH   1  24
HETATM   24  C   UNL     1       6.511   8.132  19.538  0.00  0.00     0.179 C 
HETATM   25  O   UNL     1       6.338   8.847  18.563  0.00  0.00    -0.646 OA
BRANCH  24  26
HETATM   26  O   UNL     1       7.720   8.006  20.125  0.00  0.00    -0.773 OA
HETATM   27  H   UNL     1       8.349   8.714  19.862  0.00  0.00     0.167 HD
ENDBRANCH  24  26
ENDBRANCH   1  24
BRANCH   7  28
HETATM   28  O   UNL     1       4.261   7.076  18.028  0.00  0.00    -0.358 OA
HETATM   29  H   UNL     1       4.669   7.953  17.862  0.00  0.00     0.217 HD
ENDBRANCH   7  28
TORSDOF 6
ENDMDL
MODEL 8
REMARK VINA RESULT:    -6.625      3.335      5.498
REMARK INTER + INTRA:          -9.850
REMARK INTER:                  -8.528
REMARK INTRA:                  -1.322
REMARK UNBOUND:                -1.482
REMARK  6 active torsions:
REMARK  status: ('A' for Active; 'I' for Inactive)
REMARK    1  A    between atoms: O_1  and  C_2 
REMARK    2  A    between atoms: C_2  and  C_4 
REMARK    3  A    between atoms: C_6  and  C_7 
REMARK    4  A    between atoms: N_13  and  C_14 
REMARK    5  A    between atoms: C_21  and  O_22 
REMARK    6  A    between atoms: C_25  and  O_26 
ROOT
HETATM    1  C   UNL     1       4.414   7.043  20.050  0.00  0.00     0.073 C 
HETATM    2  C   UNL     1       3.706   5.829  19.970  0.00  0.00     0.039 C 
HETATM    3  C   UNL     1       2.968   5.332  21.056  0.00  0.00     0.048 C 
HETATM    4  C   UNL     1       3.009   6.045  22.262  0.00  0.00     0.100 C 
HETATM    5  C   UNL     1       3.589   7.320  22.310  0.00  0.00     0.079 C 
HETATM    6 BR   UNL     1       3.469   8.380  23.890  0.00  0.00    -0.045 Br
HETATM    7  C   UNL     1       4.296   7.814  21.209  0.00  0.00     0.102 C 
ENDROOT
BRANCH   3   8
HETATM    8  C   UNL     1       2.277   4.027  20.861  0.00  0.00     0.172 A 
HETATM    9  N   UNL     1       2.396   3.069  21.744  0.00  0.00    -0.151 NA
HETATM   10  N   UNL     1       1.556   2.087  21.306  0.00  0.00    -0.226 N 
HETATM   11  H   UNL     1       1.464   1.194  21.772  0.00  0.00     0.194 HD
HETATM   12  C   UNL     1       0.918   2.463  20.132  0.00  0.00     0.349 A 
HETATM   13  O   UNL     1       0.118   1.779  19.512  0.00  0.00    -0.245 OA
HETATM   14  N   UNL     1       1.409   3.722  19.840  0.00  0.00    -0.241 N 
BRANCH  14  15
HETATM   15  C   UNL     1       1.117   4.397  18.643  0.00  0.00     0.084 A 
HETATM   16  C   UNL     1       0.171   5.433  18.659  0.00  0.00     0.033 A 
HETATM   17  C   UNL     1      -0.011   6.236  17.530  0.00  0.00     0.002 A 
HETATM   18  C   UNL     1       0.696   5.968  16.358  0.00  0.00     0.003 A 
HETATM   19  C   UNL     1       1.581   4.892  16.310  0.00  0.00     0.044 A 
HETATM   20  C   UNL     1       1.795   4.122  17.451  0.00  0.00     0.143 A 
HETATM   21  F   UNL     1       2.656   3.096  17.384  0.00  0.00    -0.204 F 
ENDBRANCH  14  15
ENDBRANCH   3   8
BRANCH   4  22
HETATM   22  O   UNL     1       2.585   5.516  23.451  0.00  0.00    -0.358 OA
HETATM   23  H   UNL     1       1.963   4.786  23.283  0.00  0.00     0.217 HD
ENDBRANCH   4  22
BRANCH   1  24
HETATM   24  C   UNL     1       5.287   7.406  18.900  0.00  0.00     0.179 C 
HETATM   25  O   UNL     1       5.988   8.407  18.904  0.00  0.00    -0.646 OA
BRANCH  24  26
HETATM   26  O   UNL     1       5.212   6.592  17.825  0.00  0.00    -0.773 OA
HETATM   27  H   UNL     1       4.287   6.386  17.566  0.00  0.00     0.167 HD
ENDBRANCH  24  26
ENDBRANCH   1  24
BRANCH   7  28
HETATM   28  O   UNL     1       4.913   9.042  21.275  0.00  0.00    -0.358 OA
HETATM   29  H   UNL     1       4.232   9.722  21.088  0.00  0.00     0.217 HD
ENDBRANCH   7  28
TORSDOF 6
ENDMDL
MODEL 9
REMARK VINA RESULT:    -6.480      3.441      6.583
REMARK INTER + INTRA:          -9.666
REMARK INTER:                  -8.184
REMARK INTRA:                  -1.482
REMARK UNBOUND:                -1.482
REMARK  6 active torsions:
REMARK  status: ('A' for Active; 'I' for Inactive)
REMARK    1  A    between atoms: O_1  and  C_2 
REMARK    2  A    between atoms: C_2  and  C_4 
REMARK    3  A    between atoms: C_6  and  C_7 
REMARK    4  A    between atoms: N_13  and  C_14 
REMARK    5  A    between atoms: C_21  and  O_22 
REMARK    6  A    between atoms: C_25  and  O_26 
ROOT
HETATM    1  C   UNL     1       4.063   6.487  22.101  0.00  0.00     0.073 C 
HETATM    2  C   UNL     1       3.188   6.722  21.024  0.00  0.00     0.039 C 
HETATM    3  C   UNL     1       3.651   7.201  19.788  0.00  0.00     0.048 C 
HETATM    4  C   UNL     1       5.013   7.511  19.670  0.00  0.00     0.100 C 
HETATM    5  C   UNL     1       5.912   7.148  20.682  0.00  0.00     0.079 C 
HETATM    6 BR   UNL     1       7.788   7.381  20.442  0.00  0.00    -0.045 Br
HETATM    7  C   UNL     1       5.437   6.644  21.898  0.00  0.00     0.102 C 
ENDROOT
BRANCH   3   8
HETATM    8  C   UNL     1       2.630   7.431  18.730  0.00  0.00     0.172 A 
HETATM    9  N   UNL     1       2.432   8.629  18.240  0.00  0.00    -0.151 NA
HETATM   10  N   UNL     1       1.527   8.448  17.235  0.00  0.00    -0.226 N 
HETATM   11  H   UNL     1       1.149   9.213  16.693  0.00  0.00     0.194 HD
HETATM   12  C   UNL     1       1.173   7.112  17.117  0.00  0.00     0.349 A 
HETATM   13  O   UNL     1       0.376   6.660  16.309  0.00  0.00    -0.245 OA
HETATM   14  N   UNL     1       1.883   6.460  18.109  0.00  0.00    -0.241 N 
BRANCH  14  15
HETATM   15  C   UNL     1       1.692   5.102  18.417  0.00  0.00     0.084 A 
HETATM   16  C   UNL     1       2.614   4.159  17.939  0.00  0.00     0.033 A 
HETATM   17  C   UNL     1       2.552   2.832  18.373  0.00  0.00     0.002 A 
HETATM   18  C   UNL     1       1.531   2.422  19.230  0.00  0.00     0.003 A 
HETATM   19  C   UNL     1       0.565   3.337  19.649  0.00  0.00     0.044 A 
HETATM   20  C   UNL     1       0.656   4.669  19.251  0.00  0.00     0.143 A 
HETATM   21  F   UNL     1      -0.280   5.532  19.671  0.00  0.00    -0.204 F 
ENDBRANCH  14  15
ENDBRANCH   3   8
BRANCH   4  22
HETATM   22  O   UNL     1       5.518   8.251  18.634  0.00  0.00    -0.358 OA
HETATM   23  H   UNL     1       4.789   8.585  18.083  0.00  0.00     0.217 HD
ENDBRANCH   4  22
BRANCH   1  24
HETATM   24  C   UNL     1       3.457   6.127  23.413  0.00  0.00     0.179 C 
HETATM   25  O   UNL     1       4.099   5.588  24.301  0.00  0.00    -0.646 OA
BRANCH  24  26
HETATM   26  O   UNL     1       2.137   6.381  23.540  0.00  0.00    -0.773 OA
HETATM   27  H   UNL     1       1.953   7.222  24.011  0.00  0.00     0.167 HD
ENDBRANCH  24  26
ENDBRANCH   1  24
BRANCH   7  28
HETATM   28  O   UNL     1       6.314   6.341  22.913  0.00  0.00    -0.358 OA
HETATM   29  H   UNL     1       6.201   7.022  23.610  0.00  0.00     0.217 HD
ENDBRANCH   7  28
TORSDOF 6
ENDMDL
