REMARK  5 active torsions:
REMARK  status: ('A' for Active; 'I' for Inactive)
REMARK       I    between atoms: N_5  and  C_6 
REMARK    1  A    between atoms: C_6  and  C_8 
REMARK    2  A    between atoms: C_15  and  C_19 
REMARK    3  A    between atoms: C_16  and  O_18 
REMARK       I    between atoms: C_19  and  N_21 
REMARK    4  A    between atoms: N_21  and  C_23 
REMARK    5  A    between atoms: C_26  and  N_29 
ROOT
HETATM    1  C   UNL     1       0.813  -3.502  -0.004  0.00  0.00     0.157 A 
HETATM    2  N   UNL     1       1.591  -4.604   0.076  0.00  0.00    -0.168 NA
HETATM    3  N   UNL     1       0.734  -5.625   0.150  0.00  0.00    -0.277 N 
HETATM    4  H   UNL     1       1.114  -6.560   0.249  0.00  0.00     0.189 HD
HETATM    5  C   UNL     1      -0.579  -3.878   0.007  0.00  0.00     0.029 A 
HETATM    6  C   UNL     1      -0.580  -5.260   0.144  0.00  0.00     0.065 A 
HETATM    7  C   UNL     1      -1.836  -3.226  -0.038  0.00  0.00     0.036 A 
HETATM    8  C   UNL     1      -3.050  -3.947   0.154  0.00  0.00     0.066 A 
HETATM    9  C   UNL     1      -2.959  -5.324   0.385  0.00  0.00     0.083 A 
HETATM   10  C   UNL     1      -1.744  -6.016   0.299  0.00  0.00     0.069 A 
ENDROOT
BRANCH   8  11
HETATM   11  C   UNL     1      -4.281  -3.098   0.301  0.00  0.00     0.260 C 
HETATM   12  O   UNL     1      -4.064  -2.054   0.924  0.00  0.00    -0.267 OA
HETATM   13  N   UNL     1      -5.578  -3.440  -0.175  0.00  0.00    -0.318 N 
HETATM   14  C   UNL     1      -5.943  -4.747  -0.719  0.00  0.00     0.159 C 
BRANCH  13  15
HETATM   15  C   UNL     1      -6.655  -2.464  -0.079  0.00  0.00     0.037 A 
HETATM   16  C   UNL     1      -6.401  -1.095  -0.164  0.00  0.00     0.032 A 
HETATM   17  C   UNL     1      -7.420  -0.142  -0.008  0.00  0.00     0.031 A 
HETATM   18  C   UNL     1      -8.751  -0.496   0.236  0.00  0.00     0.030 A 
HETATM   19  C   UNL     1      -9.022  -1.869   0.229  0.00  0.00     0.031 A 
HETATM   20  C   UNL     1      -8.000  -2.837   0.075  0.00  0.00     0.032 A 
BRANCH  18  21
HETATM   21  N   UNL     1      -9.706   0.466   0.486  0.00  0.00    -0.377 N 
HETATM   22  C   UNL     1     -11.132   0.339   0.159  0.00  0.00     0.149 C 
HETATM   23  C   UNL     1     -11.985   0.543   1.421  0.00  0.00     0.187 C 
HETATM   24  O   UNL     1     -11.691   1.796   2.063  0.00  0.00    -0.388 OA
HETATM   25  C   UNL     1     -10.305   1.843   2.443  0.00  0.00     0.187 C 
HETATM   26  C   UNL     1      -9.373   1.697   1.228  0.00  0.00     0.149 C 
ENDBRANCH  18  21
ENDBRANCH  13  15
ENDBRANCH   8  11
BRANCH   9  27
HETATM   27  O   UNL     1      -3.999  -6.098   0.820  0.00  0.00    -0.360 OA
HETATM   28  H   UNL     1      -4.523  -5.554   1.436  0.00  0.00     0.217 HD
ENDBRANCH   9  27
BRANCH   1  29
HETATM   29  C   UNL     1       1.382  -2.126  -0.003  0.00  0.00     0.275 C 
HETATM   30  N   UNL     1       2.720  -1.948  -0.359  0.00  0.00    -0.347 N 
HETATM   31  C   UNL     1       3.616  -2.940  -0.933  0.00  0.00     0.126 C 
HETATM   32  C   UNL     1       3.367  -0.649  -0.275  0.00  0.00     0.126 C 
HETATM   33  C   UNL     1       4.770  -2.133  -1.511  0.00  0.00     0.021 C 
HETATM   34  C   UNL     1       4.833  -0.920  -0.595  0.00  0.00     0.021 C 
HETATM   35  O   UNL     1       0.689  -1.158   0.318  0.00  0.00    -0.266 OA
ENDBRANCH   1  29
TORSDOF 5
