MODEL 1
REMARK VINA RESULT:    -8.479      0.000      0.000
REMARK INTER + INTRA:         -10.761
REMARK INTER:                  -9.868
REMARK INTRA:                  -0.893
REMARK UNBOUND:                -0.547
REMARK  4 active torsions:
REMARK  status: ('A' for Active; 'I' for Inactive)
REMARK    1  A    between atoms: N_1  and  C_2 
REMARK    2  A    between atoms: C_7  and  C_9 
REMARK       I    between atoms: C_9  and  N_11 
REMARK    3  A    between atoms: N_11  and  C_12 
REMARK    4  A    between atoms: C_24  and  C_25 
ROOT
HETATM    1  C   UNL     1       3.186   6.487  26.998  0.00  0.00     0.153 C 
HETATM    2  C   UNL     1       3.567   7.000  25.622  0.00  0.00    -0.020 A 
HETATM    3  C   UNL     1       4.553   6.510  24.770  0.00  0.00     0.010 A 
HETATM    4  C   UNL     1       4.597   6.979  23.458  0.00  0.00     0.001 A 
HETATM    5  C   UNL     1       3.645   7.893  23.006  0.00  0.00     0.001 A 
HETATM    6  C   UNL     1       2.657   8.381  23.871  0.00  0.00     0.013 A 
HETATM    7  C   UNL     1       2.628   7.974  25.198  0.00  0.00    -0.016 A 
HETATM    8  C   UNL     1       1.744   8.322  26.322  0.00  0.00    -0.003 A 
HETATM    9  C   UNL     1       2.128   7.492  27.424  0.00  0.00    -0.019 A 
HETATM   10  C   UNL     1       1.487   7.536  28.652  0.00  0.00     0.010 A 
HETATM   11  C   UNL     1       0.439   8.433  28.807  0.00  0.00     0.002 A 
HETATM   12  C   UNL     1       0.044   9.261  27.742  0.00  0.00     0.016 A 
HETATM   13  C   UNL     1       0.682   9.232  26.478  0.00  0.00     0.022 A 
ENDROOT
BRANCH   1  14
HETATM   14  N   UNL     1       4.271   6.250  27.932  0.00  0.00    -0.343 N 
HETATM   15  C   UNL     1       4.204   5.120  28.737  0.00  0.00     0.273 C 
HETATM   16  O   UNL     1       3.316   4.289  28.564  0.00  0.00    -0.266 OA
HETATM   17  H   UNL     1       5.004   6.939  28.074  0.00  0.00     0.163 HD
BRANCH  15  18
HETATM   18  C   UNL     1       5.223   4.931  29.831  0.00  0.00     0.150 A 
HETATM   19  C   UNL     1       4.916   5.244  31.150  0.00  0.00     0.086 A 
HETATM   20  C   UNL     1       5.924   4.998  32.050  0.00  0.00     0.146 A 
HETATM   21 CL   UNL     1       3.459   5.916  31.764  0.00  0.00    -0.080 Cl
HETATM   22  N   UNL     1       7.135   4.518  31.709  0.00  0.00    -0.229 NA
HETATM   23  C   UNL     1       7.352   4.289  30.411  0.00  0.00     0.199 A 
HETATM   24  N   UNL     1       6.441   4.450  29.440  0.00  0.00    -0.211 NA
BRANCH  23  25
HETATM   25  N   UNL     1       8.609   3.837  30.089  0.00  0.00    -0.271 NA
HETATM   26  H   UNL     1       8.539   2.987  29.544  0.00  0.00     0.127 HD
HETATM   27  H   UNL     1       9.204   4.571  29.738  0.00  0.00     0.127 HD
ENDBRANCH  23  25
ENDBRANCH  15  18
ENDBRANCH   1  14
BRANCH  13  28
HETATM   28  C   UNL     1       0.211  10.158  25.434  0.00  0.00     0.140 A 
HETATM   29  N   UNL     1       0.941  11.037  24.771  0.00  0.00    -0.227 NA
HETATM   30  C   UNL     1       0.117  11.633  23.849  0.00  0.00     0.103 A 
HETATM   31  C   UNL     1       0.404  12.553  22.838  0.00  0.00     0.150 A 
HETATM   32  C   UNL     1      -1.189  11.196  24.011  0.00  0.00     0.065 A 
HETATM   33  N   UNL     1      -0.594  13.037  22.051  0.00  0.00    -0.271 NA
HETATM   34  C   UNL     1      -1.861  12.610  22.274  0.00  0.00     0.118 A 
HETATM   35  C   UNL     1      -2.240  11.681  23.237  0.00  0.00     0.051 A 
HETATM   36  N   UNL     1      -1.106  10.263  25.018  0.00  0.00    -0.338 N 
HETATM   37  H   UNL     1      -1.872   9.707  25.366  0.00  0.00     0.167 HD
ENDBRANCH  13  28
TORSDOF 4
ENDMDL
MODEL 2
REMARK VINA RESULT:    -8.419      0.365      1.011
REMARK INTER + INTRA:         -10.688
REMARK INTER:                  -9.767
REMARK INTRA:                  -0.921
REMARK UNBOUND:                -0.547
REMARK  4 active torsions:
REMARK  status: ('A' for Active; 'I' for Inactive)
REMARK    1  A    between atoms: N_1  and  C_2 
REMARK    2  A    between atoms: C_7  and  C_9 
REMARK       I    between atoms: C_9  and  N_11 
REMARK    3  A    between atoms: N_11  and  C_12 
REMARK    4  A    between atoms: C_24  and  C_25 
ROOT
HETATM    1  C   UNL     1       3.140   6.365  27.045  0.00  0.00     0.153 C 
HETATM    2  C   UNL     1       3.506   6.831  25.649  0.00  0.00    -0.020 A 
HETATM    3  C   UNL     1       4.480   6.311  24.802  0.00  0.00     0.010 A 
HETATM    4  C   UNL     1       4.511   6.737  23.475  0.00  0.00     0.001 A 
HETATM    5  C   UNL     1       3.557   7.641  23.005  0.00  0.00     0.001 A 
HETATM    6  C   UNL     1       2.582   8.161  23.866  0.00  0.00     0.013 A 
HETATM    7  C   UNL     1       2.567   7.797  25.206  0.00  0.00    -0.016 A 
HETATM    8  C   UNL     1       1.698   8.184  26.328  0.00  0.00    -0.003 A 
HETATM    9  C   UNL     1       2.092   7.387  27.452  0.00  0.00    -0.019 A 
HETATM   10  C   UNL     1       1.465   7.473  28.686  0.00  0.00     0.010 A 
HETATM   11  C   UNL     1       0.423   8.379  28.824  0.00  0.00     0.002 A 
HETATM   12  C   UNL     1       0.019   9.176  27.738  0.00  0.00     0.016 A 
HETATM   13  C   UNL     1       0.642   9.103  26.468  0.00  0.00     0.022 A 
ENDROOT
BRANCH   1  14
HETATM   14  N   UNL     1       4.234   6.152  27.974  0.00  0.00    -0.343 N 
HETATM   15  C   UNL     1       4.217   5.001  28.751  0.00  0.00     0.273 C 
HETATM   16  O   UNL     1       3.366   4.137  28.558  0.00  0.00    -0.266 OA
HETATM   17  H   UNL     1       4.938   6.868  28.132  0.00  0.00     0.163 HD
BRANCH  15  18
HETATM   18  C   UNL     1       5.244   4.830  29.841  0.00  0.00     0.150 A 
HETATM   19  C   UNL     1       4.954   5.183  31.153  0.00  0.00     0.086 A 
HETATM   20  C   UNL     1       5.967   4.949  32.050  0.00  0.00     0.146 A 
HETATM   21 CL   UNL     1       3.510   5.888  31.762  0.00  0.00    -0.080 Cl
HETATM   22  N   UNL     1       7.169   4.445  31.711  0.00  0.00    -0.229 NA
HETATM   23  C   UNL     1       7.371   4.178  30.418  0.00  0.00     0.199 A 
HETATM   24  N   UNL     1       6.452   4.323  29.451  0.00  0.00    -0.211 NA
BRANCH  23  25
HETATM   25  N   UNL     1       8.620   3.702  30.097  0.00  0.00    -0.271 NA
HETATM   26  H   UNL     1       8.682   3.545  29.099  0.00  0.00     0.127 HD
HETATM   27  H   UNL     1       9.357   4.232  30.535  0.00  0.00     0.127 HD
ENDBRANCH  23  25
ENDBRANCH  15  18
ENDBRANCH   1  14
BRANCH  13  28
HETATM   28  C   UNL     1       0.162   9.998  25.401  0.00  0.00     0.140 A 
HETATM   29  N   UNL     1      -1.068  10.067  24.923  0.00  0.00    -0.227 NA
HETATM   30  C   UNL     1      -1.085  11.080  23.997  0.00  0.00     0.103 A 
HETATM   31  C   UNL     1      -2.146  11.630  23.275  0.00  0.00     0.150 A 
HETATM   32  C   UNL     1       0.192  11.588  23.810  0.00  0.00     0.065 A 
HETATM   33  N   UNL     1      -1.918  12.625  22.375  0.00  0.00    -0.271 NA
HETATM   34  C   UNL     1      -0.648  13.061  22.198  0.00  0.00     0.118 A 
HETATM   35  C   UNL     1       0.468  12.593  22.887  0.00  0.00     0.051 A 
HETATM   36  N   UNL     1       0.964  10.890  24.709  0.00  0.00    -0.338 N 
HETATM   37  H   UNL     1       1.948  11.036  24.874  0.00  0.00     0.167 HD
ENDBRANCH  13  28
TORSDOF 4
ENDMDL
MODEL 3
REMARK VINA RESULT:    -7.836      2.394      9.653
REMARK INTER + INTRA:          -9.986
REMARK INTER:                  -9.227
REMARK INTRA:                  -0.758
REMARK UNBOUND:                -0.547
REMARK  4 active torsions:
REMARK  status: ('A' for Active; 'I' for Inactive)
REMARK    1  A    between atoms: N_1  and  C_2 
REMARK    2  A    between atoms: C_7  and  C_9 
REMARK       I    between atoms: C_9  and  N_11 
REMARK    3  A    between atoms: N_11  and  C_12 
REMARK    4  A    between atoms: C_24  and  C_25 
ROOT
HETATM    1  C   UNL     1       1.634   7.839  26.659  0.00  0.00     0.153 C 
HETATM    2  C   UNL     1       1.700   7.791  28.174  0.00  0.00    -0.020 A 
HETATM    3  C   UNL     1       0.759   8.262  29.085  0.00  0.00     0.010 A 
HETATM    4  C   UNL     1       0.903   7.923  30.431  0.00  0.00     0.001 A 
HETATM    5  C   UNL     1       1.951   7.098  30.839  0.00  0.00     0.001 A 
HETATM    6  C   UNL     1       2.893   6.631  29.914  0.00  0.00     0.013 A 
HETATM    7  C   UNL     1       2.806   7.002  28.579  0.00  0.00    -0.016 A 
HETATM    8  C   UNL     1       3.641   6.692  27.408  0.00  0.00    -0.003 A 
HETATM    9  C   UNL     1       2.984   7.261  26.269  0.00  0.00    -0.019 A 
HETATM   10  C   UNL     1       3.484   7.142  24.981  0.00  0.00     0.010 A 
HETATM   11  C   UNL     1       4.674   6.450  24.807  0.00  0.00     0.002 A 
HETATM   12  C   UNL     1       5.340   5.884  25.908  0.00  0.00     0.016 A 
HETATM   13  C   UNL     1       4.847   5.990  27.232  0.00  0.00     0.022 A 
ENDROOT
BRANCH   1  14
HETATM   14  N   UNL     1       1.273   9.110  26.059  0.00  0.00    -0.343 N 
HETATM   15  C   UNL     1       0.435   9.095  24.951  0.00  0.00     0.273 C 
HETATM   16  O   UNL     1      -0.080   8.044  24.579  0.00  0.00    -0.266 OA
HETATM   17  H   UNL     1       1.701   9.979  26.367  0.00  0.00     0.163 HD
BRANCH  15  18
HETATM   18  C   UNL     1       0.176  10.377  24.203  0.00  0.00     0.150 A 
HETATM   19  C   UNL     1       1.228  11.125  23.688  0.00  0.00     0.086 A 
HETATM   20  C   UNL     1       0.851  12.255  23.004  0.00  0.00     0.146 A 
HETATM   21 CL   UNL     1       2.912  10.816  23.830  0.00  0.00    -0.080 Cl
HETATM   22  N   UNL     1      -0.427  12.650  22.852  0.00  0.00    -0.229 NA
HETATM   23  C   UNL     1      -1.367  11.890  23.421  0.00  0.00     0.199 A 
HETATM   24  N   UNL     1      -1.135  10.744  24.079  0.00  0.00    -0.211 NA
BRANCH  23  25
HETATM   25  N   UNL     1      -2.659  12.339  23.281  0.00  0.00    -0.271 NA
HETATM   26  H   UNL     1      -3.012  12.653  24.177  0.00  0.00     0.127 HD
HETATM   27  H   UNL     1      -2.767  12.956  22.492  0.00  0.00     0.127 HD
ENDBRANCH  23  25
ENDBRANCH  15  18
ENDBRANCH   1  14
BRANCH  13  28
HETATM   28  C   UNL     1       5.632   5.385  28.321  0.00  0.00     0.140 A 
HETATM   29  N   UNL     1       6.906   5.606  28.593  0.00  0.00    -0.227 NA
HETATM   30  C   UNL     1       7.207   4.895  29.728  0.00  0.00     0.103 A 
HETATM   31  C   UNL     1       8.376   4.856  30.490  0.00  0.00     0.150 A 
HETATM   32  C   UNL     1       6.123   4.122  30.117  0.00  0.00     0.065 A 
HETATM   33  N   UNL     1       8.457   4.041  31.576  0.00  0.00    -0.271 NA
HETATM   34  C   UNL     1       7.386   3.275  31.894  0.00  0.00     0.118 A 
HETATM   35  C   UNL     1       6.173   3.263  31.212  0.00  0.00     0.051 A 
HETATM   36  N   UNL     1       5.138   4.449  29.215  0.00  0.00    -0.338 N 
HETATM   37  H   UNL     1       4.192   4.100  29.228  0.00  0.00     0.167 HD
ENDBRANCH  13  28
TORSDOF 4
ENDMDL
MODEL 4
REMARK VINA RESULT:    -7.549      2.527      9.353
REMARK INTER + INTRA:          -9.641
REMARK INTER:                  -9.484
REMARK INTRA:                  -0.156
REMARK UNBOUND:                -0.547
REMARK  4 active torsions:
REMARK  status: ('A' for Active; 'I' for Inactive)
REMARK    1  A    between atoms: N_1  and  C_2 
REMARK    2  A    between atoms: C_7  and  C_9 
REMARK       I    between atoms: C_9  and  N_11 
REMARK    3  A    between atoms: N_11  and  C_12 
REMARK    4  A    between atoms: C_24  and  C_25 
ROOT
HETATM    1  C   UNL     1       1.512   7.161  24.497  0.00  0.00     0.153 C 
HETATM    2  C   UNL     1       1.097   6.878  25.928  0.00  0.00    -0.020 A 
HETATM    3  C   UNL     1      -0.181   6.946  26.476  0.00  0.00     0.010 A 
HETATM    4  C   UNL     1      -0.388   6.432  27.756  0.00  0.00     0.001 A 
HETATM    5  C   UNL     1       0.663   5.833  28.451  0.00  0.00     0.001 A 
HETATM    6  C   UNL     1       1.946   5.772  27.892  0.00  0.00     0.013 A 
HETATM    7  C   UNL     1       2.191   6.328  26.643  0.00  0.00    -0.016 A 
HETATM    8  C   UNL     1       3.410   6.432  25.827  0.00  0.00    -0.003 A 
HETATM    9  C   UNL     1       3.022   7.005  24.572  0.00  0.00    -0.019 A 
HETATM   10  C   UNL     1       3.922   7.228  23.542  0.00  0.00     0.010 A 
HETATM   11  C   UNL     1       5.251   6.887  23.753  0.00  0.00     0.002 A 
HETATM   12  C   UNL     1       5.659   6.327  24.976  0.00  0.00     0.016 A 
HETATM   13  C   UNL     1       4.757   6.086  26.042  0.00  0.00     0.022 A 
ENDROOT
BRANCH   1  14
HETATM   14  N   UNL     1       1.015   8.386  23.900  0.00  0.00    -0.343 N 
HETATM   15  C   UNL     1       1.241   9.580  24.573  0.00  0.00     0.273 C 
HETATM   16  O   UNL     1       1.952   9.600  25.575  0.00  0.00    -0.266 OA
HETATM   17  H   UNL     1       0.427   8.369  23.071  0.00  0.00     0.163 HD
BRANCH  15  18
HETATM   18  C   UNL     1       0.596  10.846  24.071  0.00  0.00     0.150 A 
HETATM   19  C   UNL     1       1.354  11.987  23.841  0.00  0.00     0.086 A 
HETATM   20  C   UNL     1       0.647  13.061  23.356  0.00  0.00     0.146 A 
HETATM   21 CL   UNL     1       3.036  12.210  24.112  0.00  0.00    -0.080 Cl
HETATM   22  N   UNL     1      -0.681  13.049  23.139  0.00  0.00    -0.229 NA
HETATM   23  C   UNL     1      -1.333  11.919  23.432  0.00  0.00     0.199 A 
HETATM   24  N   UNL     1      -0.755  10.791  23.871  0.00  0.00    -0.211 NA
BRANCH  23  25
HETATM   25  N   UNL     1      -2.693  11.950  23.236  0.00  0.00    -0.271 NA
HETATM   26  H   UNL     1      -2.895  12.102  22.256  0.00  0.00     0.127 HD
HETATM   27  H   UNL     1      -3.165  11.189  23.699  0.00  0.00     0.127 HD
ENDBRANCH  23  25
ENDBRANCH  15  18
ENDBRANCH   1  14
BRANCH  13  28
HETATM   28  C   UNL     1       5.287   5.519  27.293  0.00  0.00     0.140 A 
HETATM   29  N   UNL     1       5.863   4.339  27.443  0.00  0.00    -0.227 NA
HETATM   30  C   UNL     1       6.268   4.250  28.751  0.00  0.00     0.103 A 
HETATM   31  C   UNL     1       7.008   3.263  29.406  0.00  0.00     0.150 A 
HETATM   32  C   UNL     1       5.838   5.356  29.468  0.00  0.00     0.065 A 
HETATM   33  N   UNL     1       7.268   3.374  30.737  0.00  0.00    -0.271 NA
HETATM   34  C   UNL     1       6.793   4.453  31.404  0.00  0.00     0.118 A 
HETATM   35  C   UNL     1       6.070   5.497  30.834  0.00  0.00     0.051 A 
HETATM   36  N   UNL     1       5.222   6.146  28.527  0.00  0.00    -0.338 N 
HETATM   37  H   UNL     1       4.827   7.058  28.694  0.00  0.00     0.167 HD
ENDBRANCH  13  28
TORSDOF 4
ENDMDL
MODEL 5
REMARK VINA RESULT:    -6.960      3.513      9.705
REMARK INTER + INTRA:          -8.931
REMARK INTER:                  -7.870
REMARK INTRA:                  -1.062
REMARK UNBOUND:                -0.547
REMARK  4 active torsions:
REMARK  status: ('A' for Active; 'I' for Inactive)
REMARK    1  A    between atoms: N_1  and  C_2 
REMARK    2  A    between atoms: C_7  and  C_9 
REMARK       I    between atoms: C_9  and  N_11 
REMARK    3  A    between atoms: N_11  and  C_12 
REMARK    4  A    between atoms: C_24  and  C_25 
ROOT
HETATM    1  C   UNL     1       1.086  10.862  24.641  0.00  0.00     0.153 C 
HETATM    2  C   UNL     1       2.214   9.988  24.128  0.00  0.00    -0.020 A 
HETATM    3  C   UNL     1       3.010  10.191  23.004  0.00  0.00     0.010 A 
HETATM    4  C   UNL     1       4.138   9.390  22.829  0.00  0.00     0.001 A 
HETATM    5  C   UNL     1       4.473   8.430  23.784  0.00  0.00     0.001 A 
HETATM    6  C   UNL     1       3.664   8.231  24.910  0.00  0.00     0.013 A 
HETATM    7  C   UNL     1       2.505   8.976  25.078  0.00  0.00    -0.016 A 
HETATM    8  C   UNL     1       1.470   8.976  26.124  0.00  0.00    -0.003 A 
HETATM    9  C   UNL     1       0.574  10.052  25.821  0.00  0.00    -0.019 A 
HETATM   10  C   UNL     1      -0.518  10.363  26.617  0.00  0.00     0.010 A 
HETATM   11  C   UNL     1      -0.744   9.584  27.743  0.00  0.00     0.002 A 
HETATM   12  C   UNL     1       0.118   8.520  28.062  0.00  0.00     0.016 A 
HETATM   13  C   UNL     1       1.241   8.186  27.266  0.00  0.00     0.022 A 
ENDROOT
BRANCH   1  14
HETATM   14  N   UNL     1       0.097  11.293  23.671  0.00  0.00    -0.343 N 
HETATM   15  C   UNL     1      -0.215  12.645  23.611  0.00  0.00     0.273 C 
HETATM   16  O   UNL     1       0.426  13.457  24.274  0.00  0.00    -0.266 OA
HETATM   17  H   UNL     1      -0.432  10.620  23.123  0.00  0.00     0.163 HD
BRANCH  15  18
HETATM   18  C   UNL     1      -1.353  13.103  22.737  0.00  0.00     0.150 A 
HETATM   19  C   UNL     1      -1.211  13.163  21.356  0.00  0.00     0.086 A 
HETATM   20  C   UNL     1      -2.334  13.569  20.677  0.00  0.00     0.146 A 
HETATM   21 CL   UNL     1       0.191  12.817  20.424  0.00  0.00    -0.080 Cl
HETATM   22  N   UNL     1      -3.488  13.917  21.276  0.00  0.00    -0.229 NA
HETATM   23  C   UNL     1      -3.515  13.871  22.611  0.00  0.00     0.199 A 
HETATM   24  N   UNL     1      -2.504  13.455  23.387  0.00  0.00    -0.211 NA
BRANCH  23  25
HETATM   25  N   UNL     1      -4.694  14.270  23.195  0.00  0.00    -0.271 NA
HETATM   26  H   UNL     1      -4.545  15.118  23.727  0.00  0.00     0.127 HD
HETATM   27  H   UNL     1      -5.468  14.252  22.549  0.00  0.00     0.127 HD
ENDBRANCH  23  25
ENDBRANCH  15  18
ENDBRANCH   1  14
BRANCH  13  28
HETATM   28  C   UNL     1       2.069   7.037  27.670  0.00  0.00     0.140 A 
HETATM   29  N   UNL     1       2.050   5.827  27.141  0.00  0.00    -0.227 NA
HETATM   30  C   UNL     1       3.028   5.096  27.770  0.00  0.00     0.103 A 
HETATM   31  C   UNL     1       3.490   3.801  27.525  0.00  0.00     0.150 A 
HETATM   32  C   UNL     1       3.600   5.834  28.795  0.00  0.00     0.065 A 
HETATM   33  N   UNL     1       4.464   3.264  28.309  0.00  0.00    -0.271 NA
HETATM   34  C   UNL     1       4.965   4.008  29.324  0.00  0.00     0.118 A 
HETATM   35  C   UNL     1       4.586   5.312  29.629  0.00  0.00     0.051 A 
HETATM   36  N   UNL     1       2.980   7.058  28.713  0.00  0.00    -0.338 N 
HETATM   37  H   UNL     1       3.188   7.860  29.287  0.00  0.00     0.167 HD
ENDBRANCH  13  28
TORSDOF 4
ENDMDL
MODEL 6
REMARK VINA RESULT:    -6.812      5.650      8.050
REMARK INTER + INTRA:          -8.753
REMARK INTER:                  -8.206
REMARK INTRA:                  -0.547
REMARK UNBOUND:                -0.547
REMARK  4 active torsions:
REMARK  status: ('A' for Active; 'I' for Inactive)
REMARK    1  A    between atoms: N_1  and  C_2 
REMARK    2  A    between atoms: C_7  and  C_9 
REMARK       I    between atoms: C_9  and  N_11 
REMARK    3  A    between atoms: N_11  and  C_12 
REMARK    4  A    between atoms: C_24  and  C_25 
ROOT
HETATM    1  C   UNL     1       3.887   7.957  23.151  0.00  0.00     0.153 C 
HETATM    2  C   UNL     1       2.760   8.812  23.700  0.00  0.00    -0.020 A 
HETATM    3  C   UNL     1       1.425   8.457  23.873  0.00  0.00     0.010 A 
HETATM    4  C   UNL     1       0.595   9.311  24.599  0.00  0.00     0.001 A 
HETATM    5  C   UNL     1       1.110  10.477  25.166  0.00  0.00     0.001 A 
HETATM    6  C   UNL     1       2.453  10.826  24.984  0.00  0.00     0.013 A 
HETATM    7  C   UNL     1       3.286  10.023  24.217  0.00  0.00    -0.016 A 
HETATM    8  C   UNL     1       4.704  10.139  23.840  0.00  0.00    -0.003 A 
HETATM    9  C   UNL     1       5.045   8.941  23.132  0.00  0.00    -0.019 A 
HETATM   10  C   UNL     1       6.320   8.698  22.644  0.00  0.00     0.010 A 
HETATM   11  C   UNL     1       7.290   9.668  22.850  0.00  0.00     0.002 A 
HETATM   12  C   UNL     1       6.982  10.854  23.539  0.00  0.00     0.016 A 
HETATM   13  C   UNL     1       5.687  11.123  24.048  0.00  0.00     0.022 A 
ENDROOT
BRANCH   1  14
HETATM   14  N   UNL     1       3.624   7.239  21.918  0.00  0.00    -0.343 N 
HETATM   15  C   UNL     1       3.215   5.915  22.007  0.00  0.00     0.273 C 
HETATM   16  O   UNL     1       2.963   5.418  23.102  0.00  0.00    -0.266 OA
HETATM   17  H   UNL     1       3.833   7.651  21.013  0.00  0.00     0.163 HD
BRANCH  15  18
HETATM   18  C   UNL     1       3.096   5.092  20.751  0.00  0.00     0.150 A 
HETATM   19  C   UNL     1       3.845   3.933  20.586  0.00  0.00     0.086 A 
HETATM   20  C   UNL     1       3.619   3.263  19.408  0.00  0.00     0.146 A 
HETATM   21 CL   UNL     1       5.015   3.272  21.656  0.00  0.00    -0.080 Cl
HETATM   22  N   UNL     1       2.768   3.686  18.455  0.00  0.00    -0.229 NA
HETATM   23  C   UNL     1       2.126   4.835  18.683  0.00  0.00     0.199 A 
HETATM   24  N   UNL     1       2.226   5.562  19.806  0.00  0.00    -0.211 NA
BRANCH  23  25
HETATM   25  N   UNL     1       1.293   5.261  17.676  0.00  0.00    -0.271 NA
HETATM   26  H   UNL     1       1.230   6.271  17.686  0.00  0.00     0.127 HD
HETATM   27  H   UNL     1       1.495   4.813  16.796  0.00  0.00     0.127 HD
ENDBRANCH  23  25
ENDBRANCH  15  18
ENDBRANCH   1  14
BRANCH  13  28
HETATM   28  C   UNL     1       5.458  12.407  24.733  0.00  0.00     0.140 A 
HETATM   29  N   UNL     1       4.433  13.222  24.559  0.00  0.00    -0.227 NA
HETATM   30  C   UNL     1       4.584  14.258  25.447  0.00  0.00     0.103 A 
HETATM   31  C   UNL     1       3.739  15.329  25.743  0.00  0.00     0.150 A 
HETATM   32  C   UNL     1       5.792  14.147  26.119  0.00  0.00     0.065 A 
HETATM   33  N   UNL     1       4.117  16.266  26.653  0.00  0.00    -0.271 NA
HETATM   34  C   UNL     1       5.323  16.137  27.255  0.00  0.00     0.118 A 
HETATM   35  C   UNL     1       6.221  15.095  27.044  0.00  0.00     0.051 A 
HETATM   36  N   UNL     1       6.327  12.969  25.654  0.00  0.00    -0.338 N 
HETATM   37  H   UNL     1       7.191  12.554  25.966  0.00  0.00     0.167 HD
ENDBRANCH  13  28
TORSDOF 4
ENDMDL
MODEL 7
REMARK VINA RESULT:    -6.757      4.191      8.148
REMARK INTER + INTRA:          -8.686
REMARK INTER:                  -8.839
REMARK INTRA:                   0.153
REMARK UNBOUND:                -0.547
REMARK  4 active torsions:
REMARK  status: ('A' for Active; 'I' for Inactive)
REMARK    1  A    between atoms: N_1  and  C_2 
REMARK    2  A    between atoms: C_7  and  C_9 
REMARK       I    between atoms: C_9  and  N_11 
REMARK    3  A    between atoms: N_11  and  C_12 
REMARK    4  A    between atoms: C_24  and  C_25 
ROOT
HETATM    1  C   UNL     1       4.738   6.834  24.128  0.00  0.00     0.153 C 
HETATM    2  C   UNL     1       4.952   5.703  25.115  0.00  0.00    -0.020 A 
HETATM    3  C   UNL     1       5.781   4.593  24.977  0.00  0.00     0.010 A 
HETATM    4  C   UNL     1       6.006   3.783  26.090  0.00  0.00     0.001 A 
HETATM    5  C   UNL     1       5.435   4.107  27.321  0.00  0.00     0.001 A 
HETATM    6  C   UNL     1       4.601   5.224  27.449  0.00  0.00     0.013 A 
HETATM    7  C   UNL     1       4.314   6.013  26.343  0.00  0.00    -0.016 A 
HETATM    8  C   UNL     1       3.476   7.210  26.170  0.00  0.00    -0.003 A 
HETATM    9  C   UNL     1       3.665   7.657  24.822  0.00  0.00    -0.019 A 
HETATM   10  C   UNL     1       3.039   8.784  24.314  0.00  0.00     0.010 A 
HETATM   11  C   UNL     1       2.192   9.492  25.154  0.00  0.00     0.002 A 
HETATM   12  C   UNL     1       1.986   9.074  26.480  0.00  0.00     0.016 A 
HETATM   13  C   UNL     1       2.617   7.927  27.023  0.00  0.00     0.022 A 
ENDROOT
BRANCH   1  14
HETATM   14  N   UNL     1       4.482   6.462  22.749  0.00  0.00    -0.343 N 
HETATM   15  C   UNL     1       3.375   5.666  22.483  0.00  0.00     0.273 C 
HETATM   16  O   UNL     1       2.575   5.399  23.376  0.00  0.00    -0.266 OA
HETATM   17  H   UNL     1       5.144   6.683  22.012  0.00  0.00     0.163 HD
BRANCH  15  18
HETATM   18  C   UNL     1       3.174   5.123  21.092  0.00  0.00     0.150 A 
HETATM   19  C   UNL     1       3.947   4.070  20.620  0.00  0.00     0.086 A 
HETATM   20  C   UNL     1       3.641   3.653  19.348  0.00  0.00     0.146 A 
HETATM   21 CL   UNL     1       5.235   3.264  21.423  0.00  0.00    -0.080 Cl
HETATM   22  N   UNL     1       2.690   4.220  18.581  0.00  0.00    -0.229 NA
HETATM   23  C   UNL     1       2.028   5.257  19.104  0.00  0.00     0.199 A 
HETATM   24  N   UNL     1       2.204   5.733  20.345  0.00  0.00    -0.211 NA
BRANCH  23  25
HETATM   25  N   UNL     1       1.092   5.838  18.283  0.00  0.00    -0.271 NA
HETATM   26  H   UNL     1       0.684   6.643  18.743  0.00  0.00     0.127 HD
HETATM   27  H   UNL     1       1.429   5.958  17.340  0.00  0.00     0.127 HD
ENDBRANCH  23  25
ENDBRANCH  15  18
ENDBRANCH   1  14
BRANCH  13  28
HETATM   28  C   UNL     1       2.317   7.556  28.416  0.00  0.00     0.140 A 
HETATM   29  N   UNL     1       1.154   7.677  29.031  0.00  0.00    -0.227 NA
HETATM   30  C   UNL     1       1.305   7.146  30.288  0.00  0.00     0.103 A 
HETATM   31  C   UNL     1       0.368   6.935  31.302  0.00  0.00     0.150 A 
HETATM   32  C   UNL     1       2.625   6.782  30.505  0.00  0.00     0.065 A 
HETATM   33  N   UNL     1       0.758   6.414  32.496  0.00  0.00    -0.271 NA
HETATM   34  C   UNL     1       2.066   6.110  32.676  0.00  0.00     0.118 A 
HETATM   35  C   UNL     1       3.066   6.262  31.720  0.00  0.00     0.051 A 
HETATM   36  N   UNL     1       3.247   7.048  29.308  0.00  0.00    -0.338 N 
HETATM   37  H   UNL     1       4.214   6.861  29.095  0.00  0.00     0.167 HD
ENDBRANCH  13  28
TORSDOF 4
ENDMDL
MODEL 8
REMARK VINA RESULT:    -6.534      3.798      5.928
REMARK INTER + INTRA:          -8.417
REMARK INTER:                  -7.696
REMARK INTRA:                  -0.722
REMARK UNBOUND:                -0.547
REMARK  4 active torsions:
REMARK  status: ('A' for Active; 'I' for Inactive)
REMARK    1  A    between atoms: N_1  and  C_2 
REMARK    2  A    between atoms: C_7  and  C_9 
REMARK       I    between atoms: C_9  and  N_11 
REMARK    3  A    between atoms: N_11  and  C_12 
REMARK    4  A    between atoms: C_24  and  C_25 
ROOT
HETATM    1  C   UNL     1       4.483   6.260  26.416  0.00  0.00     0.153 C 
HETATM    2  C   UNL     1       3.334   6.913  25.672  0.00  0.00    -0.020 A 
HETATM    3  C   UNL     1       2.497   7.933  26.116  0.00  0.00     0.010 A 
HETATM    4  C   UNL     1       1.645   8.547  25.199  0.00  0.00     0.001 A 
HETATM    5  C   UNL     1       1.663   8.164  23.857  0.00  0.00     0.001 A 
HETATM    6  C   UNL     1       2.507   7.135  23.420  0.00  0.00     0.013 A 
HETATM    7  C   UNL     1       3.323   6.469  24.325  0.00  0.00    -0.016 A 
HETATM    8  C   UNL     1       4.278   5.361  24.168  0.00  0.00    -0.003 A 
HETATM    9  C   UNL     1       4.916   5.180  25.439  0.00  0.00    -0.019 A 
HETATM   10  C   UNL     1       5.899   4.226  25.653  0.00  0.00     0.010 A 
HETATM   11  C   UNL     1       6.262   3.415  24.586  0.00  0.00     0.002 A 
HETATM   12  C   UNL     1       5.650   3.570  23.330  0.00  0.00     0.016 A 
HETATM   13  C   UNL     1       4.645   4.539  23.087  0.00  0.00     0.022 A 
ENDROOT
BRANCH   1  14
HETATM   14  N   UNL     1       4.225   5.837  27.780  0.00  0.00    -0.343 N 
HETATM   15  C   UNL     1       5.233   6.008  28.719  0.00  0.00     0.273 C 
HETATM   16  O   UNL     1       6.259   6.615  28.422  0.00  0.00    -0.266 OA
HETATM   17  H   UNL     1       3.376   5.334  28.024  0.00  0.00     0.163 HD
BRANCH  15  18
HETATM   18  C   UNL     1       5.063   5.428  30.100  0.00  0.00     0.150 A 
HETATM   19  C   UNL     1       6.038   4.607  30.652  0.00  0.00     0.086 A 
HETATM   20  C   UNL     1       5.771   4.171  31.927  0.00  0.00     0.146 A 
HETATM   21 CL   UNL     1       7.498   4.066  29.925  0.00  0.00    -0.080 Cl
HETATM   22  N   UNL     1       4.647   4.475  32.604  0.00  0.00    -0.229 NA
HETATM   23  C   UNL     1       3.747   5.235  31.973  0.00  0.00     0.199 A 
HETATM   24  N   UNL     1       3.905   5.756  30.748  0.00  0.00    -0.211 NA
BRANCH  23  25
HETATM   25  N   UNL     1       2.594   5.496  32.676  0.00  0.00    -0.271 NA
HETATM   26  H   UNL     1       1.856   5.765  32.036  0.00  0.00     0.127 HD
HETATM   27  H   UNL     1       2.388   4.779  33.354  0.00  0.00     0.127 HD
ENDBRANCH  23  25
ENDBRANCH  15  18
ENDBRANCH   1  14
BRANCH  13  28
HETATM   28  C   UNL     1       4.047   4.604  21.743  0.00  0.00     0.140 A 
HETATM   29  N   UNL     1       3.472   3.613  21.086  0.00  0.00    -0.227 NA
HETATM   30  C   UNL     1       2.992   4.132  19.909  0.00  0.00     0.103 A 
HETATM   31  C   UNL     1       2.222   3.541  18.905  0.00  0.00     0.150 A 
HETATM   32  C   UNL     1       3.371   5.459  19.775  0.00  0.00     0.065 A 
HETATM   33  N   UNL     1       1.884   4.252  17.796  0.00  0.00    -0.271 NA
HETATM   34  C   UNL     1       2.312   5.533  17.690  0.00  0.00     0.118 A 
HETATM   35  C   UNL     1       3.059   6.214  18.647  0.00  0.00     0.051 A 
HETATM   36  N   UNL     1       4.036   5.737  20.945  0.00  0.00    -0.338 N 
HETATM   37  H   UNL     1       4.414   6.635  21.206  0.00  0.00     0.167 HD
ENDBRANCH  13  28
TORSDOF 4
ENDMDL
