MODEL 1
REMARK minimizedAffinity -10.6088753
REMARK minimizedRMSD -1
REMARK  7 active torsions:
REMARK  status: ('A' for Active; 'I' for Inactive)
REMARK    1  A    between atoms: C_8  and  C_9 
REMARK    2  A    between atoms: C_14  and  N_15 
REMARK       I    between atoms: N_15  and  C_17 
REMARK    3  A    between atoms: C_17  and  C_19 
REMARK    4  A    between atoms: C_20  and  O_22 
REMARK    5  A    between atoms: C_26  and  C_30 
REMARK    6  A    between atoms: C_30  and  C_31 
REMARK    7  A    between atoms: C_31  and  C_32 
ROOT
HETATM    1  C   UNL     1      -0.981  10.998  25.683  0.00  0.00     0.066 A 
HETATM    2  C   UNL     1      -1.991  11.075  24.712  0.00  0.00     0.083 A 
HETATM    3  C   UNL     1      -1.816  11.777  23.510  0.00  0.00     0.069 A 
HETATM    4  C   UNL     1       0.297  11.514  25.358  0.00  0.00     0.035 A 
HETATM    5  C   UNL     1       0.508  12.179  24.130  0.00  0.00     0.019 A 
HETATM    6  C   UNL     1      -0.563  12.329  23.260  0.00  0.00     0.065 A 
HETATM    7  C   UNL     1       1.604  12.776  23.444  0.00  0.00     0.067 A 
HETATM    8  N   UNL     1       1.225  13.321  22.282  0.00  0.00    -0.178 NA
HETATM    9  N   UNL     1      -0.078  13.037  22.199  0.00  0.00    -0.277 N 
HETATM   10  H   UNL     1      -0.576  13.354  21.376  0.00  0.00     0.189 HD
ENDROOT
BRANCH   1  11
HETATM   11  C   UNL     1      -1.082  10.320  27.025  0.00  0.00     0.260 C 
HETATM   12  N   UNL     1      -0.350   9.168  27.370  0.00  0.00    -0.318 N 
HETATM   13  C   UNL     1      -0.490   8.670  28.738  0.00  0.00     0.159 C 
HETATM   14  O   UNL     1      -1.837  10.858  27.840  0.00  0.00    -0.267 OA
BRANCH  12  15
HETATM   15  C   UNL     1       0.433   8.382  26.493  0.00  0.00     0.037 C 
HETATM   16  C   UNL     1      -0.158   7.585  25.523  0.00  0.00     0.030 C 
HETATM   17  C   UNL     1       0.613   7.077  24.477  0.00  0.00     0.010 C 
HETATM   18  C   UNL     1       1.968   7.430  24.340  0.00  0.00    -0.054 C 
HETATM   19  C   UNL     1       2.586   8.037  25.445  0.00  0.00     0.010 C 
HETATM   20  C   UNL     1       1.827   8.501  26.524  0.00  0.00     0.030 C 
BRANCH  18  21
HETATM   21  C   UNL     1       2.711   7.228  23.012  0.00  0.00     0.022 C 
HETATM   22  C   UNL     1       2.423   5.871  22.329  0.00  0.00     0.037 C 
HETATM   23  C   UNL     1       2.909   4.686  23.164  0.00  0.00     0.235 C 
HETATM   24  N   UNL     1       4.377   4.805  23.492  0.00  0.00    -0.075 N 
HETATM   25  C   UNL     1       4.780   6.157  24.023  0.00  0.00     0.235 C 
HETATM   26  C   UNL     1       5.288   4.287  22.419  0.00  0.00     0.269 C 
HETATM   27  H   UNL     1       4.503   4.154  24.280  0.00  0.00     0.279 HD
HETATM   28  C   UNL     1       4.254   7.287  23.154  0.00  0.00     0.037 C 
ENDBRANCH  18  21
ENDBRANCH  12  15
ENDBRANCH   1  11
BRANCH   2  29
HETATM   29  O   UNL     1      -3.202  10.438  24.791  0.00  0.00    -0.360 OA
HETATM   30  H   UNL     1      -3.159   9.828  25.553  0.00  0.00     0.217 HD
ENDBRANCH   2  29
BRANCH   7  31
HETATM   31  C   UNL     1       3.037  12.865  23.861  0.00  0.00     0.063 C 
BRANCH  31  32
HETATM   32  C   UNL     1       3.354  14.167  24.610  0.00  0.00     0.014 C 
BRANCH  32  33
HETATM   33  C   UNL     1       4.814  14.298  25.122  0.00  0.00    -0.051 C 
HETATM   34  C   UNL     1       4.942  13.782  26.564  0.00  0.00     0.014 C 
HETATM   35  C   UNL     1       5.720  13.444  24.214  0.00  0.00     0.014 C 
HETATM   36  C   UNL     1       5.297  15.756  25.059  0.00  0.00     0.014 C 
ENDBRANCH  32  33
ENDBRANCH  31  32
ENDBRANCH   7  31
TORSDOF 7
ENDMDL
MODEL 2
REMARK minimizedAffinity -10.2590914
REMARK minimizedRMSD -1
REMARK  7 active torsions:
REMARK  status: ('A' for Active; 'I' for Inactive)
REMARK    1  A    between atoms: C_8  and  C_9 
REMARK    2  A    between atoms: C_14  and  N_15 
REMARK       I    between atoms: N_15  and  C_17 
REMARK    3  A    between atoms: C_17  and  C_19 
REMARK    4  A    between atoms: C_20  and  O_22 
REMARK    5  A    between atoms: C_26  and  C_30 
REMARK    6  A    between atoms: C_30  and  C_31 
REMARK    7  A    between atoms: C_31  and  C_32 
ROOT
HETATM    1  C   UNL     1      -1.022  11.020  25.524  0.00  0.00     0.066 A 
HETATM    2  C   UNL     1      -2.017  11.127  24.541  0.00  0.00     0.083 A 
HETATM    3  C   UNL     1      -1.827  11.872  23.367  0.00  0.00     0.069 A 
HETATM    4  C   UNL     1       0.257  11.555  25.238  0.00  0.00     0.035 A 
HETATM    5  C   UNL     1       0.483  12.266  24.039  0.00  0.00     0.019 A 
HETATM    6  C   UNL     1      -0.574  12.441  23.157  0.00  0.00     0.065 A 
HETATM    7  C   UNL     1       1.586  12.894  23.392  0.00  0.00     0.067 A 
HETATM    8  N   UNL     1       1.221  13.478  22.244  0.00  0.00    -0.178 NA
HETATM    9  N   UNL     1      -0.078  13.190  22.130  0.00  0.00    -0.277 N 
HETATM   10  H   UNL     1      -0.565  13.533  21.312  0.00  0.00     0.189 HD
ENDROOT
BRANCH   1  11
HETATM   11  C   UNL     1      -1.140  10.294  26.839  0.00  0.00     0.260 C 
HETATM   12  N   UNL     1      -0.285   9.245  27.225  0.00  0.00    -0.318 N 
HETATM   13  C   UNL     1      -0.468   8.690  28.566  0.00  0.00     0.159 C 
HETATM   14  O   UNL     1      -2.029  10.697  27.595  0.00  0.00    -0.267 OA
BRANCH  12  15
HETATM   15  C   UNL     1       0.673   8.602  26.406  0.00  0.00     0.037 C 
HETATM   16  C   UNL     1       0.288   7.878  25.286  0.00  0.00     0.030 C 
HETATM   17  C   UNL     1       1.237   7.529  24.325  0.00  0.00     0.010 C 
HETATM   18  C   UNL     1       2.568   7.973  24.429  0.00  0.00    -0.054 C 
HETATM   19  C   UNL     1       2.974   8.495  25.668  0.00  0.00     0.010 C 
HETATM   20  C   UNL     1       2.035   8.798  26.658  0.00  0.00     0.030 C 
BRANCH  18  21
HETATM   21  C   UNL     1       3.508   7.955  23.215  0.00  0.00     0.022 C 
HETATM   22  C   UNL     1       4.653   6.921  23.320  0.00  0.00     0.037 C 
HETATM   23  C   UNL     1       5.609   7.227  24.473  0.00  0.00     0.235 C 
HETATM   24  N   UNL     1       6.172   8.623  24.370  0.00  0.00    -0.075 N 
HETATM   25  C   UNL     1       5.135   9.686  24.112  0.00  0.00     0.235 C 
HETATM   26  C   UNL     1       7.377   8.733  23.483  0.00  0.00     0.269 C 
HETATM   27  H   UNL     1       6.527   8.812  25.318  0.00  0.00     0.279 HD
HETATM   28  C   UNL     1       4.214   9.313  22.963  0.00  0.00     0.037 C 
ENDBRANCH  18  21
ENDBRANCH  12  15
ENDBRANCH   1  11
BRANCH   2  29
HETATM   29  O   UNL     1      -3.225  10.480  24.578  0.00  0.00    -0.360 OA
HETATM   30  H   UNL     1      -3.189   9.844  25.318  0.00  0.00     0.217 HD
ENDBRANCH   2  29
BRANCH   7  31
HETATM   31  C   UNL     1       3.011  12.977  23.835  0.00  0.00     0.063 C 
BRANCH  31  32
HETATM   32  C   UNL     1       3.268  14.154  24.785  0.00  0.00     0.014 C 
BRANCH  32  33
HETATM   33  C   UNL     1       4.749  14.360  25.201  0.00  0.00    -0.051 C 
HETATM   34  C   UNL     1       4.994  13.863  26.634  0.00  0.00     0.014 C 
HETATM   35  C   UNL     1       5.636  13.543  24.242  0.00  0.00     0.014 C 
HETATM   36  C   UNL     1       5.156  15.839  25.099  0.00  0.00     0.014 C 
ENDBRANCH  32  33
ENDBRANCH  31  32
ENDBRANCH   7  31
TORSDOF 7
ENDMDL
MODEL 3
REMARK minimizedAffinity -9.39599133
REMARK minimizedRMSD -1
REMARK  7 active torsions:
REMARK  status: ('A' for Active; 'I' for Inactive)
REMARK    1  A    between atoms: C_8  and  C_9 
REMARK    2  A    between atoms: C_14  and  N_15 
REMARK       I    between atoms: N_15  and  C_17 
REMARK    3  A    between atoms: C_17  and  C_19 
REMARK    4  A    between atoms: C_20  and  O_22 
REMARK    5  A    between atoms: C_26  and  C_30 
REMARK    6  A    between atoms: C_30  and  C_31 
REMARK    7  A    between atoms: C_31  and  C_32 
ROOT
HETATM    1  C   UNL     1      -0.714  10.904  25.654  0.00  0.00     0.066 A 
HETATM    2  C   UNL     1      -1.735  11.182  24.734  0.00  0.00     0.083 A 
HETATM    3  C   UNL     1      -1.489  11.858  23.529  0.00  0.00     0.069 A 
HETATM    4  C   UNL     1       0.621  11.178  25.270  0.00  0.00     0.035 A 
HETATM    5  C   UNL     1       0.895  11.811  24.038  0.00  0.00     0.019 A 
HETATM    6  C   UNL     1      -0.168  12.171  23.222  0.00  0.00     0.065 A 
HETATM    7  C   UNL     1       2.049  12.205  23.303  0.00  0.00     0.067 A 
HETATM    8  N   UNL     1       1.725  12.829  22.164  0.00  0.00    -0.178 NA
HETATM    9  N   UNL     1       0.390  12.794  22.143  0.00  0.00    -0.277 N 
HETATM   10  H   UNL     1      -0.078  13.210  21.347  0.00  0.00     0.189 HD
ENDROOT
BRANCH   1  11
HETATM   11  C   UNL     1      -0.877  10.236  26.994  0.00  0.00     0.260 C 
HETATM   12  N   UNL     1      -0.237   9.032  27.345  0.00  0.00    -0.318 N 
HETATM   13  C   UNL     1      -0.425   8.546  28.712  0.00  0.00     0.159 C 
HETATM   14  O   UNL     1      -1.595  10.830  27.804  0.00  0.00    -0.267 OA
BRANCH  12  15
HETATM   15  C   UNL     1       0.492   8.188  26.474  0.00  0.00     0.037 C 
HETATM   16  C   UNL     1      -0.143   7.489  25.456  0.00  0.00     0.030 C 
HETATM   17  C   UNL     1       0.612   6.928  24.425  0.00  0.00     0.010 C 
HETATM   18  C   UNL     1       2.002   7.133  24.352  0.00  0.00    -0.054 C 
HETATM   19  C   UNL     1       2.636   7.636  25.499  0.00  0.00     0.010 C 
HETATM   20  C   UNL     1       1.887   8.151  26.562  0.00  0.00     0.030 C 
BRANCH  18  21
HETATM   21  C   UNL     1       2.772   6.886  23.048  0.00  0.00     0.022 C 
HETATM   22  C   UNL     1       2.304   5.637  22.265  0.00  0.00     0.037 C 
HETATM   23  C   UNL     1       2.545   4.342  23.041  0.00  0.00     0.235 C 
HETATM   24  N   UNL     1       3.992   4.196  23.441  0.00  0.00    -0.075 N 
HETATM   25  C   UNL     1       4.580   5.430  24.077  0.00  0.00     0.235 C 
HETATM   26  C   UNL     1       4.864   3.596  22.378  0.00  0.00     0.269 C 
HETATM   27  H   UNL     1       3.967   3.489  24.190  0.00  0.00     0.279 HD
HETATM   28  C   UNL     1       4.295   6.680  23.262  0.00  0.00     0.037 C 
ENDBRANCH  18  21
ENDBRANCH  12  15
ENDBRANCH   1  11
BRANCH   2  29
HETATM   29  O   UNL     1      -3.040  10.780  24.868  0.00  0.00    -0.360 OA
HETATM   30  H   UNL     1      -3.075  10.162  25.623  0.00  0.00     0.217 HD
ENDBRANCH   2  29
BRANCH   7  31
HETATM   31  C   UNL     1       3.492  12.020  23.650  0.00  0.00     0.063 C 
BRANCH  31  32
HETATM   32  C   UNL     1       3.979  10.585  23.407  0.00  0.00     0.014 C 
BRANCH  32  33
HETATM   33  C   UNL     1       5.487  10.446  23.065  0.00  0.00    -0.051 C 
HETATM   34  C   UNL     1       5.683   9.953  21.623  0.00  0.00     0.014 C 
HETATM   35  C   UNL     1       6.141  11.834  23.201  0.00  0.00     0.014 C 
HETATM   36  C   UNL     1       6.191   9.480  24.032  0.00  0.00     0.014 C 
ENDBRANCH  32  33
ENDBRANCH  31  32
ENDBRANCH   7  31
TORSDOF 7
ENDMDL
MODEL 4
REMARK minimizedAffinity -8.34974194
REMARK minimizedRMSD -1
REMARK  7 active torsions:
REMARK  status: ('A' for Active; 'I' for Inactive)
REMARK    1  A    between atoms: C_8  and  C_9 
REMARK    2  A    between atoms: C_14  and  N_15 
REMARK       I    between atoms: N_15  and  C_17 
REMARK    3  A    between atoms: C_17  and  C_19 
REMARK    4  A    between atoms: C_20  and  O_22 
REMARK    5  A    between atoms: C_26  and  C_30 
REMARK    6  A    between atoms: C_30  and  C_31 
REMARK    7  A    between atoms: C_31  and  C_32 
ROOT
HETATM    1  C   UNL     1      -1.037  10.933  24.727  0.00  0.00     0.066 A 
HETATM    2  C   UNL     1      -1.822  10.770  25.879  0.00  0.00     0.083 A 
HETATM    3  C   UNL     1      -1.381  10.022  26.981  0.00  0.00     0.069 A 
HETATM    4  C   UNL     1       0.295  10.455  24.757  0.00  0.00     0.035 A 
HETATM    5  C   UNL     1       0.775   9.744  25.878  0.00  0.00     0.019 A 
HETATM    6  C   UNL     1      -0.088   9.510  26.940  0.00  0.00     0.065 A 
HETATM    7  C   UNL     1       2.007   9.161  26.293  0.00  0.00     0.067 A 
HETATM    8  N   UNL     1       1.892   8.549  27.478  0.00  0.00    -0.178 NA
HETATM    9  N   UNL     1       0.627   8.775  27.841  0.00  0.00    -0.277 N 
HETATM   10  H   UNL     1       0.319   8.401  28.730  0.00  0.00     0.189 HD
ENDROOT
BRANCH   1  11
HETATM   11  C   UNL     1      -1.433  11.666  23.473  0.00  0.00     0.260 C 
HETATM   12  N   UNL     1      -0.569  12.527  22.771  0.00  0.00    -0.318 N 
HETATM   13  C   UNL     1      -1.066  13.105  21.523  0.00  0.00     0.159 C 
HETATM   14  O   UNL     1      -2.576  11.444  23.061  0.00  0.00    -0.267 OA
BRANCH  12  15
HETATM   15  C   UNL     1       0.702  12.971  23.205  0.00  0.00     0.037 C 
HETATM   16  C   UNL     1       0.826  14.031  24.093  0.00  0.00     0.030 C 
HETATM   17  C   UNL     1       2.037  14.246  24.752  0.00  0.00     0.010 C 
HETATM   18  C   UNL     1       3.114  13.353  24.596  0.00  0.00    -0.054 C 
HETATM   19  C   UNL     1       3.040  12.441  23.531  0.00  0.00     0.010 C 
HETATM   20  C   UNL     1       1.844  12.257  22.829  0.00  0.00     0.030 C 
BRANCH  18  21
HETATM   21  C   UNL     1       4.279  13.333  25.595  0.00  0.00     0.022 C 
HETATM   22  C   UNL     1       4.717  14.734  26.081  0.00  0.00     0.037 C 
HETATM   23  C   UNL     1       5.270  15.596  24.946  0.00  0.00     0.235 C 
HETATM   24  N   UNL     1       6.409  14.910  24.233  0.00  0.00    -0.075 N 
HETATM   25  C   UNL     1       6.124  13.478  23.856  0.00  0.00     0.235 C 
HETATM   26  C   UNL     1       7.745  15.102  24.888  0.00  0.00     0.269 C 
HETATM   27  H   UNL     1       6.479  15.419  23.341  0.00  0.00     0.279 HD
HETATM   28  C   UNL     1       5.567  12.683  25.025  0.00  0.00     0.037 C 
ENDBRANCH  18  21
ENDBRANCH  12  15
ENDBRANCH   1  11
BRANCH   2  29
HETATM   29  O   UNL     1      -3.043  11.360  26.083  0.00  0.00    -0.360 OA
HETATM   30  H   UNL     1      -3.176  12.005  25.361  0.00  0.00     0.217 HD
ENDBRANCH   2  29
BRANCH   7  31
HETATM   31  C   UNL     1       3.325   9.150  25.588  0.00  0.00     0.063 C 
BRANCH  31  32
HETATM   32  C   UNL     1       3.199   8.776  24.105  0.00  0.00     0.014 C 
BRANCH  32  33
HETATM   33  C   UNL     1       4.531   8.406  23.399  0.00  0.00    -0.051 C 
HETATM   34  C   UNL     1       5.654   8.177  24.423  0.00  0.00     0.014 C 
HETATM   35  C   UNL     1       4.312   7.099  22.613  0.00  0.00     0.014 C 
HETATM   36  C   UNL     1       4.960   9.502  22.410  0.00  0.00     0.014 C 
ENDBRANCH  32  33
ENDBRANCH  31  32
ENDBRANCH   7  31
TORSDOF 7
ENDMDL
