MODEL 1
REMARK VINA RESULT:    -8.272      0.000      0.000
REMARK INTER + INTRA:         -12.155
REMARK INTER:                 -10.961
REMARK INTRA:                  -1.194
REMARK UNBOUND:                -1.223
REMARK  6 active torsions:
REMARK  status: ('A' for Active; 'I' for Inactive)
REMARK    1  A    between atoms: O_2  and  C_3 
REMARK       I    between atoms: N_6  and  C_7 
REMARK    2  A    between atoms: C_7  and  C_9 
REMARK    3  A    between atoms: C_15  and  O_16 
REMARK    4  A    between atoms: C_17  and  C_18 
REMARK       I    between atoms: C_18  and  N_20 
REMARK    5  A    between atoms: N_20  and  C_22 
REMARK    6  A    between atoms: C_25  and  N_26 
ROOT
HETATM    1  C   UNL     1       8.133  14.211  22.430  0.00  0.00     0.157 A 
HETATM    2  N   UNL     1       7.868  15.123  23.392  0.00  0.00    -0.168 NA
HETATM    3  N   UNL     1       6.545  15.053  23.575  0.00  0.00    -0.277 N 
HETATM    4  H   UNL     1       6.127  15.663  24.266  0.00  0.00     0.189 HD
HETATM    5  C   UNL     1       5.919  14.124  22.798  0.00  0.00     0.065 A 
HETATM    6  C   UNL     1       4.582  13.738  22.719  0.00  0.00     0.069 C 
HETATM    7  C   UNL     1       4.281  12.679  21.849  0.00  0.00     0.083 C 
HETATM    8  C   UNL     1       5.262  12.067  21.040  0.00  0.00     0.066 C 
HETATM    9  C   UNL     1       6.566  12.587  21.063  0.00  0.00     0.036 C 
HETATM   10  C   UNL     1       6.919  13.571  22.011  0.00  0.00     0.029 A 
ENDROOT
BRANCH   8  11
HETATM   11  C   UNL     1       4.898  10.983  20.070  0.00  0.00     0.260 C 
HETATM   12  O   UNL     1       4.088  11.323  19.203  0.00  0.00    -0.267 OA
HETATM   13  N   UNL     1       5.448   9.669  20.158  0.00  0.00    -0.318 N 
HETATM   14  C   UNL     1       6.234   9.169  21.298  0.00  0.00     0.159 C 
BRANCH  13  15
HETATM   15  C   UNL     1       5.065   8.655  19.187  0.00  0.00     0.037 A 
HETATM   16  C   UNL     1       5.604   8.613  17.900  0.00  0.00     0.032 A 
HETATM   17  C   UNL     1       5.189   7.657  16.954  0.00  0.00     0.031 A 
HETATM   18  C   UNL     1       4.235   6.676  17.243  0.00  0.00     0.030 A 
HETATM   19  C   UNL     1       3.735   6.694  18.549  0.00  0.00     0.031 A 
HETATM   20  C   UNL     1       4.137   7.652  19.498  0.00  0.00     0.032 A 
BRANCH  18  21
HETATM   21  N   UNL     1       3.829   5.747  16.312  0.00  0.00    -0.377 N 
HETATM   22  C   UNL     1       3.762   4.304  16.591  0.00  0.00     0.149 C 
HETATM   23  C   UNL     1       2.359   3.792  16.223  0.00  0.00     0.187 C 
HETATM   24  O   UNL     1       2.029   4.077  14.852  0.00  0.00    -0.388 OA
HETATM   25  C   UNL     1       2.070   5.496  14.614  0.00  0.00     0.187 C 
HETATM   26  C   UNL     1       3.456   6.082  14.927  0.00  0.00     0.149 C 
ENDBRANCH  18  21
ENDBRANCH  13  15
ENDBRANCH   8  11
BRANCH   7  27
HETATM   27  O   UNL     1       2.980  12.247  21.827  0.00  0.00    -0.360 OA
HETATM   28  H   UNL     1       2.436  12.834  21.276  0.00  0.00     0.217 HD
ENDBRANCH   7  27
BRANCH   1  29
HETATM   29  C   UNL     1       9.492  13.890  21.919  0.00  0.00     0.275 C 
HETATM   30  N   UNL     1      10.024  12.625  22.145  0.00  0.00    -0.344 N 
HETATM   31  C   UNL     1      11.324  12.243  21.631  0.00  0.00     0.129 C 
HETATM   32  C   UNL     1       9.421  11.525  22.884  0.00  0.00     0.158 C 
HETATM   33  C   UNL     1      11.316  10.727  21.677  0.00  0.00     0.053 C 
HETATM   34  C   UNL     1      10.478  10.418  22.916  0.00  0.00     0.140 C 
HETATM   35  O   UNL     1      10.133  14.729  21.280  0.00  0.00    -0.266 OA
BRANCH  34  36
HETATM   36  O   UNL     1       9.948   9.100  22.821  0.00  0.00    -0.389 OA
HETATM   37  C   UNL     1       9.070   8.778  23.894  0.00  0.00     0.202 C 
ENDBRANCH  34  36
ENDBRANCH   1  29
TORSDOF 6
ENDMDL
MODEL 2
REMARK VINA RESULT:    -7.901      5.643      7.117
REMARK INTER + INTRA:         -11.664
REMARK INTER:                 -10.656
REMARK INTRA:                  -1.008
REMARK UNBOUND:                -1.223
REMARK  6 active torsions:
REMARK  status: ('A' for Active; 'I' for Inactive)
REMARK    1  A    between atoms: O_2  and  C_3 
REMARK       I    between atoms: N_6  and  C_7 
REMARK    2  A    between atoms: C_7  and  C_9 
REMARK    3  A    between atoms: C_15  and  O_16 
REMARK    4  A    between atoms: C_17  and  C_18 
REMARK       I    between atoms: C_18  and  N_20 
REMARK    5  A    between atoms: N_20  and  C_22 
REMARK    6  A    between atoms: C_25  and  N_26 
ROOT
HETATM    1  C   UNL     1       9.746  15.162  24.778  0.00  0.00     0.157 A 
HETATM    2  N   UNL     1      10.382  15.866  23.816  0.00  0.00    -0.168 NA
HETATM    3  N   UNL     1       9.679  15.637  22.702  0.00  0.00    -0.277 N 
HETATM    4  H   UNL     1       9.989  16.079  21.845  0.00  0.00     0.189 HD
HETATM    5  C   UNL     1       8.593  14.832  22.879  0.00  0.00     0.065 A 
HETATM    6  C   UNL     1       7.616  14.394  21.987  0.00  0.00     0.069 C 
HETATM    7  C   UNL     1       6.575  13.619  22.522  0.00  0.00     0.083 C 
HETATM    8  C   UNL     1       6.539  13.242  23.881  0.00  0.00     0.066 C 
HETATM    9  C   UNL     1       7.620  13.600  24.703  0.00  0.00     0.036 C 
HETATM   10  C   UNL     1       8.617  14.474  24.219  0.00  0.00     0.029 A 
ENDROOT
BRANCH   8  11
HETATM   11  C   UNL     1       5.450  12.357  24.410  0.00  0.00     0.260 C 
HETATM   12  O   UNL     1       4.630  12.931  25.131  0.00  0.00    -0.267 OA
HETATM   13  N   UNL     1       5.385  10.966  24.099  0.00  0.00    -0.318 N 
HETATM   14  C   UNL     1       6.458  10.209  23.435  0.00  0.00     0.159 C 
BRANCH  13  15
HETATM   15  C   UNL     1       4.303  10.153  24.635  0.00  0.00     0.037 A 
HETATM   16  C   UNL     1       3.013  10.181  24.102  0.00  0.00     0.032 A 
HETATM   17  C   UNL     1       1.965   9.427  24.659  0.00  0.00     0.031 A 
HETATM   18  C   UNL     1       2.145   8.584  25.761  0.00  0.00     0.030 A 
HETATM   19  C   UNL     1       3.450   8.523  26.260  0.00  0.00     0.031 A 
HETATM   20  C   UNL     1       4.503   9.281  25.714  0.00  0.00     0.032 A 
BRANCH  18  21
HETATM   21  N   UNL     1       1.114   7.853  26.306  0.00  0.00    -0.377 N 
HETATM   22  C   UNL     1       1.267   6.463  26.764  0.00  0.00     0.149 C 
HETATM   23  C   UNL     1       0.760   6.360  28.213  0.00  0.00     0.187 C 
HETATM   24  O   UNL     1      -0.602   6.805  28.334  0.00  0.00    -0.388 OA
HETATM   25  C   UNL     1      -0.719   8.176  27.911  0.00  0.00     0.187 C 
HETATM   26  C   UNL     1      -0.262   8.359  26.455  0.00  0.00     0.149 C 
ENDBRANCH  18  21
ENDBRANCH  13  15
ENDBRANCH   8  11
BRANCH   7  27
HETATM   27  O   UNL     1       5.573  13.251  21.662  0.00  0.00    -0.360 OA
HETATM   28  H   UNL     1       5.928  13.105  20.769  0.00  0.00     0.217 HD
ENDBRANCH   7  27
BRANCH   1  29
HETATM   29  C   UNL     1      10.135  15.145  26.213  0.00  0.00     0.275 C 
HETATM   30  N   UNL     1      11.280  14.456  26.601  0.00  0.00    -0.344 N 
HETATM   31  C   UNL     1      11.732  14.443  27.977  0.00  0.00     0.129 C 
HETATM   32  C   UNL     1      12.177  13.676  25.759  0.00  0.00     0.158 C 
HETATM   33  C   UNL     1      13.185  14.018  27.893  0.00  0.00     0.053 C 
HETATM   34  C   UNL     1      13.199  13.050  26.711  0.00  0.00     0.140 C 
HETATM   35  O   UNL     1       9.463  15.754  27.050  0.00  0.00    -0.266 OA
BRANCH  34  36
HETATM   36  O   UNL     1      14.517  12.960  26.180  0.00  0.00    -0.389 OA
HETATM   37  C   UNL     1      14.906  14.130  25.469  0.00  0.00     0.202 C 
ENDBRANCH  34  36
ENDBRANCH   1  29
TORSDOF 6
ENDMDL
MODEL 3
REMARK VINA RESULT:    -7.771      2.978      9.556
REMARK INTER + INTRA:         -11.493
REMARK INTER:                 -10.582
REMARK INTRA:                  -0.912
REMARK UNBOUND:                -1.223
REMARK  6 active torsions:
REMARK  status: ('A' for Active; 'I' for Inactive)
REMARK    1  A    between atoms: O_2  and  C_3 
REMARK       I    between atoms: N_6  and  C_7 
REMARK    2  A    between atoms: C_7  and  C_9 
REMARK    3  A    between atoms: C_15  and  O_16 
REMARK    4  A    between atoms: C_17  and  C_18 
REMARK       I    between atoms: C_18  and  N_20 
REMARK    5  A    between atoms: N_20  and  C_22 
REMARK    6  A    between atoms: C_25  and  N_26 
ROOT
HETATM    1  C   UNL     1       3.376   6.116  18.904  0.00  0.00     0.157 A 
HETATM    2  N   UNL     1       2.467   5.748  17.975  0.00  0.00    -0.168 NA
HETATM    3  N   UNL     1       2.294   6.834  17.215  0.00  0.00    -0.277 N 
HETATM    4  H   UNL     1       1.641   6.776  16.443  0.00  0.00     0.189 HD
HETATM    5  C   UNL     1       3.061   7.902  17.578  0.00  0.00     0.065 A 
HETATM    6  C   UNL     1       3.186   9.176  17.028  0.00  0.00     0.069 C 
HETATM    7  C   UNL     1       4.138  10.024  17.614  0.00  0.00     0.083 C 
HETATM    8  C   UNL     1       4.894   9.644  18.742  0.00  0.00     0.066 C 
HETATM    9  C   UNL     1       4.628   8.399  19.335  0.00  0.00     0.036 C 
HETATM   10  C   UNL     1       3.763   7.483  18.700  0.00  0.00     0.029 A 
ENDROOT
BRANCH   8  11
HETATM   11  C   UNL     1       5.855  10.597  19.387  0.00  0.00     0.260 C 
HETATM   12  O   UNL     1       6.771  10.976  18.652  0.00  0.00    -0.267 OA
HETATM   13  N   UNL     1       5.712  11.018  20.743  0.00  0.00    -0.318 N 
HETATM   14  C   UNL     1       4.774  10.419  21.707  0.00  0.00     0.159 C 
BRANCH  13  15
HETATM   15  C   UNL     1       6.671  11.949  21.319  0.00  0.00     0.037 A 
HETATM   16  C   UNL     1       7.975  11.573  21.643  0.00  0.00     0.032 A 
HETATM   17  C   UNL     1       8.877  12.470  22.244  0.00  0.00     0.031 A 
HETATM   18  C   UNL     1       8.540  13.796  22.534  0.00  0.00     0.030 A 
HETATM   19  C   UNL     1       7.248  14.180  22.163  0.00  0.00     0.031 A 
HETATM   20  C   UNL     1       6.336  13.287  21.570  0.00  0.00     0.032 A 
BRANCH  18  21
HETATM   21  N   UNL     1       9.425  14.667  23.128  0.00  0.00    -0.377 N 
HETATM   22  C   UNL     1       9.422  14.960  24.570  0.00  0.00     0.149 C 
HETATM   23  C   UNL     1      10.839  14.736  25.126  0.00  0.00     0.187 C 
HETATM   24  O   UNL     1      11.816  15.530  24.432  0.00  0.00    -0.388 OA
HETATM   25  C   UNL     1      11.822  15.202  23.030  0.00  0.00     0.187 C 
HETATM   26  C   UNL     1      10.444  15.433  22.390  0.00  0.00     0.149 C 
ENDBRANCH  18  21
ENDBRANCH  13  15
ENDBRANCH   8  11
BRANCH   7  27
HETATM   27  O   UNL     1       4.318  11.251  17.026  0.00  0.00    -0.360 OA
HETATM   28  H   UNL     1       4.388  11.159  16.062  0.00  0.00     0.217 HD
ENDBRANCH   7  27
BRANCH   1  29
HETATM   29  C   UNL     1       3.928   5.218  19.953  0.00  0.00     0.275 C 
HETATM   30  N   UNL     1       5.091   4.499  19.692  0.00  0.00    -0.344 N 
HETATM   31  C   UNL     1       5.697   3.643  20.692  0.00  0.00     0.129 C 
HETATM   32  C   UNL     1       5.862   4.472  18.458  0.00  0.00     0.158 C 
HETATM   33  C   UNL     1       7.118   3.443  20.204  0.00  0.00     0.053 C 
HETATM   34  C   UNL     1       6.969   3.439  18.683  0.00  0.00     0.140 C 
HETATM   35  O   UNL     1       3.374   5.126  21.052  0.00  0.00    -0.266 OA
BRANCH  34  36
HETATM   36  O   UNL     1       8.215   3.774  18.078  0.00  0.00    -0.389 OA
HETATM   37  C   UNL     1       9.331   3.248  18.787  0.00  0.00     0.202 C 
ENDBRANCH  34  36
ENDBRANCH   1  29
TORSDOF 6
ENDMDL
MODEL 4
REMARK VINA RESULT:    -7.750      1.727      1.964
REMARK INTER + INTRA:         -11.465
REMARK INTER:                 -10.755
REMARK INTRA:                  -0.711
REMARK UNBOUND:                -1.223
REMARK  6 active torsions:
REMARK  status: ('A' for Active; 'I' for Inactive)
REMARK    1  A    between atoms: O_2  and  C_3 
REMARK       I    between atoms: N_6  and  C_7 
REMARK    2  A    between atoms: C_7  and  C_9 
REMARK    3  A    between atoms: C_15  and  O_16 
REMARK    4  A    between atoms: C_17  and  C_18 
REMARK       I    between atoms: C_18  and  N_20 
REMARK    5  A    between atoms: N_20  and  C_22 
REMARK    6  A    between atoms: C_25  and  N_26 
ROOT
HETATM    1  C   UNL     1       7.875  14.624  22.656  0.00  0.00     0.157 A 
HETATM    2  N   UNL     1       7.556  15.537  23.600  0.00  0.00    -0.168 NA
HETATM    3  N   UNL     1       6.234  15.418  23.758  0.00  0.00    -0.277 N 
HETATM    4  H   UNL     1       5.779  16.021  24.432  0.00  0.00     0.189 HD
HETATM    5  C   UNL     1       5.660  14.456  22.981  0.00  0.00     0.065 A 
HETATM    6  C   UNL     1       4.340  14.018  22.881  0.00  0.00     0.069 C 
HETATM    7  C   UNL     1       4.099  12.937  22.019  0.00  0.00     0.083 C 
HETATM    8  C   UNL     1       5.118  12.353  21.239  0.00  0.00     0.066 C 
HETATM    9  C   UNL     1       6.401  12.923  21.280  0.00  0.00     0.036 C 
HETATM   10  C   UNL     1       6.696  13.932  22.221  0.00  0.00     0.029 A 
ENDROOT
BRANCH   8  11
HETATM   11  C   UNL     1       4.816  11.243  20.276  0.00  0.00     0.260 C 
HETATM   12  O   UNL     1       4.045  11.554  19.364  0.00  0.00    -0.267 OA
HETATM   13  N   UNL     1       5.377   9.939  20.421  0.00  0.00    -0.318 N 
HETATM   14  C   UNL     1       6.112   9.475  21.609  0.00  0.00     0.159 C 
BRANCH  13  15
HETATM   15  C   UNL     1       5.055   8.899  19.455  0.00  0.00     0.037 A 
HETATM   16  C   UNL     1       5.520   8.932  18.139  0.00  0.00     0.032 A 
HETATM   17  C   UNL     1       5.162   7.946  17.202  0.00  0.00     0.031 A 
HETATM   18  C   UNL     1       4.341   6.861  17.526  0.00  0.00     0.030 A 
HETATM   19  C   UNL     1       3.919   6.807  18.858  0.00  0.00     0.031 A 
HETATM   20  C   UNL     1       4.265   7.794  19.800  0.00  0.00     0.032 A 
BRANCH  18  21
HETATM   21  N   UNL     1       3.989   5.902  16.603  0.00  0.00    -0.377 N 
HETATM   22  C   UNL     1       3.996   4.461  16.898  0.00  0.00     0.149 C 
HETATM   23  C   UNL     1       2.623   3.873  16.528  0.00  0.00     0.187 C 
HETATM   24  O   UNL     1       2.286   4.126  15.153  0.00  0.00    -0.388 OA
HETATM   25  C   UNL     1       2.255   5.543  14.899  0.00  0.00     0.187 C 
HETATM   26  C   UNL     1       3.607   6.203  15.213  0.00  0.00     0.149 C 
ENDBRANCH  18  21
ENDBRANCH  13  15
ENDBRANCH   8  11
BRANCH   7  27
HETATM   27  O   UNL     1       2.815  12.455  21.978  0.00  0.00    -0.360 OA
HETATM   28  H   UNL     1       2.287  12.830  22.701  0.00  0.00     0.217 HD
ENDBRANCH   7  27
BRANCH   1  29
HETATM   29  C   UNL     1       9.256  14.349  22.176  0.00  0.00     0.275 C 
HETATM   30  N   UNL     1      10.272  14.145  23.104  0.00  0.00    -0.344 N 
HETATM   31  C   UNL     1      11.626  13.829  22.694  0.00  0.00     0.129 C 
HETATM   32  C   UNL     1      10.177  14.204  24.556  0.00  0.00     0.158 C 
HETATM   33  C   UNL     1      12.267  13.239  23.935  0.00  0.00     0.053 C 
HETATM   34  C   UNL     1      11.605  14.013  25.074  0.00  0.00     0.140 C 
HETATM   35  O   UNL     1       9.495  14.280  20.968  0.00  0.00    -0.266 OA
BRANCH  34  36
HETATM   36  O   UNL     1      11.695  13.262  26.280  0.00  0.00    -0.389 OA
HETATM   37  C   UNL     1      11.918  14.079  27.424  0.00  0.00     0.202 C 
ENDBRANCH  34  36
ENDBRANCH   1  29
TORSDOF 6
ENDMDL
MODEL 5
REMARK VINA RESULT:    -7.718      3.357      4.059
REMARK INTER + INTRA:         -11.423
REMARK INTER:                 -10.694
REMARK INTRA:                  -0.729
REMARK UNBOUND:                -1.223
REMARK  6 active torsions:
REMARK  status: ('A' for Active; 'I' for Inactive)
REMARK    1  A    between atoms: O_2  and  C_3 
REMARK       I    between atoms: N_6  and  C_7 
REMARK    2  A    between atoms: C_7  and  C_9 
REMARK    3  A    between atoms: C_15  and  O_16 
REMARK    4  A    between atoms: C_17  and  C_18 
REMARK       I    between atoms: C_18  and  N_20 
REMARK    5  A    between atoms: N_20  and  C_22 
REMARK    6  A    between atoms: C_25  and  N_26 
ROOT
HETATM    1  C   UNL     1       9.960  15.025  25.172  0.00  0.00     0.157 A 
HETATM    2  N   UNL     1       9.708  15.640  26.349  0.00  0.00    -0.168 NA
HETATM    3  N   UNL     1       8.529  15.150  26.745  0.00  0.00    -0.277 N 
HETATM    4  H   UNL     1       8.145  15.483  27.621  0.00  0.00     0.189 HD
HETATM    5  C   UNL     1       7.993  14.223  25.901  0.00  0.00     0.065 A 
HETATM    6  C   UNL     1       6.819  13.476  25.977  0.00  0.00     0.069 C 
HETATM    7  C   UNL     1       6.600  12.539  24.955  0.00  0.00     0.083 C 
HETATM    8  C   UNL     1       7.484  12.392  23.866  0.00  0.00     0.066 C 
HETATM    9  C   UNL     1       8.581  13.265  23.773  0.00  0.00     0.036 C 
HETATM   10  C   UNL     1       8.886  14.134  24.842  0.00  0.00     0.029 A 
ENDROOT
BRANCH   8  11
HETATM   11  C   UNL     1       7.189  11.430  22.754  0.00  0.00     0.260 C 
HETATM   12  O   UNL     1       7.947  10.458  22.704  0.00  0.00    -0.267 OA
HETATM   13  N   UNL     1       6.118  11.638  21.834  0.00  0.00    -0.318 N 
HETATM   14  C   UNL     1       5.343  12.885  21.725  0.00  0.00     0.159 C 
BRANCH  13  15
HETATM   15  C   UNL     1       5.872  10.670  20.775  0.00  0.00     0.037 A 
HETATM   16  C   UNL     1       6.282  10.883  19.458  0.00  0.00     0.032 A 
HETATM   17  C   UNL     1       5.995   9.961  18.435  0.00  0.00     0.031 A 
HETATM   18  C   UNL     1       5.306   8.767  18.668  0.00  0.00     0.030 A 
HETATM   19  C   UNL     1       4.940   8.537  19.998  0.00  0.00     0.031 A 
HETATM   20  C   UNL     1       5.215   9.458  21.027  0.00  0.00     0.032 A 
BRANCH  18  21
HETATM   21  N   UNL     1       5.023   7.871  17.662  0.00  0.00    -0.377 N 
HETATM   22  C   UNL     1       5.239   6.422  17.790  0.00  0.00     0.149 C 
HETATM   23  C   UNL     1       3.935   5.691  17.427  0.00  0.00     0.187 C 
HETATM   24  O   UNL     1       3.476   6.039  16.109  0.00  0.00    -0.388 OA
HETATM   25  C   UNL     1       3.241   7.456  16.020  0.00  0.00     0.187 C 
HETATM   26  C   UNL     1       4.512   8.261  16.336  0.00  0.00     0.149 C 
ENDBRANCH  18  21
ENDBRANCH  13  15
ENDBRANCH   8  11
BRANCH   7  27
HETATM   27  O   UNL     1       5.484  11.750  25.068  0.00  0.00    -0.360 OA
HETATM   28  H   UNL     1       5.219  11.410  24.198  0.00  0.00     0.217 HD
ENDBRANCH   7  27
BRANCH   1  29
HETATM   29  C   UNL     1      11.196  15.213  24.366  0.00  0.00     0.275 C 
HETATM   30  N   UNL     1      12.437  15.012  24.963  0.00  0.00    -0.344 N 
HETATM   31  C   UNL     1      13.671  15.138  24.214  0.00  0.00     0.129 C 
HETATM   32  C   UNL     1      12.711  14.661  26.349  0.00  0.00     0.158 C 
HETATM   33  C   UNL     1      14.698  14.405  25.056  0.00  0.00     0.053 C 
HETATM   34  C   UNL     1      14.235  14.676  26.487  0.00  0.00     0.140 C 
HETATM   35  O   UNL     1      11.123  15.523  23.174  0.00  0.00    -0.266 OA
BRANCH  34  36
HETATM   36  O   UNL     1      14.755  13.675  27.356  0.00  0.00    -0.389 OA
HETATM   37  C   UNL     1      14.626  12.361  26.825  0.00  0.00     0.202 C 
ENDBRANCH  34  36
ENDBRANCH   1  29
TORSDOF 6
ENDMDL
MODEL 6
REMARK VINA RESULT:    -7.602      5.575      7.986
REMARK INTER + INTRA:         -11.269
REMARK INTER:                  -9.937
REMARK INTRA:                  -1.332
REMARK UNBOUND:                -1.223
REMARK  6 active torsions:
REMARK  status: ('A' for Active; 'I' for Inactive)
REMARK    1  A    between atoms: O_2  and  C_3 
REMARK       I    between atoms: N_6  and  C_7 
REMARK    2  A    between atoms: C_7  and  C_9 
REMARK    3  A    between atoms: C_15  and  O_16 
REMARK    4  A    between atoms: C_17  and  C_18 
REMARK       I    between atoms: C_18  and  N_20 
REMARK    5  A    between atoms: N_20  and  C_22 
REMARK    6  A    between atoms: C_25  and  N_26 
ROOT
HETATM    1  C   UNL     1       7.871  12.108  21.337  0.00  0.00     0.157 A 
HETATM    2  N   UNL     1       8.208  12.309  20.044  0.00  0.00    -0.168 NA
HETATM    3  N   UNL     1       7.501  11.403  19.361  0.00  0.00    -0.277 N 
HETATM    4  H   UNL     1       7.604  11.379  18.354  0.00  0.00     0.189 HD
HETATM    5  C   UNL     1       6.692  10.623  20.133  0.00  0.00     0.065 A 
HETATM    6  C   UNL     1       5.798   9.608  19.799  0.00  0.00     0.069 C 
HETATM    7  C   UNL     1       5.056   9.049  20.851  0.00  0.00     0.083 C 
HETATM    8  C   UNL     1       5.240   9.440  22.194  0.00  0.00     0.066 C 
HETATM    9  C   UNL     1       6.250  10.372  22.485  0.00  0.00     0.036 C 
HETATM   10  C   UNL     1       6.928  11.032  21.439  0.00  0.00     0.029 A 
ENDROOT
BRANCH   8  11
HETATM   11  C   UNL     1       4.481   8.777  23.304  0.00  0.00     0.260 C 
HETATM   12  O   UNL     1       4.725   7.576  23.444  0.00  0.00    -0.267 OA
HETATM   13  N   UNL     1       3.552   9.490  24.120  0.00  0.00    -0.318 N 
HETATM   14  C   UNL     1       3.074  10.854  23.842  0.00  0.00     0.159 C 
BRANCH  13  15
HETATM   15  C   UNL     1       2.845   8.799  25.189  0.00  0.00     0.037 A 
HETATM   16  C   UNL     1       3.456   8.480  26.403  0.00  0.00     0.032 A 
HETATM   17  C   UNL     1       2.776   7.770  27.409  0.00  0.00     0.031 A 
HETATM   18  C   UNL     1       1.446   7.357  27.274  0.00  0.00     0.030 A 
HETATM   19  C   UNL     1       0.826   7.722  26.075  0.00  0.00     0.031 A 
HETATM   20  C   UNL     1       1.501   8.425  25.059  0.00  0.00     0.032 A 
BRANCH  18  21
HETATM   21  N   UNL     1       0.789   6.656  28.259  0.00  0.00    -0.377 N 
HETATM   22  C   UNL     1       0.849   5.191  28.382  0.00  0.00     0.149 C 
HETATM   23  C   UNL     1       1.272   4.831  29.816  0.00  0.00     0.187 C 
HETATM   24  O   UNL     1       0.387   5.403  30.794  0.00  0.00    -0.388 OA
HETATM   25  C   UNL     1       0.371   6.837  30.674  0.00  0.00     0.187 C 
HETATM   26  C   UNL     1      -0.078   7.282  29.273  0.00  0.00     0.149 C 
ENDBRANCH  18  21
ENDBRANCH  13  15
ENDBRANCH   8  11
BRANCH   7  27
HETATM   27  O   UNL     1       4.121   8.104  20.515  0.00  0.00    -0.360 OA
HETATM   28  H   UNL     1       3.316   8.218  21.047  0.00  0.00     0.217 HD
ENDBRANCH   7  27
BRANCH   1  29
HETATM   29  C   UNL     1       8.373  12.918  22.479  0.00  0.00     0.275 C 
HETATM   30  N   UNL     1       7.603  13.975  22.955  0.00  0.00    -0.344 N 
HETATM   31  C   UNL     1       8.021  14.769  24.093  0.00  0.00     0.129 C 
HETATM   32  C   UNL     1       6.325  14.447  22.440  0.00  0.00     0.158 C 
HETATM   33  C   UNL     1       6.751  15.455  24.560  0.00  0.00     0.053 C 
HETATM   34  C   UNL     1       5.984  15.694  23.260  0.00  0.00     0.140 C 
HETATM   35  O   UNL     1       9.450  12.644  23.014  0.00  0.00    -0.266 OA
BRANCH  34  36
HETATM   36  O   UNL     1       4.597  15.848  23.544  0.00  0.00    -0.389 OA
HETATM   37  C   UNL     1       4.321  15.903  24.939  0.00  0.00     0.202 C 
ENDBRANCH  34  36
ENDBRANCH   1  29
TORSDOF 6
ENDMDL
MODEL 7
REMARK VINA RESULT:    -7.599      2.879      9.689
REMARK INTER + INTRA:         -11.265
REMARK INTER:                 -10.186
REMARK INTRA:                  -1.080
REMARK UNBOUND:                -1.223
REMARK  6 active torsions:
REMARK  status: ('A' for Active; 'I' for Inactive)
REMARK    1  A    between atoms: O_2  and  C_3 
REMARK       I    between atoms: N_6  and  C_7 
REMARK    2  A    between atoms: C_7  and  C_9 
REMARK    3  A    between atoms: C_15  and  O_16 
REMARK    4  A    between atoms: C_17  and  C_18 
REMARK       I    between atoms: C_18  and  N_20 
REMARK    5  A    between atoms: N_20  and  C_22 
REMARK    6  A    between atoms: C_25  and  N_26 
ROOT
HETATM    1  C   UNL     1       4.502   5.881  17.899  0.00  0.00     0.157 A 
HETATM    2  N   UNL     1       3.620   5.505  16.947  0.00  0.00    -0.168 NA
HETATM    3  N   UNL     1       3.153   6.651  16.441  0.00  0.00    -0.277 N 
HETATM    4  H   UNL     1       2.467   6.599  15.699  0.00  0.00     0.189 HD
HETATM    5  C   UNL     1       3.698   7.772  16.994  0.00  0.00     0.065 A 
HETATM    6  C   UNL     1       3.498   9.124  16.723  0.00  0.00     0.069 C 
HETATM    7  C   UNL     1       4.289  10.035  17.440  0.00  0.00     0.083 C 
HETATM    8  C   UNL     1       5.201   9.622  18.434  0.00  0.00     0.066 C 
HETATM    9  C   UNL     1       5.262   8.257  18.758  0.00  0.00     0.036 C 
HETATM   10  C   UNL     1       4.565   7.312  17.975  0.00  0.00     0.029 A 
ENDROOT
BRANCH   8  11
HETATM   11  C   UNL     1       5.983  10.623  19.231  0.00  0.00     0.260 C 
HETATM   12  O   UNL     1       6.870  11.201  18.597  0.00  0.00    -0.267 OA
HETATM   13  N   UNL     1       5.714  10.871  20.611  0.00  0.00    -0.318 N 
HETATM   14  C   UNL     1       4.825  10.049  21.448  0.00  0.00     0.159 C 
BRANCH  13  15
HETATM   15  C   UNL     1       6.500  11.857  21.337  0.00  0.00     0.037 A 
HETATM   16  C   UNL     1       6.001  13.121  21.657  0.00  0.00     0.032 A 
HETATM   17  C   UNL     1       6.788  14.083  22.317  0.00  0.00     0.031 A 
HETATM   18  C   UNL     1       8.105  13.834  22.716  0.00  0.00     0.030 A 
HETATM   19  C   UNL     1       8.583  12.550  22.436  0.00  0.00     0.031 A 
HETATM   20  C   UNL     1       7.806  11.584  21.768  0.00  0.00     0.032 A 
BRANCH  18  21
HETATM   21  N   UNL     1       8.872  14.781  23.356  0.00  0.00    -0.377 N 
HETATM   22  C   UNL     1       8.746  15.083  24.791  0.00  0.00     0.149 C 
HETATM   23  C   UNL     1      10.136  14.983  25.443  0.00  0.00     0.187 C 
HETATM   24  O   UNL     1      11.088  15.852  24.805  0.00  0.00    -0.388 OA
HETATM   25  C   UNL     1      11.217  15.514  23.412  0.00  0.00     0.187 C 
HETATM   26  C   UNL     1       9.871  15.624  22.677  0.00  0.00     0.149 C 
ENDBRANCH  18  21
ENDBRANCH  13  15
ENDBRANCH   8  11
BRANCH   7  27
HETATM   27  O   UNL     1       4.149  11.361  17.120  0.00  0.00    -0.360 OA
HETATM   28  H   UNL     1       3.244  11.662  17.304  0.00  0.00     0.217 HD
ENDBRANCH   7  27
BRANCH   1  29
HETATM   29  C   UNL     1       5.321   4.942  18.712  0.00  0.00     0.275 C 
HETATM   30  N   UNL     1       4.899   4.604  19.994  0.00  0.00    -0.344 N 
HETATM   31  C   UNL     1       5.633   3.661  20.814  0.00  0.00     0.129 C 
HETATM   32  C   UNL     1       3.726   5.097  20.703  0.00  0.00     0.158 C 
HETATM   33  C   UNL     1       4.637   3.229  21.873  0.00  0.00     0.053 C 
HETATM   34  C   UNL     1       3.804   4.488  22.106  0.00  0.00     0.140 C 
HETATM   35  O   UNL     1       6.353   4.450  18.248  0.00  0.00    -0.266 OA
BRANCH  34  36
HETATM   36  O   UNL     1       2.542   4.132  22.661  0.00  0.00    -0.389 OA
HETATM   37  C   UNL     1       1.450   4.473  21.814  0.00  0.00     0.202 C 
ENDBRANCH  34  36
ENDBRANCH   1  29
TORSDOF 6
ENDMDL
MODEL 8
REMARK VINA RESULT:    -7.587      5.092      6.484
REMARK INTER + INTRA:         -11.250
REMARK INTER:                 -10.047
REMARK INTRA:                  -1.203
REMARK UNBOUND:                -1.223
REMARK  6 active torsions:
REMARK  status: ('A' for Active; 'I' for Inactive)
REMARK    1  A    between atoms: O_2  and  C_3 
REMARK       I    between atoms: N_6  and  C_7 
REMARK    2  A    between atoms: C_7  and  C_9 
REMARK    3  A    between atoms: C_15  and  O_16 
REMARK    4  A    between atoms: C_17  and  C_18 
REMARK       I    between atoms: C_18  and  N_20 
REMARK    5  A    between atoms: N_20  and  C_22 
REMARK    6  A    between atoms: C_25  and  N_26 
ROOT
HETATM    1  C   UNL     1      10.079  15.086  24.161  0.00  0.00     0.157 A 
HETATM    2  N   UNL     1      10.255  16.199  23.415  0.00  0.00    -0.168 NA
HETATM    3  N   UNL     1       9.959  15.824  22.166  0.00  0.00    -0.277 N 
HETATM    4  H   UNL     1      10.026  16.518  21.432  0.00  0.00     0.189 HD
HETATM    5  C   UNL     1       9.573  14.521  22.047  0.00  0.00     0.065 A 
HETATM    6  C   UNL     1       9.164  13.779  20.941  0.00  0.00     0.069 C 
HETATM    7  C   UNL     1       8.758  12.457  21.184  0.00  0.00     0.083 C 
HETATM    8  C   UNL     1       8.814  11.876  22.468  0.00  0.00     0.066 C 
HETATM    9  C   UNL     1       9.361  12.630  23.519  0.00  0.00     0.036 C 
HETATM   10  C   UNL     1       9.667  13.993  23.327  0.00  0.00     0.029 A 
ENDROOT
BRANCH   8  11
HETATM   11  C   UNL     1       8.437  10.440  22.684  0.00  0.00     0.260 C 
HETATM   12  O   UNL     1       7.227  10.246  22.830  0.00  0.00    -0.267 OA
HETATM   13  N   UNL     1       9.410   9.398  22.722  0.00  0.00    -0.318 N 
HETATM   14  C   UNL     1      10.865   9.617  22.777  0.00  0.00     0.159 C 
BRANCH  13  15
HETATM   15  C   UNL     1       8.990   8.020  22.930  0.00  0.00     0.037 A 
HETATM   16  C   UNL     1       8.958   7.432  24.196  0.00  0.00     0.032 A 
HETATM   17  C   UNL     1       8.596   6.085  24.378  0.00  0.00     0.031 A 
HETATM   18  C   UNL     1       8.224   5.255  23.316  0.00  0.00     0.030 A 
HETATM   19  C   UNL     1       8.211   5.863  22.057  0.00  0.00     0.031 A 
HETATM   20  C   UNL     1       8.581   7.207  21.864  0.00  0.00     0.032 A 
BRANCH  18  21
HETATM   21  N   UNL     1       7.876   3.935  23.499  0.00  0.00    -0.377 N 
HETATM   22  C   UNL     1       8.828   2.824  23.346  0.00  0.00     0.149 C 
HETATM   23  C   UNL     1       8.790   1.959  24.617  0.00  0.00     0.187 C 
HETATM   24  O   UNL     1       7.464   1.479  24.897  0.00  0.00    -0.388 OA
HETATM   25  C   UNL     1       6.560   2.585  25.075  0.00  0.00     0.187 C 
HETATM   26  C   UNL     1       6.514   3.483  23.828  0.00  0.00     0.149 C 
ENDBRANCH  18  21
ENDBRANCH  13  15
ENDBRANCH   8  11
BRANCH   7  27
HETATM   27  O   UNL     1       8.283  11.749  20.110  0.00  0.00    -0.360 OA
HETATM   28  H   UNL     1       7.704  12.307  19.564  0.00  0.00     0.217 HD
ENDBRANCH   7  27
BRANCH   1  29
HETATM   29  C   UNL     1      10.244  15.021  25.638  0.00  0.00     0.275 C 
HETATM   30  N   UNL     1      11.386  14.431  26.171  0.00  0.00    -0.344 N 
HETATM   31  C   UNL     1      11.620  14.381  27.600  0.00  0.00     0.129 C 
HETATM   32  C   UNL     1      12.481  13.799  25.449  0.00  0.00     0.158 C 
HETATM   33  C   UNL     1      13.107  14.112  27.729  0.00  0.00     0.053 C 
HETATM   34  C   UNL     1      13.408  13.224  26.523  0.00  0.00     0.140 C 
HETATM   35  O   UNL     1       9.389  15.506  26.383  0.00  0.00    -0.266 OA
BRANCH  34  36
HETATM   36  O   UNL     1      14.794  13.302  26.203  0.00  0.00    -0.389 OA
HETATM   37  C   UNL     1      15.108  14.419  25.380  0.00  0.00     0.202 C 
ENDBRANCH  34  36
ENDBRANCH   1  29
TORSDOF 6
ENDMDL
MODEL 9
REMARK VINA RESULT:    -7.425      5.226      7.312
REMARK INTER + INTRA:         -11.035
REMARK INTER:                  -9.812
REMARK INTRA:                  -1.223
REMARK UNBOUND:                -1.223
REMARK  6 active torsions:
REMARK  status: ('A' for Active; 'I' for Inactive)
REMARK    1  A    between atoms: O_2  and  C_3 
REMARK       I    between atoms: N_6  and  C_7 
REMARK    2  A    between atoms: C_7  and  C_9 
REMARK    3  A    between atoms: C_15  and  O_16 
REMARK    4  A    between atoms: C_17  and  C_18 
REMARK       I    between atoms: C_18  and  N_20 
REMARK    5  A    between atoms: N_20  and  C_22 
REMARK    6  A    between atoms: C_25  and  N_26 
ROOT
HETATM    1  C   UNL     1       9.548  11.787  21.849  0.00  0.00     0.157 A 
HETATM    2  N   UNL     1       9.881  12.226  20.615  0.00  0.00    -0.168 NA
HETATM    3  N   UNL     1       8.729  12.244  19.936  0.00  0.00    -0.277 N 
HETATM    4  H   UNL     1       8.750  12.548  18.970  0.00  0.00     0.189 HD
HETATM    5  C   UNL     1       7.641  11.861  20.664  0.00  0.00     0.065 A 
HETATM    6  C   UNL     1       6.291  11.778  20.329  0.00  0.00     0.069 C 
HETATM    7  C   UNL     1       5.409  11.409  21.357  0.00  0.00     0.083 C 
HETATM    8  C   UNL     1       5.857  11.076  22.652  0.00  0.00     0.066 C 
HETATM    9  C   UNL     1       7.241  11.047  22.893  0.00  0.00     0.036 C 
HETATM   10  C   UNL     1       8.139  11.524  21.915  0.00  0.00     0.029 A 
ENDROOT
BRANCH   8  11
HETATM   11  C   UNL     1       4.897  10.620  23.710  0.00  0.00     0.260 C 
HETATM   12  O   UNL     1       4.607  11.483  24.543  0.00  0.00    -0.267 OA
HETATM   13  N   UNL     1       4.376   9.292  23.740  0.00  0.00    -0.318 N 
HETATM   14  C   UNL     1       4.868   8.184  22.906  0.00  0.00     0.159 C 
BRANCH  13  15
HETATM   15  C   UNL     1       3.442   8.902  24.787  0.00  0.00     0.037 A 
HETATM   16  C   UNL     1       3.868   8.400  26.018  0.00  0.00     0.032 A 
HETATM   17  C   UNL     1       2.955   7.983  27.003  0.00  0.00     0.031 A 
HETATM   18  C   UNL     1       1.569   8.062  26.829  0.00  0.00     0.030 A 
HETATM   19  C   UNL     1       1.150   8.611  25.613  0.00  0.00     0.031 A 
HETATM   20  C   UNL     1       2.056   9.023  24.618  0.00  0.00     0.032 A 
BRANCH  18  21
HETATM   21  N   UNL     1       0.681   7.646  27.794  0.00  0.00    -0.377 N 
HETATM   22  C   UNL     1      -0.742   7.387  27.520  0.00  0.00     0.149 C 
HETATM   23  C   UNL     1      -1.095   5.977  28.025  0.00  0.00     0.187 C 
HETATM   24  O   UNL     1      -0.792   5.818  29.422  0.00  0.00    -0.388 OA
HETATM   25  C   UNL     1       0.610   6.045  29.658  0.00  0.00     0.187 C 
HETATM   26  C   UNL     1       1.038   7.452  29.210  0.00  0.00     0.149 C 
ENDBRANCH  18  21
ENDBRANCH  13  15
ENDBRANCH   8  11
BRANCH   7  27
HETATM   27  O   UNL     1       4.072  11.401  21.051  0.00  0.00    -0.360 OA
HETATM   28  H   UNL     1       3.644  12.210  21.376  0.00  0.00     0.217 HD
ENDBRANCH   7  27
BRANCH   1  29
HETATM   29  C   UNL     1      10.500  11.646  22.982  0.00  0.00     0.275 C 
HETATM   30  N   UNL     1      10.533  12.624  23.971  0.00  0.00    -0.344 N 
HETATM   31  C   UNL     1      11.408  12.515  25.121  0.00  0.00     0.129 C 
HETATM   32  C   UNL     1       9.752  13.851  24.035  0.00  0.00     0.158 C 
HETATM   33  C   UNL     1      10.820  13.478  26.134  0.00  0.00     0.053 C 
HETATM   34  C   UNL     1      10.264  14.605  25.265  0.00  0.00     0.140 C 
HETATM   35  O   UNL     1      11.238  10.660  23.059  0.00  0.00    -0.266 OA
BRANCH  34  36
HETATM   36  O   UNL     1       9.255  15.310  25.982  0.00  0.00    -0.389 OA
HETATM   37  C   UNL     1       7.945  14.821  25.716  0.00  0.00     0.202 C 
ENDBRANCH  34  36
ENDBRANCH   1  29
TORSDOF 6
ENDMDL
