MODEL 1
REMARK VINA RESULT:    -6.999      0.000      0.000
REMARK INTER + INTRA:         -11.847
REMARK INTER:                 -10.242
REMARK INTRA:                  -1.605
REMARK UNBOUND:                -1.370
REMARK  9 active torsions:
REMARK  status: ('A' for Active; 'I' for Inactive)
REMARK    1  A    between atoms: O_2  and  C_3 
REMARK    2  A    between atoms: C_8  and  S_9 
REMARK    3  A    between atoms: S_9  and  C_10 
REMARK    4  A    between atoms: C_13  and  N_14 
REMARK    5  A    between atoms: N_19  and  C_20 
REMARK    6  A    between atoms: C_20  and  C_21 
REMARK    7  A    between atoms: C_21  and  N_22 
REMARK    8  A    between atoms: N_22  and  C_23 
REMARK    9  A    between atoms: C_23  and  C_24 
ROOT
HETATM    1  C   UNL     1       8.579  11.472  22.571  0.00  0.00     0.176 A 
HETATM    2  N   UNL     1       8.130  11.242  21.348  0.00  0.00    -0.217 NA
HETATM    3  C   UNL     1       6.890  10.654  21.523  0.00  0.00     0.145 A 
HETATM    4  C   UNL     1       5.927  10.133  20.635  0.00  0.00     0.135 A 
HETATM    5  N   UNL     1       4.817   9.552  21.148  0.00  0.00    -0.228 NA
HETATM    6  C   UNL     1       4.662   9.526  22.487  0.00  0.00     0.237 A 
HETATM    7  N   UNL     1       5.491  10.019  23.423  0.00  0.00    -0.222 NA
HETATM    8  C   UNL     1       6.590  10.555  22.871  0.00  0.00     0.165 A 
HETATM    9  N   UNL     1       7.665  11.099  23.527  0.00  0.00    -0.307 N 
ENDROOT
BRANCH   1  10
HETATM   10  S   UNL     1      10.228  11.888  22.940  0.00  0.00    -0.051 SA
BRANCH  10  11
HETATM   11  C   UNL     1      10.297  13.667  23.131  0.00  0.00     0.027 A 
HETATM   12  C   UNL     1      10.759  14.281  24.320  0.00  0.00     0.023 A 
HETATM   13  C   UNL     1      10.942  15.673  24.397  0.00  0.00     0.022 A 
HETATM   14  I   UNL     1      11.253  13.219  26.077  0.00  0.00    -0.043 I 
HETATM   15  C   UNL     1      10.696  16.467  23.284  0.00  0.00     0.038 A 
HETATM   16  C   UNL     1      10.263  15.881  22.100  0.00  0.00     0.069 A 
HETATM   17  C   UNL     1      10.015  14.502  22.048  0.00  0.00     0.057 A 
BRANCH  16  18
HETATM   18  O   UNL     1      10.116  16.710  21.025  0.00  0.00    -0.356 OA
HETATM   19  C   UNL     1      11.055  16.450  19.978  0.00  0.00     0.210 C 
ENDBRANCH  16  18
ENDBRANCH  10  11
ENDBRANCH   1  10
BRANCH   9  20
HETATM   20  C   UNL     1       7.717  11.248  24.967  0.00  0.00     0.163 C 
BRANCH  20  21
HETATM   21  C   UNL     1       7.286  12.634  25.493  0.00  0.00     0.289 C 
BRANCH  21  22
HETATM   22  N   UNL     1       5.887  13.016  25.288  0.00  0.00     0.085 N 
HETATM   23  H   UNL     1       5.310  12.633  26.037  0.00  0.00     0.315 HD
BRANCH  22  24
HETATM   24  C   UNL     1       5.699  14.460  25.168  0.00  0.00     0.277 C 
BRANCH  24  25
HETATM   25  C   UNL     1       5.305  14.924  23.745  0.00  0.00    -0.025 C 
HETATM   26  C   UNL     1       6.533  15.344  22.914  0.00  0.00     0.016 C 
HETATM   27  C   UNL     1       4.623  13.740  23.034  0.00  0.00     0.016 C 
HETATM   28  C   UNL     1       4.318  16.097  23.828  0.00  0.00     0.016 C 
ENDBRANCH  24  25
ENDBRANCH  22  24
ENDBRANCH  21  22
ENDBRANCH  20  21
ENDBRANCH   9  20
BRANCH   4  29
HETATM   29  N   UNL     1       6.055  10.136  19.251  0.00  0.00    -0.285 NA
HETATM   30  H   UNL     1       6.776  10.763  18.915  0.00  0.00     0.125 HD
HETATM   31  H   UNL     1       6.057   9.191  18.884  0.00  0.00     0.125 HD
ENDBRANCH   4  29
TORSDOF 9
ENDMDL
MODEL 2
REMARK VINA RESULT:    -6.887      3.539      5.097
REMARK INTER + INTRA:         -11.679
REMARK INTER:                 -10.226
REMARK INTRA:                  -1.454
REMARK UNBOUND:                -1.370
REMARK  9 active torsions:
REMARK  status: ('A' for Active; 'I' for Inactive)
REMARK    1  A    between atoms: O_2  and  C_3 
REMARK    2  A    between atoms: C_8  and  S_9 
REMARK    3  A    between atoms: S_9  and  C_10 
REMARK    4  A    between atoms: C_13  and  N_14 
REMARK    5  A    between atoms: N_19  and  C_20 
REMARK    6  A    between atoms: C_20  and  C_21 
REMARK    7  A    between atoms: C_21  and  N_22 
REMARK    8  A    between atoms: N_22  and  C_23 
REMARK    9  A    between atoms: C_23  and  C_24 
ROOT
HETATM    1  C   UNL     1       5.688  10.900  23.031  0.00  0.00     0.176 A 
HETATM    2  N   UNL     1       5.905  10.873  21.727  0.00  0.00    -0.217 NA
HETATM    3  C   UNL     1       5.208   9.769  21.267  0.00  0.00     0.145 A 
HETATM    4  C   UNL     1       5.068   9.166  20.001  0.00  0.00     0.135 A 
HETATM    5  N   UNL     1       4.346   8.025  19.901  0.00  0.00    -0.228 NA
HETATM    6  C   UNL     1       3.762   7.531  21.011  0.00  0.00     0.237 A 
HETATM    7  N   UNL     1       3.798   8.036  22.256  0.00  0.00    -0.222 NA
HETATM    8  C   UNL     1       4.549   9.146  22.313  0.00  0.00     0.165 A 
HETATM    9  N   UNL     1       4.846   9.888  23.428  0.00  0.00    -0.307 N 
ENDROOT
BRANCH   1  10
HETATM   10  S   UNL     1       6.595  11.878  24.148  0.00  0.00    -0.051 SA
BRANCH  10  11
HETATM   11  C   UNL     1       5.828  13.495  24.182  0.00  0.00     0.027 A 
HETATM   12  C   UNL     1       6.172  14.513  23.261  0.00  0.00     0.023 A 
HETATM   13  C   UNL     1       5.456  15.723  23.213  0.00  0.00     0.022 A 
HETATM   14  I   UNL     1       7.738  14.348  21.855  0.00  0.00    -0.043 I 
HETATM   15  C   UNL     1       4.372  15.922  24.058  0.00  0.00     0.038 A 
HETATM   16  C   UNL     1       4.005  14.925  24.954  0.00  0.00     0.069 A 
HETATM   17  C   UNL     1       4.763  13.749  25.049  0.00  0.00     0.057 A 
BRANCH  16  18
HETATM   18  O   UNL     1       2.883  15.156  25.700  0.00  0.00    -0.356 OA
HETATM   19  C   UNL     1       3.081  16.129  26.729  0.00  0.00     0.210 C 
ENDBRANCH  16  18
ENDBRANCH  10  11
ENDBRANCH   1  10
BRANCH   9  20
HETATM   20  C   UNL     1       4.291   9.604  24.736  0.00  0.00     0.163 C 
BRANCH  20  21
HETATM   21  C   UNL     1       3.090  10.486  25.138  0.00  0.00     0.289 C 
BRANCH  21  22
HETATM   22  N   UNL     1       2.252  11.001  24.053  0.00  0.00     0.085 N 
HETATM   23  H   UNL     1       2.379  10.432  23.216  0.00  0.00     0.315 HD
BRANCH  22  24
HETATM   24  C   UNL     1       0.839  11.093  24.413  0.00  0.00     0.277 C 
BRANCH  24  25
HETATM   25  C   UNL     1       0.180  12.438  24.023  0.00  0.00    -0.025 C 
HETATM   26  C   UNL     1      -1.134  12.233  23.243  0.00  0.00     0.016 C 
HETATM   27  C   UNL     1      -0.145  13.200  25.322  0.00  0.00     0.016 C 
HETATM   28  C   UNL     1       1.151  13.275  23.179  0.00  0.00     0.016 C 
ENDBRANCH  24  25
ENDBRANCH  22  24
ENDBRANCH  21  22
ENDBRANCH  20  21
ENDBRANCH   9  20
BRANCH   4  29
HETATM   29  N   UNL     1       5.658   9.642  18.837  0.00  0.00    -0.285 NA
HETATM   30  H   UNL     1       6.671   9.637  18.867  0.00  0.00     0.125 HD
HETATM   31  H   UNL     1       5.219   9.241  18.016  0.00  0.00     0.125 HD
ENDBRANCH   4  29
TORSDOF 9
ENDMDL
MODEL 3
REMARK VINA RESULT:    -6.808      1.570      2.151
REMARK INTER + INTRA:         -11.561
REMARK INTER:                  -9.783
REMARK INTRA:                  -1.778
REMARK UNBOUND:                -1.370
REMARK  9 active torsions:
REMARK  status: ('A' for Active; 'I' for Inactive)
REMARK    1  A    between atoms: O_2  and  C_3 
REMARK    2  A    between atoms: C_8  and  S_9 
REMARK    3  A    between atoms: S_9  and  C_10 
REMARK    4  A    between atoms: C_13  and  N_14 
REMARK    5  A    between atoms: N_19  and  C_20 
REMARK    6  A    between atoms: C_20  and  C_21 
REMARK    7  A    between atoms: C_21  and  N_22 
REMARK    8  A    between atoms: N_22  and  C_23 
REMARK    9  A    between atoms: C_23  and  C_24 
ROOT
HETATM    1  C   UNL     1       8.435  11.085  22.793  0.00  0.00     0.176 A 
HETATM    2  N   UNL     1       8.107  10.932  21.520  0.00  0.00    -0.217 NA
HETATM    3  C   UNL     1       6.804  10.466  21.537  0.00  0.00     0.145 A 
HETATM    4  C   UNL     1       5.902  10.067  20.530  0.00  0.00     0.135 A 
HETATM    5  N   UNL     1       4.690   9.586  20.897  0.00  0.00    -0.228 NA
HETATM    6  C   UNL     1       4.384   9.541  22.208  0.00  0.00     0.237 A 
HETATM    7  N   UNL     1       5.145   9.925  23.248  0.00  0.00    -0.222 NA
HETATM    8  C   UNL     1       6.346  10.363  22.839  0.00  0.00     0.165 A 
HETATM    9  N   UNL     1       7.387  10.780  23.629  0.00  0.00    -0.307 N 
ENDROOT
BRANCH   1  10
HETATM   10  S   UNL     1      10.064  11.324  23.355  0.00  0.00    -0.051 SA
BRANCH  10  11
HETATM   11  C   UNL     1      10.354  13.091  23.406  0.00  0.00     0.027 A 
HETATM   12  C   UNL     1      10.825  13.811  22.283  0.00  0.00     0.023 A 
HETATM   13  C   UNL     1      10.906  15.215  22.300  0.00  0.00     0.022 A 
HETATM   14  I   UNL     1      11.422  12.906  20.471  0.00  0.00    -0.043 I 
HETATM   15  C   UNL     1      10.492  15.920  23.423  0.00  0.00     0.038 A 
HETATM   16  C   UNL     1      10.005  15.232  24.528  0.00  0.00     0.069 A 
HETATM   17  C   UNL     1       9.990  13.830  24.534  0.00  0.00     0.057 A 
BRANCH  16  18
HETATM   18  O   UNL     1       9.543  15.991  25.566  0.00  0.00    -0.356 OA
HETATM   19  C   UNL     1       9.472  15.274  26.801  0.00  0.00     0.210 C 
ENDBRANCH  16  18
ENDBRANCH  10  11
ENDBRANCH   1  10
BRANCH   9  20
HETATM   20  C   UNL     1       7.291  10.886  25.071  0.00  0.00     0.163 C 
BRANCH  20  21
HETATM   21  C   UNL     1       7.153  12.326  25.608  0.00  0.00     0.289 C 
BRANCH  21  22
HETATM   22  N   UNL     1       5.912  13.037  25.292  0.00  0.00     0.085 N 
HETATM   23  H   UNL     1       5.256  12.951  26.067  0.00  0.00     0.315 HD
BRANCH  22  24
HETATM   24  C   UNL     1       6.128  14.439  24.941  0.00  0.00     0.277 C 
BRANCH  24  25
HETATM   25  C   UNL     1       5.683  14.800  23.503  0.00  0.00    -0.025 C 
HETATM   26  C   UNL     1       6.885  15.021  22.564  0.00  0.00     0.016 C 
HETATM   27  C   UNL     1       4.854  13.623  22.956  0.00  0.00     0.016 C 
HETATM   28  C   UNL     1       4.811  16.063  23.524  0.00  0.00     0.016 C 
ENDBRANCH  24  25
ENDBRANCH  22  24
ENDBRANCH  21  22
ENDBRANCH  20  21
ENDBRANCH   9  20
BRANCH   4  29
HETATM   29  N   UNL     1       6.184  10.093  19.170  0.00  0.00    -0.285 NA
HETATM   30  H   UNL     1       5.998   9.214  18.703  0.00  0.00     0.125 HD
HETATM   31  H   UNL     1       5.814  10.933  18.738  0.00  0.00     0.125 HD
ENDBRANCH   4  29
TORSDOF 9
ENDMDL
MODEL 4
REMARK VINA RESULT:    -6.800      6.987      9.725
REMARK INTER + INTRA:         -11.550
REMARK INTER:                 -10.707
REMARK INTRA:                  -0.843
REMARK UNBOUND:                -1.370
REMARK  9 active torsions:
REMARK  status: ('A' for Active; 'I' for Inactive)
REMARK    1  A    between atoms: O_2  and  C_3 
REMARK    2  A    between atoms: C_8  and  S_9 
REMARK    3  A    between atoms: S_9  and  C_10 
REMARK    4  A    between atoms: C_13  and  N_14 
REMARK    5  A    between atoms: N_19  and  C_20 
REMARK    6  A    between atoms: C_20  and  C_21 
REMARK    7  A    between atoms: C_21  and  N_22 
REMARK    8  A    between atoms: N_22  and  C_23 
REMARK    9  A    between atoms: C_23  and  C_24 
ROOT
HETATM    1  C   UNL     1       0.647   9.539  24.770  0.00  0.00     0.176 A 
HETATM    2  N   UNL     1      -0.616   9.571  24.378  0.00  0.00    -0.217 NA
HETATM    3  C   UNL     1      -0.897  10.911  24.172  0.00  0.00     0.145 A 
HETATM    4  C   UNL     1      -2.060  11.613  23.800  0.00  0.00     0.135 A 
HETATM    5  N   UNL     1      -2.015  12.966  23.750  0.00  0.00    -0.228 NA
HETATM    6  C   UNL     1      -0.849  13.582  24.027  0.00  0.00     0.237 A 
HETATM    7  N   UNL     1       0.325  13.018  24.358  0.00  0.00    -0.222 NA
HETATM    8  C   UNL     1       0.224  11.682  24.425  0.00  0.00     0.165 A 
HETATM    9  N   UNL     1       1.207  10.795  24.784  0.00  0.00    -0.307 N 
ENDROOT
BRANCH   1  10
HETATM   10  S   UNL     1       1.410   8.147  25.483  0.00  0.00    -0.051 SA
BRANCH  10  11
HETATM   11  C   UNL     1       0.678   7.911  27.100  0.00  0.00     0.027 A 
HETATM   12  C   UNL     1       1.341   7.205  28.132  0.00  0.00     0.023 A 
HETATM   13  C   UNL     1       0.814   7.156  29.435  0.00  0.00     0.022 A 
HETATM   14  I   UNL     1       3.171   6.186  27.873  0.00  0.00    -0.043 I 
HETATM   15  C   UNL     1      -0.362   7.833  29.734  0.00  0.00     0.038 A 
HETATM   16  C   UNL     1      -1.016   8.551  28.739  0.00  0.00     0.069 A 
HETATM   17  C   UNL     1      -0.525   8.540  27.425  0.00  0.00     0.057 A 
BRANCH  16  18
HETATM   18  O   UNL     1      -2.122   9.256  29.120  0.00  0.00    -0.356 OA
HETATM   19  C   UNL     1      -2.441  10.330  28.232  0.00  0.00     0.210 C 
ENDBRANCH  16  18
ENDBRANCH  10  11
ENDBRANCH   1  10
BRANCH   9  20
HETATM   20  C   UNL     1       2.569  11.199  25.069  0.00  0.00     0.163 C 
BRANCH  20  21
HETATM   21  C   UNL     1       3.357  11.728  23.852  0.00  0.00     0.289 C 
BRANCH  21  22
HETATM   22  N   UNL     1       3.642  13.164  23.819  0.00  0.00     0.085 N 
HETATM   23  H   UNL     1       2.974  13.636  23.211  0.00  0.00     0.315 HD
BRANCH  22  24
HETATM   24  C   UNL     1       3.664  13.775  25.146  0.00  0.00     0.277 C 
BRANCH  24  25
HETATM   25  C   UNL     1       4.227  15.217  25.162  0.00  0.00    -0.025 C 
HETATM   26  C   UNL     1       3.464  16.124  26.147  0.00  0.00     0.016 C 
HETATM   27  C   UNL     1       5.697  15.145  25.614  0.00  0.00     0.016 C 
HETATM   28  C   UNL     1       4.162  15.822  23.753  0.00  0.00     0.016 C 
ENDBRANCH  24  25
ENDBRANCH  22  24
ENDBRANCH  21  22
ENDBRANCH  20  21
ENDBRANCH   9  20
BRANCH   4  29
HETATM   29  N   UNL     1      -3.281  11.013  23.513  0.00  0.00    -0.285 NA
HETATM   30  H   UNL     1      -3.236  10.359  22.741  0.00  0.00     0.125 HD
HETATM   31  H   UNL     1      -3.737  10.694  24.361  0.00  0.00     0.125 HD
ENDBRANCH   4  29
TORSDOF 9
ENDMDL
MODEL 5
REMARK VINA RESULT:    -6.670      3.770      6.561
REMARK INTER + INTRA:         -11.355
REMARK INTER:                 -10.031
REMARK INTRA:                  -1.325
REMARK UNBOUND:                -1.370
REMARK  9 active torsions:
REMARK  status: ('A' for Active; 'I' for Inactive)
REMARK    1  A    between atoms: O_2  and  C_3 
REMARK    2  A    between atoms: C_8  and  S_9 
REMARK    3  A    between atoms: S_9  and  C_10 
REMARK    4  A    between atoms: C_13  and  N_14 
REMARK    5  A    between atoms: N_19  and  C_20 
REMARK    6  A    between atoms: C_20  and  C_21 
REMARK    7  A    between atoms: C_21  and  N_22 
REMARK    8  A    between atoms: N_22  and  C_23 
REMARK    9  A    between atoms: C_23  and  C_24 
ROOT
HETATM    1  C   UNL     1       5.330  11.619  23.670  0.00  0.00     0.176 A 
HETATM    2  N   UNL     1       4.640  11.035  22.704  0.00  0.00    -0.217 NA
HETATM    3  C   UNL     1       5.517  10.948  21.636  0.00  0.00     0.145 A 
HETATM    4  C   UNL     1       5.393  10.479  20.313  0.00  0.00     0.135 A 
HETATM    5  N   UNL     1       6.454  10.597  19.479  0.00  0.00    -0.228 NA
HETATM    6  C   UNL     1       7.595  11.128  19.960  0.00  0.00     0.237 A 
HETATM    7  N   UNL     1       7.839  11.574  21.204  0.00  0.00    -0.222 NA
HETATM    8  C   UNL     1       6.753  11.466  21.984  0.00  0.00     0.165 A 
HETATM    9  N   UNL     1       6.627  11.871  23.289  0.00  0.00    -0.307 N 
ENDROOT
BRANCH   1  10
HETATM   10  S   UNL     1       4.617  12.275  25.115  0.00  0.00    -0.051 SA
BRANCH  10  11
HETATM   11  C   UNL     1       2.999  12.902  24.671  0.00  0.00     0.027 A 
HETATM   12  C   UNL     1       2.806  14.218  24.188  0.00  0.00     0.023 A 
HETATM   13  C   UNL     1       1.553  14.641  23.709  0.00  0.00     0.022 A 
HETATM   14  I   UNL     1       4.333  15.672  24.093  0.00  0.00    -0.043 I 
HETATM   15  C   UNL     1       0.487  13.751  23.676  0.00  0.00     0.038 A 
HETATM   16  C   UNL     1       0.662  12.448  24.125  0.00  0.00     0.069 A 
HETATM   17  C   UNL     1       1.893  12.050  24.667  0.00  0.00     0.057 A 
BRANCH  16  18
HETATM   18  O   UNL     1      -0.406  11.606  23.993  0.00  0.00    -0.356 OA
HETATM   19  C   UNL     1      -1.538  12.224  23.375  0.00  0.00     0.210 C 
ENDBRANCH  16  18
ENDBRANCH  10  11
ENDBRANCH   1  10
BRANCH   9  20
HETATM   20  C   UNL     1       7.729  12.416  24.055  0.00  0.00     0.163 C 
BRANCH  20  21
HETATM   21  C   UNL     1       7.910  13.944  23.936  0.00  0.00     0.289 C 
BRANCH  21  22
HETATM   22  N   UNL     1       8.162  14.479  22.597  0.00  0.00     0.085 N 
HETATM   23  H   UNL     1       7.600  15.317  22.446  0.00  0.00     0.315 HD
BRANCH  22  24
HETATM   24  C   UNL     1       9.576  14.747  22.342  0.00  0.00     0.277 C 
BRANCH  24  25
HETATM   25  C   UNL     1       9.958  14.723  20.842  0.00  0.00    -0.025 C 
HETATM   26  C   UNL     1       8.716  14.710  19.930  0.00  0.00     0.016 C 
HETATM   27  C   UNL     1      10.764  16.000  20.540  0.00  0.00     0.016 C 
HETATM   28  C   UNL     1      10.828  13.495  20.540  0.00  0.00     0.016 C 
ENDBRANCH  24  25
ENDBRANCH  22  24
ENDBRANCH  21  22
ENDBRANCH  20  21
ENDBRANCH   9  20
BRANCH   4  29
HETATM   29  N   UNL     1       4.232   9.931  19.781  0.00  0.00    -0.285 NA
HETATM   30  H   UNL     1       3.583   9.602  20.486  0.00  0.00     0.125 HD
HETATM   31  H   UNL     1       3.855  10.520  19.046  0.00  0.00     0.125 HD
ENDBRANCH   4  29
TORSDOF 9
ENDMDL
MODEL 6
REMARK VINA RESULT:    -6.608      3.370      6.728
REMARK INTER + INTRA:         -11.263
REMARK INTER:                  -9.356
REMARK INTRA:                  -1.907
REMARK UNBOUND:                -1.370
REMARK  9 active torsions:
REMARK  status: ('A' for Active; 'I' for Inactive)
REMARK    1  A    between atoms: O_2  and  C_3 
REMARK    2  A    between atoms: C_8  and  S_9 
REMARK    3  A    between atoms: S_9  and  C_10 
REMARK    4  A    between atoms: C_13  and  N_14 
REMARK    5  A    between atoms: N_19  and  C_20 
REMARK    6  A    between atoms: C_20  and  C_21 
REMARK    7  A    between atoms: C_21  and  N_22 
REMARK    8  A    between atoms: N_22  and  C_23 
REMARK    9  A    between atoms: C_23  and  C_24 
ROOT
HETATM    1  C   UNL     1       8.182  14.961  23.415  0.00  0.00     0.176 A 
HETATM    2  N   UNL     1       7.970  15.280  24.682  0.00  0.00    -0.217 NA
HETATM    3  C   UNL     1       9.099  14.848  25.356  0.00  0.00     0.145 A 
HETATM    4  C   UNL     1       9.477  14.844  26.714  0.00  0.00     0.135 A 
HETATM    5  N   UNL     1      10.655  14.273  27.059  0.00  0.00    -0.228 NA
HETATM    6  C   UNL     1      11.433  13.761  26.085  0.00  0.00     0.237 A 
HETATM    7  N   UNL     1      11.194  13.739  24.762  0.00  0.00    -0.222 NA
HETATM    8  C   UNL     1      10.004  14.287  24.472  0.00  0.00     0.165 A 
HETATM    9  N   UNL     1       9.417  14.384  23.235  0.00  0.00    -0.307 N 
ENDROOT
BRANCH   1  10
HETATM   10  S   UNL     1       6.947  14.971  22.190  0.00  0.00    -0.051 SA
BRANCH  10  11
HETATM   11  C   UNL     1       5.805  13.648  22.576  0.00  0.00     0.027 A 
HETATM   12  C   UNL     1       4.608  13.871  23.300  0.00  0.00     0.023 A 
HETATM   13  C   UNL     1       3.658  12.848  23.466  0.00  0.00     0.022 A 
HETATM   14  I   UNL     1       4.090  15.721  24.174  0.00  0.00    -0.043 I 
HETATM   15  C   UNL     1       3.870  11.602  22.890  0.00  0.00     0.038 A 
HETATM   16  C   UNL     1       5.028  11.371  22.156  0.00  0.00     0.069 A 
HETATM   17  C   UNL     1       6.007  12.370  22.051  0.00  0.00     0.057 A 
BRANCH  16  18
HETATM   18  O   UNL     1       5.136  10.149  21.553  0.00  0.00    -0.356 OA
HETATM   19  C   UNL     1       5.073  10.217  20.126  0.00  0.00     0.210 C 
ENDBRANCH  16  18
ENDBRANCH  10  11
ENDBRANCH   1  10
BRANCH   9  20
HETATM   20  C   UNL     1      10.075  13.965  22.015  0.00  0.00     0.163 C 
BRANCH  20  21
HETATM   21  C   UNL     1       9.808  12.503  21.601  0.00  0.00     0.289 C 
BRANCH  21  22
HETATM   22  N   UNL     1      10.120  11.467  22.588  0.00  0.00     0.085 N 
HETATM   23  H   UNL     1      10.435  11.898  23.457  0.00  0.00     0.315 HD
BRANCH  22  24
HETATM   24  C   UNL     1       9.007  10.552  22.832  0.00  0.00     0.277 C 
BRANCH  24  25
HETATM   25  C   UNL     1       8.782  10.225  24.328  0.00  0.00    -0.025 C 
HETATM   26  C   UNL     1       7.860  11.252  25.013  0.00  0.00     0.016 C 
HETATM   27  C   UNL     1       8.109   8.842  24.413  0.00  0.00     0.016 C 
HETATM   28  C   UNL     1      10.129  10.174  25.064  0.00  0.00     0.016 C 
ENDBRANCH  24  25
ENDBRANCH  22  24
ENDBRANCH  21  22
ENDBRANCH  20  21
ENDBRANCH   9  20
BRANCH   4  29
HETATM   29  N   UNL     1       8.699  15.357  27.746  0.00  0.00    -0.285 NA
HETATM   30  H   UNL     1       9.234  15.869  28.436  0.00  0.00     0.125 HD
HETATM   31  H   UNL     1       7.864  15.804  27.383  0.00  0.00     0.125 HD
ENDBRANCH   4  29
TORSDOF 9
ENDMDL
MODEL 7
REMARK VINA RESULT:    -6.561      2.171      2.850
REMARK INTER + INTRA:         -11.192
REMARK INTER:                 -10.095
REMARK INTRA:                  -1.097
REMARK UNBOUND:                -1.370
REMARK  9 active torsions:
REMARK  status: ('A' for Active; 'I' for Inactive)
REMARK    1  A    between atoms: O_2  and  C_3 
REMARK    2  A    between atoms: C_8  and  S_9 
REMARK    3  A    between atoms: S_9  and  C_10 
REMARK    4  A    between atoms: C_13  and  N_14 
REMARK    5  A    between atoms: N_19  and  C_20 
REMARK    6  A    between atoms: C_20  and  C_21 
REMARK    7  A    between atoms: C_21  and  N_22 
REMARK    8  A    between atoms: N_22  and  C_23 
REMARK    9  A    between atoms: C_23  and  C_24 
ROOT
HETATM    1  C   UNL     1       6.020  11.492  22.711  0.00  0.00     0.176 A 
HETATM    2  N   UNL     1       6.106  11.261  21.411  0.00  0.00    -0.217 NA
HETATM    3  C   UNL     1       5.351  10.121  21.197  0.00  0.00     0.145 A 
HETATM    4  C   UNL     1       5.077   9.337  20.058  0.00  0.00     0.135 A 
HETATM    5  N   UNL     1       4.333   8.216  20.204  0.00  0.00    -0.228 NA
HETATM    6  C   UNL     1       3.856   7.913  21.428  0.00  0.00     0.237 A 
HETATM    7  N   UNL     1       4.023   8.600  22.572  0.00  0.00    -0.222 NA
HETATM    8  C   UNL     1       4.791   9.684  22.385  0.00  0.00     0.165 A 
HETATM    9  N   UNL     1       5.207  10.578  23.338  0.00  0.00    -0.307 N 
ENDROOT
BRANCH   1  10
HETATM   10  S   UNL     1       7.047  12.602  23.572  0.00  0.00    -0.051 SA
BRANCH  10  11
HETATM   11  C   UNL     1       8.711  12.379  22.947  0.00  0.00     0.027 A 
HETATM   12  C   UNL     1       9.464  11.209  23.206  0.00  0.00     0.023 A 
HETATM   13  C   UNL     1      10.708  10.993  22.587  0.00  0.00     0.022 A 
HETATM   14  I   UNL     1       8.827   9.661  24.492  0.00  0.00    -0.043 I 
HETATM   15  C   UNL     1      11.203  11.922  21.682  0.00  0.00     0.038 A 
HETATM   16  C   UNL     1      10.468  13.067  21.397  0.00  0.00     0.069 A 
HETATM   17  C   UNL     1       9.262  13.314  22.068  0.00  0.00     0.057 A 
BRANCH  16  18
HETATM   18  O   UNL     1      10.977  13.899  20.440  0.00  0.00    -0.356 OA
HETATM   19  C   UNL     1      10.998  15.272  20.839  0.00  0.00     0.210 C 
ENDBRANCH  16  18
ENDBRANCH  10  11
ENDBRANCH   1  10
BRANCH   9  20
HETATM   20  C   UNL     1       4.781  10.511  24.721  0.00  0.00     0.163 C 
BRANCH  20  21
HETATM   21  C   UNL     1       3.643  11.483  25.098  0.00  0.00     0.289 C 
BRANCH  21  22
HETATM   22  N   UNL     1       4.034  12.772  25.672  0.00  0.00     0.085 N 
HETATM   23  H   UNL     1       5.051  12.839  25.716  0.00  0.00     0.315 HD
BRANCH  22  24
HETATM   24  C   UNL     1       3.466  13.914  24.959  0.00  0.00     0.277 C 
BRANCH  24  25
HETATM   25  C   UNL     1       4.144  15.264  25.297  0.00  0.00    -0.025 C 
HETATM   26  C   UNL     1       3.324  16.085  26.312  0.00  0.00     0.016 C 
HETATM   27  C   UNL     1       5.518  14.959  25.923  0.00  0.00     0.016 C 
HETATM   28  C   UNL     1       4.345  16.087  24.017  0.00  0.00     0.016 C 
ENDBRANCH  24  25
ENDBRANCH  22  24
ENDBRANCH  21  22
ENDBRANCH  20  21
ENDBRANCH   9  20
BRANCH   4  29
HETATM   29  N   UNL     1       5.556   9.614  18.783  0.00  0.00    -0.285 NA
HETATM   30  H   UNL     1       6.555   9.776  18.754  0.00  0.00     0.125 HD
HETATM   31  H   UNL     1       5.173   8.967  18.102  0.00  0.00     0.125 HD
ENDBRANCH   4  29
TORSDOF 9
ENDMDL
MODEL 8
REMARK VINA RESULT:    -6.552      2.461      3.145
REMARK INTER + INTRA:         -11.177
REMARK INTER:                  -9.807
REMARK INTRA:                  -1.370
REMARK UNBOUND:                -1.370
REMARK  9 active torsions:
REMARK  status: ('A' for Active; 'I' for Inactive)
REMARK    1  A    between atoms: O_2  and  C_3 
REMARK    2  A    between atoms: C_8  and  S_9 
REMARK    3  A    between atoms: S_9  and  C_10 
REMARK    4  A    between atoms: C_13  and  N_14 
REMARK    5  A    between atoms: N_19  and  C_20 
REMARK    6  A    between atoms: C_20  and  C_21 
REMARK    7  A    between atoms: C_21  and  N_22 
REMARK    8  A    between atoms: N_22  and  C_23 
REMARK    9  A    between atoms: C_23  and  C_24 
ROOT
HETATM    1  C   UNL     1       6.068  10.428  22.737  0.00  0.00     0.176 A 
HETATM    2  N   UNL     1       6.162  10.188  21.439  0.00  0.00    -0.217 NA
HETATM    3  C   UNL     1       5.213   9.213  21.183  0.00  0.00     0.145 A 
HETATM    4  C   UNL     1       4.843   8.498  20.026  0.00  0.00     0.135 A 
HETATM    5  N   UNL     1       3.893   7.538  20.131  0.00  0.00    -0.228 NA
HETATM    6  C   UNL     1       3.317   7.330  21.332  0.00  0.00     0.237 A 
HETATM    7  N   UNL     1       3.564   7.969  22.488  0.00  0.00    -0.222 NA
HETATM    8  C   UNL     1       4.531   8.887  22.343  0.00  0.00     0.165 A 
HETATM    9  N   UNL     1       5.071   9.684  23.321  0.00  0.00    -0.307 N 
ENDROOT
BRANCH   1  10
HETATM   10  S   UNL     1       7.251  11.320  23.649  0.00  0.00    -0.051 SA
BRANCH  10  11
HETATM   11  C   UNL     1       7.351  12.957  22.931  0.00  0.00     0.027 A 
HETATM   12  C   UNL     1       7.258  14.132  23.716  0.00  0.00     0.023 A 
HETATM   13  C   UNL     1       7.484  15.401  23.155  0.00  0.00     0.022 A 
HETATM   14  I   UNL     1       6.812  14.136  25.779  0.00  0.00    -0.043 I 
HETATM   15  C   UNL     1       7.834  15.516  21.815  0.00  0.00     0.038 A 
HETATM   16  C   UNL     1       7.952  14.372  21.034  0.00  0.00     0.069 A 
HETATM   17  C   UNL     1       7.658  13.114  21.578  0.00  0.00     0.057 A 
BRANCH  16  18
HETATM   18  O   UNL     1       8.375  14.552  19.747  0.00  0.00    -0.356 OA
HETATM   19  C   UNL     1       8.485  13.330  19.013  0.00  0.00     0.210 C 
ENDBRANCH  16  18
ENDBRANCH  10  11
ENDBRANCH   1  10
BRANCH   9  20
HETATM   20  C   UNL     1       4.583   9.697  24.685  0.00  0.00     0.163 C 
BRANCH  20  21
HETATM   21  C   UNL     1       3.377  10.627  24.935  0.00  0.00     0.289 C 
BRANCH  21  22
HETATM   22  N   UNL     1       3.670  12.039  25.190  0.00  0.00     0.085 N 
HETATM   23  H   UNL     1       4.627  12.139  25.530  0.00  0.00     0.315 HD
BRANCH  22  24
HETATM   24  C   UNL     1       3.435  12.893  24.028  0.00  0.00     0.277 C 
BRANCH  24  25
HETATM   25  C   UNL     1       2.796  14.259  24.374  0.00  0.00    -0.025 C 
HETATM   26  C   UNL     1       2.716  14.492  25.895  0.00  0.00     0.016 C 
HETATM   27  C   UNL     1       3.680  15.363  23.763  0.00  0.00     0.016 C 
HETATM   28  C   UNL     1       1.388  14.349  23.768  0.00  0.00     0.016 C 
ENDBRANCH  24  25
ENDBRANCH  22  24
ENDBRANCH  21  22
ENDBRANCH  20  21
ENDBRANCH   9  20
BRANCH   4  29
HETATM   29  N   UNL     1       5.417   8.681  18.774  0.00  0.00    -0.285 NA
HETATM   30  H   UNL     1       6.375   8.354  18.718  0.00  0.00     0.125 HD
HETATM   31  H   UNL     1       4.785   8.387  18.037  0.00  0.00     0.125 HD
ENDBRANCH   4  29
TORSDOF 9
ENDMDL
MODEL 9
REMARK VINA RESULT:    -6.487      3.279      6.118
REMARK INTER + INTRA:         -11.080
REMARK INTER:                  -9.882
REMARK INTRA:                  -1.198
REMARK UNBOUND:                -1.370
REMARK  9 active torsions:
REMARK  status: ('A' for Active; 'I' for Inactive)
REMARK    1  A    between atoms: O_2  and  C_3 
REMARK    2  A    between atoms: C_8  and  S_9 
REMARK    3  A    between atoms: S_9  and  C_10 
REMARK    4  A    between atoms: C_13  and  N_14 
REMARK    5  A    between atoms: N_19  and  C_20 
REMARK    6  A    between atoms: C_20  and  C_21 
REMARK    7  A    between atoms: C_21  and  N_22 
REMARK    8  A    between atoms: N_22  and  C_23 
REMARK    9  A    between atoms: C_23  and  C_24 
ROOT
HETATM    1  C   UNL     1       6.728  12.671  22.433  0.00  0.00     0.176 A 
HETATM    2  N   UNL     1       7.310  13.384  21.483  0.00  0.00    -0.217 NA
HETATM    3  C   UNL     1       8.515  13.794  22.026  0.00  0.00     0.145 A 
HETATM    4  C   UNL     1       9.566  14.608  21.557  0.00  0.00     0.135 A 
HETATM    5  N   UNL     1      10.604  14.872  22.385  0.00  0.00    -0.228 NA
HETATM    6  C   UNL     1      10.605  14.317  23.614  0.00  0.00     0.237 A 
HETATM    7  N   UNL     1       9.682  13.503  24.153  0.00  0.00    -0.222 NA
HETATM    8  C   UNL     1       8.659  13.296  23.310  0.00  0.00     0.165 A 
HETATM    9  N   UNL     1       7.523  12.565  23.550  0.00  0.00    -0.307 N 
ENDROOT
BRANCH   1  10
HETATM   10  S   UNL     1       5.053  12.200  22.408  0.00  0.00    -0.051 SA
BRANCH  10  11
HETATM   11  C   UNL     1       4.979  10.537  21.748  0.00  0.00     0.027 A 
HETATM   12  C   UNL     1       4.512   9.441  22.513  0.00  0.00     0.023 A 
HETATM   13  C   UNL     1       4.326   8.175  21.931  0.00  0.00     0.022 A 
HETATM   14  I   UNL     1       4.017   9.563  24.561  0.00  0.00    -0.043 I 
HETATM   15  C   UNL     1       4.572   7.990  20.576  0.00  0.00     0.038 A 
HETATM   16  C   UNL     1       5.009   9.060  19.803  0.00  0.00     0.069 A 
HETATM   17  C   UNL     1       5.261  10.303  20.400  0.00  0.00     0.057 A 
BRANCH  16  18
HETATM   18  O   UNL     1       5.157   8.827  18.465  0.00  0.00    -0.356 OA
HETATM   19  C   UNL     1       5.027   7.447  18.114  0.00  0.00     0.210 C 
ENDBRANCH  16  18
ENDBRANCH  10  11
ENDBRANCH   1  10
BRANCH   9  20
HETATM   20  C   UNL     1       7.310  11.817  24.772  0.00  0.00     0.163 C 
BRANCH  20  21
HETATM   21  C   UNL     1       6.769  12.646  25.955  0.00  0.00     0.289 C 
BRANCH  21  22
HETATM   22  N   UNL     1       5.433  13.225  25.804  0.00  0.00     0.085 N 
HETATM   23  H   UNL     1       4.841  12.940  26.584  0.00  0.00     0.315 HD
BRANCH  22  24
HETATM   24  C   UNL     1       5.450  14.680  25.665  0.00  0.00     0.277 C 
BRANCH  24  25
HETATM   25  C   UNL     1       4.110  15.277  25.172  0.00  0.00    -0.025 C 
HETATM   26  C   UNL     1       4.281  16.083  23.870  0.00  0.00     0.016 C 
HETATM   27  C   UNL     1       3.146  14.109  24.892  0.00  0.00     0.016 C 
HETATM   28  C   UNL     1       3.505  16.180  26.257  0.00  0.00     0.016 C 
ENDBRANCH  24  25
ENDBRANCH  22  24
ENDBRANCH  21  22
ENDBRANCH  20  21
ENDBRANCH   9  20
BRANCH   4  29
HETATM   29  N   UNL     1       9.596  15.200  20.300  0.00  0.00    -0.285 NA
HETATM   30  H   UNL     1       8.983  14.753  19.629  0.00  0.00     0.125 HD
HETATM   31  H   UNL     1       9.542  16.210  20.373  0.00  0.00     0.125 HD
ENDBRANCH   4  29
TORSDOF 9
ENDMDL
