MODEL 1
REMARK VINA RESULT:    -7.444      0.000      0.000
REMARK INTER + INTRA:         -10.353
REMARK INTER:                  -8.979
REMARK INTRA:                  -1.374
REMARK UNBOUND:                -1.169
REMARK  5 active torsions:
REMARK  status: ('A' for Active; 'I' for Inactive)
REMARK    1  A    between atoms: C_2  and  C_3 
REMARK    2  A    between atoms: C_5  and  C_6 
REMARK    3  A    between atoms: C_12  and  C_13 
REMARK    4  A    between atoms: C_20  and  O_21 
REMARK    5  A    between atoms: C_23  and  O_24 
ROOT
HETATM    1  C   UNL     1       8.224  13.130  21.667  0.00  0.00     0.103 C 
HETATM    2  N   UNL     1       9.365  12.988  20.970  0.00  0.00    -0.173 NA
HETATM    3  N   UNL     1       9.933  14.190  20.999  0.00  0.00    -0.281 N 
HETATM    4  H   UNL     1      10.769  14.331  20.443  0.00  0.00     0.189 HD
HETATM    5  C   UNL     1       9.282  15.103  21.773  0.00  0.00     0.037 C 
HETATM    6  C   UNL     1       9.808  16.490  21.861  0.00  0.00     0.070 C 
HETATM    7  C   UNL     1       8.190  14.429  22.314  0.00  0.00     0.031 C 
ENDROOT
BRANCH   1   8
HETATM    8  C   UNL     1       7.255  12.015  21.633  0.00  0.00     0.029 C 
HETATM    9  C   UNL     1       6.514  11.657  22.771  0.00  0.00     0.026 C 
HETATM   10  C   UNL     1       5.614  10.577  22.755  0.00  0.00    -0.024 C 
HETATM   11  C   UNL     1       5.323   9.970  21.534  0.00  0.00     0.074 C 
HETATM   12  C   UNL     1       6.030  10.308  20.382  0.00  0.00     0.074 C 
HETATM   13  C   UNL     1       7.008  11.292  20.450  0.00  0.00     0.081 C 
BRANCH  10  14
HETATM   14  C   UNL     1       5.025  10.082  24.051  0.00  0.00     0.037 C 
HETATM   15  C   UNL     1       4.635  11.201  24.997  0.00  0.00     0.010 C 
ENDBRANCH  10  14
BRANCH  11  16
HETATM   16  O   UNL     1       4.319   9.045  21.471  0.00  0.00    -0.360 OA
HETATM   17  H   UNL     1       3.666   9.272  22.155  0.00  0.00     0.217 HD
ENDBRANCH  11  16
BRANCH  13  18
HETATM   18  O   UNL     1       7.708  11.519  19.286  0.00  0.00    -0.360 OA
HETATM   19  H   UNL     1       7.033  11.756  18.610  0.00  0.00     0.217 HD
ENDBRANCH  13  18
ENDBRANCH   1   8
BRANCH   7  20
HETATM   20  C   UNL     1       7.189  15.030  23.216  0.00  0.00     0.000 C 
HETATM   21  C   UNL     1       5.938  15.419  22.702  0.00  0.00     0.014 C 
HETATM   22  C   UNL     1       4.889  15.811  23.541  0.00  0.00     0.001 C 
HETATM   23  C   UNL     1       5.051  15.766  24.919  0.00  0.00     0.002 C 
HETATM   24  C   UNL     1       6.297  15.449  25.452  0.00  0.00     0.024 C 
HETATM   25  C   UNL     1       7.378  15.153  24.608  0.00  0.00     0.045 C 
HETATM   26 CL   UNL     1       8.925  15.006  25.373  0.00  0.00    -0.083 Cl
ENDBRANCH   7  20
TORSDOF 5
ENDMDL
MODEL 2
REMARK VINA RESULT:    -7.330      2.507      3.984
REMARK INTER + INTRA:         -10.213
REMARK INTER:                  -8.675
REMARK INTRA:                  -1.538
REMARK UNBOUND:                -1.169
REMARK  5 active torsions:
REMARK  status: ('A' for Active; 'I' for Inactive)
REMARK    1  A    between atoms: C_2  and  C_3 
REMARK    2  A    between atoms: C_5  and  C_6 
REMARK    3  A    between atoms: C_12  and  C_13 
REMARK    4  A    between atoms: C_20  and  O_21 
REMARK    5  A    between atoms: C_23  and  O_24 
ROOT
HETATM    1  C   UNL     1       6.396  12.298  21.458  0.00  0.00     0.103 C 
HETATM    2  N   UNL     1       6.345  11.706  20.251  0.00  0.00    -0.173 NA
HETATM    3  N   UNL     1       7.598  11.734  19.806  0.00  0.00    -0.281 N 
HETATM    4  H   UNL     1       7.769  11.421  18.857  0.00  0.00     0.189 HD
HETATM    5  C   UNL     1       8.505  12.217  20.702  0.00  0.00     0.037 C 
HETATM    6  C   UNL     1       9.933  12.321  20.307  0.00  0.00     0.070 C 
HETATM    7  C   UNL     1       7.776  12.522  21.849  0.00  0.00     0.031 C 
ENDROOT
BRANCH   1   8
HETATM    8  C   UNL     1       5.115  12.618  22.120  0.00  0.00     0.029 C 
HETATM    9  C   UNL     1       4.869  13.892  22.656  0.00  0.00     0.026 C 
HETATM   10  C   UNL     1       3.665  14.195  23.317  0.00  0.00    -0.024 C 
HETATM   11  C   UNL     1       2.630  13.261  23.276  0.00  0.00     0.074 C 
HETATM   12  C   UNL     1       2.835  11.992  22.742  0.00  0.00     0.074 C 
HETATM   13  C   UNL     1       4.077  11.671  22.209  0.00  0.00     0.081 C 
BRANCH  10  14
HETATM   14  C   UNL     1       3.542  15.490  24.079  0.00  0.00     0.037 C 
HETATM   15  C   UNL     1       4.880  16.070  24.493  0.00  0.00     0.010 C 
ENDBRANCH  10  14
BRANCH  11  16
HETATM   16  O   UNL     1       1.398  13.611  23.752  0.00  0.00    -0.360 OA
HETATM   17  H   UNL     1       0.964  12.802  24.070  0.00  0.00     0.217 HD
ENDBRANCH  11  16
BRANCH  13  18
HETATM   18  O   UNL     1       4.219  10.375  21.765  0.00  0.00    -0.360 OA
HETATM   19  H   UNL     1       3.572  10.272  21.031  0.00  0.00     0.217 HD
ENDBRANCH  13  18
ENDBRANCH   1   8
BRANCH   7  20
HETATM   20  C   UNL     1       8.347  13.088  23.086  0.00  0.00     0.000 C 
HETATM   21  C   UNL     1       8.714  12.228  24.138  0.00  0.00     0.014 C 
HETATM   22  C   UNL     1       9.434  12.688  25.245  0.00  0.00     0.001 C 
HETATM   23  C   UNL     1       9.856  14.010  25.297  0.00  0.00     0.002 C 
HETATM   24  C   UNL     1       9.453  14.896  24.302  0.00  0.00     0.024 C 
HETATM   25  C   UNL     1       8.645  14.457  23.242  0.00  0.00     0.045 C 
HETATM   26 CL   UNL     1       8.016  15.691  22.202  0.00  0.00    -0.083 Cl
ENDBRANCH   7  20
TORSDOF 5
ENDMDL
MODEL 3
REMARK VINA RESULT:    -7.297      1.308      2.360
REMARK INTER + INTRA:         -10.172
REMARK INTER:                  -9.221
REMARK INTRA:                  -0.951
REMARK UNBOUND:                -1.169
REMARK  5 active torsions:
REMARK  status: ('A' for Active; 'I' for Inactive)
REMARK    1  A    between atoms: C_2  and  C_3 
REMARK    2  A    between atoms: C_5  and  C_6 
REMARK    3  A    between atoms: C_12  and  C_13 
REMARK    4  A    between atoms: C_20  and  O_21 
REMARK    5  A    between atoms: C_23  and  O_24 
ROOT
HETATM    1  C   UNL     1       8.113  12.954  21.444  0.00  0.00     0.103 C 
HETATM    2  N   UNL     1       9.299  12.800  20.829  0.00  0.00    -0.173 NA
HETATM    3  N   UNL     1       9.933  13.954  21.018  0.00  0.00    -0.281 N 
HETATM    4  H   UNL     1      10.820  14.089  20.546  0.00  0.00     0.189 HD
HETATM    5  C   UNL     1       9.273  14.834  21.822  0.00  0.00     0.037 C 
HETATM    6  C   UNL     1       9.871  16.169  22.085  0.00  0.00     0.070 C 
HETATM    7  C   UNL     1       8.102  14.188  22.208  0.00  0.00     0.031 C 
ENDROOT
BRANCH   1   8
HETATM    8  C   UNL     1       7.087  11.915  21.225  0.00  0.00     0.029 C 
HETATM    9  C   UNL     1       6.642  11.589  19.934  0.00  0.00     0.026 C 
HETATM   10  C   UNL     1       5.642  10.623  19.720  0.00  0.00    -0.024 C 
HETATM   11  C   UNL     1       5.218   9.853  20.802  0.00  0.00     0.074 C 
HETATM   12  C   UNL     1       5.647  10.140  22.095  0.00  0.00     0.074 C 
HETATM   13  C   UNL     1       6.539  11.185  22.299  0.00  0.00     0.081 C 
BRANCH  10  14
HETATM   14  C   UNL     1       5.031  10.478  18.350  0.00  0.00     0.037 C 
HETATM   15  C   UNL     1       4.004  11.549  18.036  0.00  0.00     0.010 C 
ENDBRANCH  10  14
BRANCH  11  16
HETATM   16  O   UNL     1       4.385   8.793  20.579  0.00  0.00    -0.360 OA
HETATM   17  H   UNL     1       4.910   7.979  20.676  0.00  0.00     0.217 HD
ENDBRANCH  11  16
BRANCH  13  18
HETATM   18  O   UNL     1       6.860  11.449  23.611  0.00  0.00    -0.360 OA
HETATM   19  H   UNL     1       6.504  10.693  24.131  0.00  0.00     0.217 HD
ENDBRANCH  13  18
ENDBRANCH   1   8
BRANCH   7  20
HETATM   20  C   UNL     1       7.064  14.771  23.080  0.00  0.00     0.000 C 
HETATM   21  C   UNL     1       5.783  15.030  22.558  0.00  0.00     0.014 C 
HETATM   22  C   UNL     1       4.714  15.397  23.383  0.00  0.00     0.001 C 
HETATM   23  C   UNL     1       4.890  15.455  24.759  0.00  0.00     0.002 C 
HETATM   24  C   UNL     1       6.160  15.267  25.295  0.00  0.00     0.024 C 
HETATM   25  C   UNL     1       7.254  14.998  24.459  0.00  0.00     0.045 C 
HETATM   26 CL   UNL     1       8.813  15.018  25.213  0.00  0.00    -0.083 Cl
ENDBRANCH   7  20
TORSDOF 5
ENDMDL
MODEL 4
REMARK VINA RESULT:    -7.215      2.178      2.752
REMARK INTER + INTRA:         -10.072
REMARK INTER:                  -8.614
REMARK INTRA:                  -1.458
REMARK UNBOUND:                -1.169
REMARK  5 active torsions:
REMARK  status: ('A' for Active; 'I' for Inactive)
REMARK    1  A    between atoms: C_2  and  C_3 
REMARK    2  A    between atoms: C_5  and  C_6 
REMARK    3  A    between atoms: C_12  and  C_13 
REMARK    4  A    between atoms: C_20  and  O_21 
REMARK    5  A    between atoms: C_23  and  O_24 
ROOT
HETATM    1  C   UNL     1       8.425  12.974  23.272  0.00  0.00     0.103 C 
HETATM    2  N   UNL     1       9.686  12.692  23.644  0.00  0.00    -0.173 NA
HETATM    3  N   UNL     1       9.931  13.513  24.662  0.00  0.00    -0.281 N 
HETATM    4  H   UNL     1      10.873  13.535  25.036  0.00  0.00     0.189 HD
HETATM    5  C   UNL     1       8.858  14.254  25.059  0.00  0.00     0.037 C 
HETATM    6  C   UNL     1       9.018  15.228  26.170  0.00  0.00     0.070 C 
HETATM    7  C   UNL     1       7.807  13.871  24.231  0.00  0.00     0.031 C 
ENDROOT
BRANCH   1   8
HETATM    8  C   UNL     1       7.931  12.374  22.015  0.00  0.00     0.029 C 
HETATM    9  C   UNL     1       6.708  11.685  21.967  0.00  0.00     0.026 C 
HETATM   10  C   UNL     1       6.246  11.084  20.782  0.00  0.00    -0.024 C 
HETATM   11  C   UNL     1       6.934  11.337  19.596  0.00  0.00     0.074 C 
HETATM   12  C   UNL     1       8.144  12.027  19.604  0.00  0.00     0.074 C 
HETATM   13  C   UNL     1       8.647  12.501  20.808  0.00  0.00     0.081 C 
BRANCH  10  14
HETATM   14  C   UNL     1       5.058  10.158  20.834  0.00  0.00     0.037 C 
HETATM   15  C   UNL     1       4.552   9.913  22.241  0.00  0.00     0.010 C 
ENDBRANCH  10  14
BRANCH  11  16
HETATM   16  O   UNL     1       6.398  10.913  18.412  0.00  0.00    -0.360 OA
HETATM   17  H   UNL     1       5.453  10.739  18.562  0.00  0.00     0.217 HD
ENDBRANCH  11  16
BRANCH  13  18
HETATM   18  O   UNL     1       9.879  13.111  20.742  0.00  0.00    -0.360 OA
HETATM   19  H   UNL     1      10.532  12.383  20.631  0.00  0.00     0.217 HD
ENDBRANCH  13  18
ENDBRANCH   1   8
BRANCH   7  20
HETATM   20  C   UNL     1       6.440  14.424  24.291  0.00  0.00     0.000 C 
HETATM   21  C   UNL     1       6.204  15.739  23.849  0.00  0.00     0.014 C 
HETATM   22  C   UNL     1       4.907  16.243  23.702  0.00  0.00     0.001 C 
HETATM   23  C   UNL     1       3.814  15.420  23.938  0.00  0.00     0.002 C 
HETATM   24  C   UNL     1       4.018  14.137  24.437  0.00  0.00     0.024 C 
HETATM   25  C   UNL     1       5.317  13.666  24.680  0.00  0.00     0.045 C 
HETATM   26 CL   UNL     1       5.435  12.154  25.518  0.00  0.00    -0.083 Cl
ENDBRANCH   7  20
TORSDOF 5
ENDMDL
MODEL 5
REMARK VINA RESULT:    -7.203      3.061      5.203
REMARK INTER + INTRA:         -10.056
REMARK INTER:                  -8.572
REMARK INTRA:                  -1.484
REMARK UNBOUND:                -1.169
REMARK  5 active torsions:
REMARK  status: ('A' for Active; 'I' for Inactive)
REMARK    1  A    between atoms: C_2  and  C_3 
REMARK    2  A    between atoms: C_5  and  C_6 
REMARK    3  A    between atoms: C_12  and  C_13 
REMARK    4  A    between atoms: C_20  and  O_21 
REMARK    5  A    between atoms: C_23  and  O_24 
ROOT
HETATM    1  C   UNL     1       4.988  10.991  22.514  0.00  0.00     0.103 C 
HETATM    2  N   UNL     1       5.180   9.662  22.573  0.00  0.00    -0.173 NA
HETATM    3  N   UNL     1       4.154   9.200  23.281  0.00  0.00    -0.281 N 
HETATM    4  H   UNL     1       4.155   8.218  23.531  0.00  0.00     0.189 HD
HETATM    5  C   UNL     1       3.225  10.143  23.608  0.00  0.00     0.037 C 
HETATM    6  C   UNL     1       2.046   9.752  24.423  0.00  0.00     0.070 C 
HETATM    7  C   UNL     1       3.681  11.333  23.047  0.00  0.00     0.031 C 
ENDROOT
BRANCH   1   8
HETATM    8  C   UNL     1       6.085  11.820  21.974  0.00  0.00     0.029 C 
HETATM    9  C   UNL     1       6.392  13.074  22.527  0.00  0.00     0.026 C 
HETATM   10  C   UNL     1       7.413  13.883  21.997  0.00  0.00    -0.024 C 
HETATM   11  C   UNL     1       8.249  13.345  21.020  0.00  0.00     0.074 C 
HETATM   12  C   UNL     1       7.982  12.100  20.457  0.00  0.00     0.074 C 
HETATM   13  C   UNL     1       6.888  11.372  20.907  0.00  0.00     0.081 C 
BRANCH  10  14
HETATM   14  C   UNL     1       7.548  15.310  22.466  0.00  0.00     0.037 C 
HETATM   15  C   UNL     1       6.364  15.785  23.284  0.00  0.00     0.010 C 
ENDBRANCH  10  14
BRANCH  11  16
HETATM   16  O   UNL     1       9.354  14.049  20.628  0.00  0.00    -0.360 OA
HETATM   17  H   UNL     1      10.123  13.460  20.709  0.00  0.00     0.217 HD
ENDBRANCH  11  16
BRANCH  13  18
HETATM   18  O   UNL     1       6.651  10.184  20.253  0.00  0.00    -0.360 OA
HETATM   19  H   UNL     1       7.020   9.481  20.834  0.00  0.00     0.217 HD
ENDBRANCH  13  18
ENDBRANCH   1   8
BRANCH   7  20
HETATM   20  C   UNL     1       2.995  12.635  23.154  0.00  0.00     0.000 C 
HETATM   21  C   UNL     1       2.077  13.020  22.160  0.00  0.00     0.014 C 
HETATM   22  C   UNL     1       1.259  14.145  22.311  0.00  0.00     0.001 C 
HETATM   23  C   UNL     1       1.301  14.878  23.489  0.00  0.00     0.002 C 
HETATM   24  C   UNL     1       2.245  14.558  24.461  0.00  0.00     0.024 C 
HETATM   25  C   UNL     1       3.134  13.490  24.266  0.00  0.00     0.045 C 
HETATM   26 CL   UNL     1       4.408  13.338  25.429  0.00  0.00    -0.083 Cl
ENDBRANCH   7  20
TORSDOF 5
ENDMDL
MODEL 6
REMARK VINA RESULT:    -7.120      2.555      5.446
REMARK INTER + INTRA:          -9.954
REMARK INTER:                  -8.550
REMARK INTRA:                  -1.404
REMARK UNBOUND:                -1.169
REMARK  5 active torsions:
REMARK  status: ('A' for Active; 'I' for Inactive)
REMARK    1  A    between atoms: C_2  and  C_3 
REMARK    2  A    between atoms: C_5  and  C_6 
REMARK    3  A    between atoms: C_12  and  C_13 
REMARK    4  A    between atoms: C_20  and  O_21 
REMARK    5  A    between atoms: C_23  and  O_24 
ROOT
HETATM    1  C   UNL     1       6.669  11.488  20.419  0.00  0.00     0.103 C 
HETATM    2  N   UNL     1       6.912  11.265  19.115  0.00  0.00    -0.173 NA
HETATM    3  N   UNL     1       6.358  10.082  18.864  0.00  0.00    -0.281 N 
HETATM    4  H   UNL     1       6.511   9.674  17.949  0.00  0.00     0.189 HD
HETATM    5  C   UNL     1       5.663   9.551  19.910  0.00  0.00     0.037 C 
HETATM    6  C   UNL     1       5.024   8.219  19.757  0.00  0.00     0.070 C 
HETATM    7  C   UNL     1       5.759  10.484  20.939  0.00  0.00     0.031 C 
ENDROOT
BRANCH   1   8
HETATM    8  C   UNL     1       7.351  12.632  21.058  0.00  0.00     0.029 C 
HETATM    9  C   UNL     1       6.652  13.532  21.879  0.00  0.00     0.026 C 
HETATM   10  C   UNL     1       7.287  14.642  22.465  0.00  0.00    -0.024 C 
HETATM   11  C   UNL     1       8.674  14.742  22.370  0.00  0.00     0.074 C 
HETATM   12  C   UNL     1       9.402  13.861  21.574  0.00  0.00     0.074 C 
HETATM   13  C   UNL     1       8.734  12.847  20.900  0.00  0.00     0.081 C 
BRANCH  10  14
HETATM   14  C   UNL     1       6.454  15.705  23.136  0.00  0.00     0.037 C 
HETATM   15  C   UNL     1       5.017  15.282  23.366  0.00  0.00     0.010 C 
ENDBRANCH  10  14
BRANCH  11  16
HETATM   16  O   UNL     1       9.322  15.710  23.085  0.00  0.00    -0.360 OA
HETATM   17  H   UNL     1       9.985  15.270  23.645  0.00  0.00     0.217 HD
ENDBRANCH  11  16
BRANCH  13  18
HETATM   18  O   UNL     1       9.514  12.061  20.080  0.00  0.00    -0.360 OA
HETATM   19  H   UNL     1       9.438  12.455  19.181  0.00  0.00     0.217 HD
ENDBRANCH  13  18
ENDBRANCH   1   8
BRANCH   7  20
HETATM   20  C   UNL     1       5.162  10.326  22.279  0.00  0.00     0.000 C 
HETATM   21  C   UNL     1       3.924  10.933  22.563  0.00  0.00     0.014 C 
HETATM   22  C   UNL     1       3.225  10.657  23.742  0.00  0.00     0.001 C 
HETATM   23  C   UNL     1       3.721   9.720  24.639  0.00  0.00     0.002 C 
HETATM   24  C   UNL     1       4.972   9.154  24.414  0.00  0.00     0.024 C 
HETATM   25  C   UNL     1       5.720   9.506  23.281  0.00  0.00     0.045 C 
HETATM   26 CL   UNL     1       7.350   8.921  23.232  0.00  0.00    -0.083 Cl
ENDBRANCH   7  20
TORSDOF 5
ENDMDL
MODEL 7
REMARK VINA RESULT:    -6.990      2.458      3.504
REMARK INTER + INTRA:          -9.794
REMARK INTER:                  -8.258
REMARK INTRA:                  -1.536
REMARK UNBOUND:                -1.169
REMARK  5 active torsions:
REMARK  status: ('A' for Active; 'I' for Inactive)
REMARK    1  A    between atoms: C_2  and  C_3 
REMARK    2  A    between atoms: C_5  and  C_6 
REMARK    3  A    between atoms: C_12  and  C_13 
REMARK    4  A    between atoms: C_20  and  O_21 
REMARK    5  A    between atoms: C_23  and  O_24 
ROOT
HETATM    1  C   UNL     1       5.177  12.949  22.345  0.00  0.00     0.103 C 
HETATM    2  N   UNL     1       3.841  13.094  22.356  0.00  0.00    -0.173 NA
HETATM    3  N   UNL     1       3.631  14.267  22.946  0.00  0.00    -0.281 N 
HETATM    4  H   UNL     1       2.673  14.531  23.147  0.00  0.00     0.189 HD
HETATM    5  C   UNL     1       4.766  14.964  23.235  0.00  0.00     0.037 C 
HETATM    6  C   UNL     1       4.659  16.278  23.921  0.00  0.00     0.070 C 
HETATM    7  C   UNL     1       5.819  14.178  22.775  0.00  0.00     0.031 C 
ENDROOT
BRANCH   1   8
HETATM    8  C   UNL     1       5.722  11.635  21.945  0.00  0.00     0.029 C 
HETATM    9  C   UNL     1       6.683  10.975  22.728  0.00  0.00     0.026 C 
HETATM   10  C   UNL     1       7.230   9.739  22.338  0.00  0.00    -0.024 C 
HETATM   11  C   UNL     1       6.670   9.079  21.245  0.00  0.00     0.074 C 
HETATM   12  C   UNL     1       5.706   9.697  20.454  0.00  0.00     0.074 C 
HETATM   13  C   UNL     1       5.273  10.975  20.785  0.00  0.00     0.081 C 
BRANCH  10  14
HETATM   14  C   UNL     1       8.423   9.189  23.077  0.00  0.00     0.037 C 
HETATM   15  C   UNL     1       9.066  10.196  24.010  0.00  0.00     0.010 C 
ENDBRANCH  10  14
BRANCH  11  16
HETATM   16  O   UNL     1       7.065   7.801  20.966  0.00  0.00    -0.360 OA
HETATM   17  H   UNL     1       7.397   7.407  21.791  0.00  0.00     0.217 HD
ENDBRANCH  11  16
BRANCH  13  18
HETATM   18  O   UNL     1       4.371  11.544  19.914  0.00  0.00    -0.360 OA
HETATM   19  H   UNL     1       3.958  10.794  19.429  0.00  0.00     0.217 HD
ENDBRANCH  13  18
ENDBRANCH   1   8
BRANCH   7  20
HETATM   20  C   UNL     1       7.247  14.532  22.884  0.00  0.00     0.000 C 
HETATM   21  C   UNL     1       7.895  15.147  21.796  0.00  0.00     0.014 C 
HETATM   22  C   UNL     1       9.184  15.677  21.913  0.00  0.00     0.001 C 
HETATM   23  C   UNL     1       9.833  15.656  23.141  0.00  0.00     0.002 C 
HETATM   24  C   UNL     1       9.243  14.997  24.215  0.00  0.00     0.024 C 
HETATM   25  C   UNL     1       7.992  14.377  24.071  0.00  0.00     0.045 C 
HETATM   26 CL   UNL     1       7.471  13.393  25.398  0.00  0.00    -0.083 Cl
ENDBRANCH   7  20
TORSDOF 5
ENDMDL
MODEL 8
REMARK VINA RESULT:    -6.932      2.686      4.189
REMARK INTER + INTRA:          -9.722
REMARK INTER:                  -8.552
REMARK INTRA:                  -1.169
REMARK UNBOUND:                -1.169
REMARK  5 active torsions:
REMARK  status: ('A' for Active; 'I' for Inactive)
REMARK    1  A    between atoms: C_2  and  C_3 
REMARK    2  A    between atoms: C_5  and  C_6 
REMARK    3  A    between atoms: C_12  and  C_13 
REMARK    4  A    between atoms: C_20  and  O_21 
REMARK    5  A    between atoms: C_23  and  O_24 
ROOT
HETATM    1  C   UNL     1       4.453  13.205  22.431  0.00  0.00     0.103 C 
HETATM    2  N   UNL     1       3.134  13.443  22.534  0.00  0.00    -0.173 NA
HETATM    3  N   UNL     1       3.035  14.442  23.407  0.00  0.00    -0.281 N 
HETATM    4  H   UNL     1       2.107  14.717  23.707  0.00  0.00     0.189 HD
HETATM    5  C   UNL     1       4.231  14.957  23.812  0.00  0.00     0.037 C 
HETATM    6  C   UNL     1       4.249  16.059  24.808  0.00  0.00     0.070 C 
HETATM    7  C   UNL     1       5.204  14.234  23.126  0.00  0.00     0.031 C 
ENDROOT
BRANCH   1   8
HETATM    8  C   UNL     1       4.878  11.997  21.694  0.00  0.00     0.029 C 
HETATM    9  C   UNL     1       4.819  11.940  20.292  0.00  0.00     0.026 C 
HETATM   10  C   UNL     1       5.191  10.783  19.585  0.00  0.00    -0.024 C 
HETATM   11  C   UNL     1       5.797   9.741  20.285  0.00  0.00     0.074 C 
HETATM   12  C   UNL     1       5.883   9.768  21.675  0.00  0.00     0.074 C 
HETATM   13  C   UNL     1       5.390  10.869  22.364  0.00  0.00     0.081 C 
BRANCH  10  14
HETATM   14  C   UNL     1       4.887  10.684  18.112  0.00  0.00     0.037 C 
HETATM   15  C   UNL     1       3.789  11.627  17.662  0.00  0.00     0.010 C 
ENDBRANCH  10  14
BRANCH  11  16
HETATM   16  O   UNL     1       6.327   8.691  19.589  0.00  0.00    -0.360 OA
HETATM   17  H   UNL     1       5.593   8.225  19.153  0.00  0.00     0.217 HD
ENDBRANCH  11  16
BRANCH  13  18
HETATM   18  O   UNL     1       5.449  10.789  23.737  0.00  0.00    -0.360 OA
HETATM   19  H   UNL     1       6.358  10.474  23.947  0.00  0.00     0.217 HD
ENDBRANCH  13  18
ENDBRANCH   1   8
BRANCH   7  20
HETATM   20  C   UNL     1       6.659  14.441  23.261  0.00  0.00     0.000 C 
HETATM   21  C   UNL     1       7.372  15.058  22.215  0.00  0.00     0.014 C 
HETATM   22  C   UNL     1       8.705  15.452  22.368  0.00  0.00     0.001 C 
HETATM   23  C   UNL     1       9.339  15.291  23.593  0.00  0.00     0.002 C 
HETATM   24  C   UNL     1       8.679  14.626  24.622  0.00  0.00     0.024 C 
HETATM   25  C   UNL     1       7.376  14.140  24.437  0.00  0.00     0.045 C 
HETATM   26 CL   UNL     1       6.752  13.130  25.698  0.00  0.00    -0.083 Cl
ENDBRANCH   7  20
TORSDOF 5
ENDMDL
