REMARK  5 active torsions:
REMARK  status: ('A' for Active; 'I' for Inactive)
REMARK    1  A    between atoms: C_2  and  C_3 
REMARK    2  A    between atoms: C_5  and  C_6 
REMARK    3  A    between atoms: C_12  and  C_13 
REMARK    4  A    between atoms: C_20  and  O_21 
REMARK    5  A    between atoms: C_23  and  O_24 
ROOT
HETATM    1  C   UNL     1       2.094   5.013   0.455  0.00  0.00     0.103 C 
HETATM    2  N   UNL     1       0.982   5.057  -0.300  0.00  0.00    -0.173 NA
HETATM    3  N   UNL     1       0.816   6.345  -0.586  0.00  0.00    -0.281 N 
HETATM    4  H   UNL     1      -0.031   6.616  -1.073  0.00  0.00     0.189 HD
HETATM    5  C   UNL     1       1.823   7.154  -0.150  0.00  0.00     0.037 C 
HETATM    6  C   UNL     1       1.735   8.618  -0.387  0.00  0.00     0.070 C 
HETATM    7  C   UNL     1       2.743   6.311   0.468  0.00  0.00     0.031 C 
ENDROOT
BRANCH   1   8
HETATM    8  C   UNL     1       2.424   3.734   1.117  0.00  0.00     0.029 C 
HETATM    9  C   UNL     1       3.167   3.700   2.308  0.00  0.00     0.026 C 
HETATM   10  C   UNL     1       3.513   2.485   2.927  0.00  0.00    -0.024 C 
HETATM   11  C   UNL     1       2.950   1.306   2.440  0.00  0.00     0.074 C 
HETATM   12  C   UNL     1       2.198   1.304   1.268  0.00  0.00     0.074 C 
HETATM   13  C   UNL     1       1.977   2.502   0.601  0.00  0.00     0.081 C 
BRANCH  10  14
HETATM   14  C   UNL     1       4.506   2.486   4.061  0.00  0.00     0.037 C 
HETATM   15  C   UNL     1       3.871   2.750   5.412  0.00  0.00     0.010 C 
ENDBRANCH  10  14
BRANCH  11  16
HETATM   16  O   UNL     1       3.129   0.145   3.138  0.00  0.00    -0.360 OA
HETATM   17  H   UNL     1       2.418  -0.467   2.881  0.00  0.00     0.217 HD
ENDBRANCH  11  16
BRANCH  13  18
HETATM   18  O   UNL     1       1.284   2.406  -0.585  0.00  0.00    -0.360 OA
HETATM   19  H   UNL     1       1.094   3.332  -0.859  0.00  0.00     0.217 HD
ENDBRANCH  13  18
ENDBRANCH   1   8
BRANCH   7  20
HETATM   20  C   UNL     1       3.999   6.754   1.103  0.00  0.00     0.000 C 
HETATM   21  C   UNL     1       4.019   7.953   1.840  0.00  0.00     0.014 C 
HETATM   22  C   UNL     1       5.122   8.318   2.619  0.00  0.00     0.001 C 
HETATM   23  C   UNL     1       6.209   7.461   2.725  0.00  0.00     0.002 C 
HETATM   24  C   UNL     1       6.243   6.301   1.957  0.00  0.00     0.024 C 
HETATM   25  C   UNL     1       5.180   5.984   1.098  0.00  0.00     0.045 C 
HETATM   26 CL   UNL     1       5.439   4.649   0.025  0.00  0.00    -0.083 Cl
ENDBRANCH   7  20
TORSDOF 5
