MODEL 1
REMARK VINA RESULT:    -8.296      0.000      0.000
REMARK INTER + INTRA:         -13.465
REMARK INTER:                 -12.224
REMARK INTRA:                  -1.241
REMARK UNBOUND:                -2.259
REMARK  7 active torsions:
REMARK  status: ('A' for Active; 'I' for Inactive)
REMARK    1  A    between atoms: C_6  and  C_7 
REMARK    2  A    between atoms: C_7  and  N_8 
REMARK       I    between atoms: N_8  and  C_10 
REMARK    3  A    between atoms: C_10  and  C_12 
REMARK    4  A    between atoms: C_14  and  C_15 
REMARK    5  A    between atoms: N_21  and  C_22 
REMARK    6  A    between atoms: C_29  and  O_30 
REMARK    7  A    between atoms: C_32  and  O_33 
ROOT
HETATM    1  C   UNL     1       2.661   7.200  24.406  0.00  0.00     0.066 C 
HETATM    2  C   UNL     1       3.263   7.348  23.133  0.00  0.00     0.038 C 
HETATM    3  C   UNL     1       3.969   6.286  22.538  0.00  0.00     0.046 C 
HETATM    4  C   UNL     1       3.935   5.031  23.159  0.00  0.00     0.082 C 
HETATM    5  C   UNL     1       3.418   4.891  24.438  0.00  0.00     0.075 C 
HETATM    6  C   UNL     1       2.877   5.997  25.091  0.00  0.00     0.084 C 
ENDROOT
BRANCH   3   7
HETATM    7  C   UNL     1       4.777   6.415  21.294  0.00  0.00     0.172 A 
HETATM    8  N   UNL     1       6.054   6.696  21.372  0.00  0.00    -0.151 NA
HETATM    9  N   UNL     1       6.458   6.791  20.076  0.00  0.00    -0.226 N 
HETATM   10  H   UNL     1       7.378   7.111  19.807  0.00  0.00     0.194 HD
HETATM   11  C   UNL     1       5.376   6.642  19.197  0.00  0.00     0.349 A 
HETATM   12  O   UNL     1       5.448   6.858  18.006  0.00  0.00    -0.245 OA
HETATM   13  N   UNL     1       4.298   6.319  20.008  0.00  0.00    -0.244 N 
BRANCH  13  14
HETATM   14  C   UNL     1       2.979   6.203  19.525  0.00  0.00     0.051 A 
HETATM   15  C   UNL     1       2.285   4.990  19.668  0.00  0.00     0.031 A 
HETATM   16  C   UNL     1       1.035   4.803  19.071  0.00  0.00     0.002 A 
HETATM   17  C   UNL     1       0.475   5.817  18.304  0.00  0.00     0.001 A 
HETATM   18  C   UNL     1       1.119   7.047  18.207  0.00  0.00     0.009 A 
HETATM   19  C   UNL     1       2.354   7.270  18.843  0.00  0.00    -0.035 A 
HETATM   20  C   UNL     1       2.925   8.662  18.770  0.00  0.00     0.050 C 
ENDBRANCH  13  14
ENDBRANCH   3   7
BRANCH   4  21
HETATM   21  O   UNL     1       4.439   3.889  22.598  0.00  0.00    -0.360 OA
HETATM   22  H   UNL     1       5.088   3.498  23.226  0.00  0.00     0.217 HD
ENDBRANCH   4  21
BRANCH   1  23
HETATM   23  C   UNL     1       1.919   8.383  24.964  0.00  0.00     0.256 C 
HETATM   24  N   UNL     1       0.520   8.393  25.119  0.00  0.00    -0.348 N 
HETATM   25  C   UNL     1      -0.354   7.246  24.934  0.00  0.00     0.153 C 
HETATM   26  O   UNL     1       2.604   9.377  25.223  0.00  0.00    -0.267 OA
BRANCH  24  27
HETATM   27  C   UNL     1      -0.108   9.547  25.760  0.00  0.00     0.164 C 
BRANCH  27  28
HETATM   28  C   UNL     1      -0.642  10.608  24.816  0.00  0.00    -0.040 A 
HETATM   29  C   UNL     1      -1.968  10.596  24.351  0.00  0.00     0.009 A 
HETATM   30  C   UNL     1      -2.496  11.705  23.681  0.00  0.00     0.001 A 
HETATM   31  C   UNL     1      -1.719  12.850  23.500  0.00  0.00     0.007 A 
HETATM   32  C   UNL     1      -0.391  12.869  23.937  0.00  0.00    -0.061 A 
HETATM   33  C   UNL     1       0.415  14.135  23.936  0.00  0.00     0.048 C 
HETATM   34  C   UNL     1       0.154  11.726  24.536  0.00  0.00     0.015 A 
ENDBRANCH  27  28
ENDBRANCH  24  27
ENDBRANCH   1  23
BRANCH   6  35
HETATM   35  O   UNL     1       2.638   5.881  26.431  0.00  0.00    -0.360 OA
HETATM   36  H   UNL     1       1.937   5.223  26.576  0.00  0.00     0.217 HD
ENDBRANCH   6  35
TORSDOF 7
ENDMDL
MODEL 2
REMARK VINA RESULT:    -8.202      1.283      1.839
REMARK INTER + INTRA:         -13.337
REMARK INTER:                 -11.618
REMARK INTRA:                  -1.719
REMARK UNBOUND:                -2.259
REMARK  7 active torsions:
REMARK  status: ('A' for Active; 'I' for Inactive)
REMARK    1  A    between atoms: C_6  and  C_7 
REMARK    2  A    between atoms: C_7  and  N_8 
REMARK       I    between atoms: N_8  and  C_10 
REMARK    3  A    between atoms: C_10  and  C_12 
REMARK    4  A    between atoms: C_14  and  C_15 
REMARK    5  A    between atoms: N_21  and  C_22 
REMARK    6  A    between atoms: C_29  and  O_30 
REMARK    7  A    between atoms: C_32  and  O_33 
ROOT
HETATM    1  C   UNL     1       3.565   7.956  24.340  0.00  0.00     0.066 C 
HETATM    2  C   UNL     1       3.784   7.949  22.941  0.00  0.00     0.038 C 
HETATM    3  C   UNL     1       4.650   7.011  22.349  0.00  0.00     0.046 C 
HETATM    4  C   UNL     1       5.172   5.987  23.149  0.00  0.00     0.082 C 
HETATM    5  C   UNL     1       5.030   6.026  24.528  0.00  0.00     0.075 C 
HETATM    6  C   UNL     1       4.314   7.065  25.120  0.00  0.00     0.084 C 
ENDROOT
BRANCH   3   7
HETATM    7  C   UNL     1       5.071   7.050  20.922  0.00  0.00     0.172 A 
HETATM    8  N   UNL     1       5.974   7.916  20.532  0.00  0.00    -0.151 NA
HETATM    9  N   UNL     1       6.075   7.714  19.190  0.00  0.00    -0.226 N 
HETATM   10  H   UNL     1       6.615   8.314  18.582  0.00  0.00     0.194 HD
HETATM   11  C   UNL     1       5.150   6.757  18.751  0.00  0.00     0.349 A 
HETATM   12  O   UNL     1       4.927   6.532  17.579  0.00  0.00    -0.245 OA
HETATM   13  N   UNL     1       4.556   6.277  19.907  0.00  0.00    -0.244 N 
BRANCH  13  14
HETATM   14  C   UNL     1       3.472   5.376  19.900  0.00  0.00     0.051 A 
HETATM   15  C   UNL     1       2.155   5.864  19.891  0.00  0.00     0.031 A 
HETATM   16  C   UNL     1       1.066   4.998  20.031  0.00  0.00     0.002 A 
HETATM   17  C   UNL     1       1.283   3.637  20.206  0.00  0.00     0.001 A 
HETATM   18  C   UNL     1       2.577   3.130  20.152  0.00  0.00     0.009 A 
HETATM   19  C   UNL     1       3.681   3.981  19.961  0.00  0.00    -0.035 A 
HETATM   20  C   UNL     1       5.033   3.332  19.811  0.00  0.00     0.050 C 
ENDBRANCH  13  14
ENDBRANCH   3   7
BRANCH   4  21
HETATM   21  O   UNL     1       5.888   4.927  22.661  0.00  0.00    -0.360 OA
HETATM   22  H   UNL     1       6.044   4.295  23.398  0.00  0.00     0.217 HD
ENDBRANCH   4  21
BRANCH   1  23
HETATM   23  C   UNL     1       2.617   8.987  24.888  0.00  0.00     0.256 C 
HETATM   24  N   UNL     1       1.266   8.702  25.162  0.00  0.00    -0.348 N 
HETATM   25  C   UNL     1       0.660   7.381  25.122  0.00  0.00     0.153 C 
HETATM   26  O   UNL     1       3.078  10.124  25.028  0.00  0.00    -0.267 OA
BRANCH  24  27
HETATM   27  C   UNL     1       0.441   9.737  25.784  0.00  0.00     0.164 C 
BRANCH  27  28
HETATM   28  C   UNL     1      -0.291  10.655  24.824  0.00  0.00    -0.040 A 
HETATM   29  C   UNL     1      -1.620  10.420  24.431  0.00  0.00     0.009 A 
HETATM   30  C   UNL     1      -2.340  11.400  23.741  0.00  0.00     0.001 A 
HETATM   31  C   UNL     1      -1.755  12.637  23.467  0.00  0.00     0.007 A 
HETATM   32  C   UNL     1      -0.427  12.878  23.831  0.00  0.00    -0.061 A 
HETATM   33  C   UNL     1       0.176  14.248  23.730  0.00  0.00     0.048 C 
HETATM   34  C   UNL     1       0.312  11.862  24.451  0.00  0.00     0.015 A 
ENDBRANCH  27  28
ENDBRANCH  24  27
ENDBRANCH   1  23
BRANCH   6  35
HETATM   35  O   UNL     1       4.430   7.218  26.472  0.00  0.00    -0.360 OA
HETATM   36  H   UNL     1       3.922   6.521  26.920  0.00  0.00     0.217 HD
ENDBRANCH   6  35
TORSDOF 7
ENDMDL
MODEL 3
REMARK VINA RESULT:    -8.168      1.520      2.047
REMARK INTER + INTRA:         -13.291
REMARK INTER:                 -12.083
REMARK INTRA:                  -1.208
REMARK UNBOUND:                -2.259
REMARK  7 active torsions:
REMARK  status: ('A' for Active; 'I' for Inactive)
REMARK    1  A    between atoms: C_6  and  C_7 
REMARK    2  A    between atoms: C_7  and  N_8 
REMARK       I    between atoms: N_8  and  C_10 
REMARK    3  A    between atoms: C_10  and  C_12 
REMARK    4  A    between atoms: C_14  and  C_15 
REMARK    5  A    between atoms: N_21  and  C_22 
REMARK    6  A    between atoms: C_29  and  O_30 
REMARK    7  A    between atoms: C_32  and  O_33 
ROOT
HETATM    1  C   UNL     1       2.783   6.470  23.612  0.00  0.00     0.066 C 
HETATM    2  C   UNL     1       3.629   7.115  22.678  0.00  0.00     0.038 C 
HETATM    3  C   UNL     1       4.461   6.371  21.821  0.00  0.00     0.046 C 
HETATM    4  C   UNL     1       4.324   4.977  21.802  0.00  0.00     0.082 C 
HETATM    5  C   UNL     1       3.560   4.330  22.762  0.00  0.00     0.075 C 
HETATM    6  C   UNL     1       2.877   5.076  23.721  0.00  0.00     0.084 C 
ENDROOT
BRANCH   3   7
HETATM    7  C   UNL     1       5.503   6.970  20.943  0.00  0.00     0.172 A 
HETATM    8  N   UNL     1       6.725   7.124  21.392  0.00  0.00    -0.151 NA
HETATM    9  N   UNL     1       7.384   7.736  20.371  0.00  0.00    -0.226 N 
HETATM   10  H   UNL     1       8.326   8.092  20.458  0.00  0.00     0.194 HD
HETATM   11  C   UNL     1       6.515   8.029  19.311  0.00  0.00     0.349 A 
HETATM   12  O   UNL     1       6.824   8.724  18.366  0.00  0.00    -0.245 OA
HETATM   13  N   UNL     1       5.306   7.451  19.669  0.00  0.00    -0.244 N 
BRANCH  13  14
HETATM   14  C   UNL     1       4.121   7.619  18.925  0.00  0.00     0.051 A 
HETATM   15  C   UNL     1       3.429   8.840  18.974  0.00  0.00     0.031 A 
HETATM   16  C   UNL     1       2.179   8.983  18.364  0.00  0.00     0.002 A 
HETATM   17  C   UNL     1       1.596   7.899  17.719  0.00  0.00     0.001 A 
HETATM   18  C   UNL     1       2.297   6.703  17.605  0.00  0.00     0.009 A 
HETATM   19  C   UNL     1       3.577   6.557  18.169  0.00  0.00    -0.035 A 
HETATM   20  C   UNL     1       4.303   5.263  17.905  0.00  0.00     0.050 C 
ENDBRANCH  13  14
ENDBRANCH   3   7
BRANCH   4  21
HETATM   21  O   UNL     1       4.953   4.160  20.902  0.00  0.00    -0.360 OA
HETATM   22  H   UNL     1       4.993   4.628  20.037  0.00  0.00     0.217 HD
ENDBRANCH   4  21
BRANCH   1  23
HETATM   23  C   UNL     1       1.921   7.341  24.483  0.00  0.00     0.256 C 
HETATM   24  N   UNL     1       2.308   8.636  24.878  0.00  0.00    -0.348 N 
HETATM   25  C   UNL     1       3.470   9.354  24.380  0.00  0.00     0.153 C 
HETATM   26  O   UNL     1       0.871   6.831  24.886  0.00  0.00    -0.267 OA
BRANCH  24  27
HETATM   27  C   UNL     1       1.366   9.449  25.644  0.00  0.00     0.164 C 
BRANCH  27  28
HETATM   28  C   UNL     1       0.462  10.351  24.825  0.00  0.00    -0.040 A 
HETATM   29  C   UNL     1      -0.856   9.990  24.500  0.00  0.00     0.009 A 
HETATM   30  C   UNL     1      -1.736  10.932  23.953  0.00  0.00     0.001 A 
HETATM   31  C   UNL     1      -1.319  12.250  23.759  0.00  0.00     0.007 A 
HETATM   32  C   UNL     1      -0.003  12.618  24.056  0.00  0.00    -0.061 A 
HETATM   33  C   UNL     1       0.428  14.055  24.046  0.00  0.00     0.048 C 
HETATM   34  C   UNL     1       0.893  11.650  24.529  0.00  0.00     0.015 A 
ENDBRANCH  27  28
ENDBRANCH  24  27
ENDBRANCH   1  23
BRANCH   6  35
HETATM   35  O   UNL     1       2.371   4.405  24.797  0.00  0.00    -0.360 OA
HETATM   36  H   UNL     1       1.810   5.006  25.316  0.00  0.00     0.217 HD
ENDBRANCH   6  35
TORSDOF 7
ENDMDL
MODEL 4
REMARK VINA RESULT:    -8.097      1.471      2.654
REMARK INTER + INTRA:         -13.195
REMARK INTER:                 -11.250
REMARK INTRA:                  -1.945
REMARK UNBOUND:                -2.259
REMARK  7 active torsions:
REMARK  status: ('A' for Active; 'I' for Inactive)
REMARK    1  A    between atoms: C_6  and  C_7 
REMARK    2  A    between atoms: C_7  and  N_8 
REMARK       I    between atoms: N_8  and  C_10 
REMARK    3  A    between atoms: C_10  and  C_12 
REMARK    4  A    between atoms: C_14  and  C_15 
REMARK    5  A    between atoms: N_21  and  C_22 
REMARK    6  A    between atoms: C_29  and  O_30 
REMARK    7  A    between atoms: C_32  and  O_33 
ROOT
HETATM    1  C   UNL     1       2.962   7.230  24.566  0.00  0.00     0.066 C 
HETATM    2  C   UNL     1       2.599   6.719  23.296  0.00  0.00     0.038 C 
HETATM    3  C   UNL     1       3.221   5.570  22.773  0.00  0.00     0.046 C 
HETATM    4  C   UNL     1       4.095   4.851  23.597  0.00  0.00     0.082 C 
HETATM    5  C   UNL     1       4.518   5.378  24.808  0.00  0.00     0.075 C 
HETATM    6  C   UNL     1       4.026   6.610  25.236  0.00  0.00     0.084 C 
ENDROOT
BRANCH   3   7
HETATM    7  C   UNL     1       3.026   5.078  21.382  0.00  0.00     0.172 A 
HETATM    8  N   UNL     1       2.169   4.116  21.144  0.00  0.00    -0.151 NA
HETATM    9  N   UNL     1       2.285   3.885  19.808  0.00  0.00    -0.226 N 
HETATM   10  H   UNL     1       1.827   3.114  19.340  0.00  0.00     0.194 HD
HETATM   11  C   UNL     1       3.296   4.675  19.243  0.00  0.00     0.349 A 
HETATM   12  O   UNL     1       3.706   4.526  18.111  0.00  0.00    -0.245 OA
HETATM   13  N   UNL     1       3.717   5.505  20.271  0.00  0.00    -0.244 N 
BRANCH  13  14
HETATM   14  C   UNL     1       4.816   6.379  20.153  0.00  0.00     0.051 A 
HETATM   15  C   UNL     1       6.086   5.971  20.594  0.00  0.00     0.031 A 
HETATM   16  C   UNL     1       7.159   6.869  20.624  0.00  0.00     0.002 A 
HETATM   17  C   UNL     1       6.967   8.189  20.237  0.00  0.00     0.001 A 
HETATM   18  C   UNL     1       5.733   8.592  19.737  0.00  0.00     0.009 A 
HETATM   19  C   UNL     1       4.657   7.690  19.652  0.00  0.00    -0.035 A 
HETATM   20  C   UNL     1       3.391   8.186  19.002  0.00  0.00     0.050 C 
ENDBRANCH  13  14
ENDBRANCH   3   7
BRANCH   4  21
HETATM   21  O   UNL     1       4.630   3.635  23.265  0.00  0.00    -0.360 OA
HETATM   22  H   UNL     1       4.546   3.039  24.043  0.00  0.00     0.217 HD
ENDBRANCH   4  21
BRANCH   1  23
HETATM   23  C   UNL     1       2.242   8.456  25.052  0.00  0.00     0.256 C 
HETATM   24  N   UNL     1       0.872   8.451  25.376  0.00  0.00    -0.348 N 
HETATM   25  C   UNL     1       0.031   7.268  25.451  0.00  0.00     0.153 C 
HETATM   26  O   UNL     1       2.911   9.494  25.094  0.00  0.00    -0.267 OA
BRANCH  24  27
HETATM   27  C   UNL     1       0.276   9.664  25.933  0.00  0.00     0.164 C 
BRANCH  27  28
HETATM   28  C   UNL     1      -0.314  10.627  24.920  0.00  0.00    -0.040 A 
HETATM   29  C   UNL     1      -1.600  10.449  24.382  0.00  0.00     0.009 A 
HETATM   30  C   UNL     1      -2.207  11.469  23.641  0.00  0.00     0.001 A 
HETATM   31  C   UNL     1      -1.552  12.689  23.459  0.00  0.00     0.007 A 
HETATM   32  C   UNL     1      -0.263  12.872  23.969  0.00  0.00    -0.061 A 
HETATM   33  C   UNL     1       0.395  14.220  23.965  0.00  0.00     0.048 C 
HETATM   34  C   UNL     1       0.368  11.818  24.643  0.00  0.00     0.015 A 
ENDBRANCH  27  28
ENDBRANCH  24  27
ENDBRANCH   1  23
BRANCH   6  35
HETATM   35  O   UNL     1       4.666   7.214  26.280  0.00  0.00    -0.360 OA
HETATM   36  H   UNL     1       5.084   8.035  25.969  0.00  0.00     0.217 HD
ENDBRANCH   6  35
TORSDOF 7
ENDMDL
MODEL 5
REMARK VINA RESULT:    -7.901      2.593      4.773
REMARK INTER + INTRA:         -12.931
REMARK INTER:                 -11.381
REMARK INTRA:                  -1.550
REMARK UNBOUND:                -2.259
REMARK  7 active torsions:
REMARK  status: ('A' for Active; 'I' for Inactive)
REMARK    1  A    between atoms: C_6  and  C_7 
REMARK    2  A    between atoms: C_7  and  N_8 
REMARK       I    between atoms: N_8  and  C_10 
REMARK    3  A    between atoms: C_10  and  C_12 
REMARK    4  A    between atoms: C_14  and  C_15 
REMARK    5  A    between atoms: N_21  and  C_22 
REMARK    6  A    between atoms: C_29  and  O_30 
REMARK    7  A    between atoms: C_32  and  O_33 
ROOT
HETATM    1  C   UNL     1       4.394   8.181  20.607  0.00  0.00     0.066 C 
HETATM    2  C   UNL     1       3.185   7.677  20.071  0.00  0.00     0.038 C 
HETATM    3  C   UNL     1       3.172   6.971  18.853  0.00  0.00     0.046 C 
HETATM    4  C   UNL     1       4.397   6.644  18.258  0.00  0.00     0.082 C 
HETATM    5  C   UNL     1       5.579   7.195  18.728  0.00  0.00     0.075 C 
HETATM    6  C   UNL     1       5.556   8.040  19.837  0.00  0.00     0.084 C 
ENDROOT
BRANCH   3   7
HETATM    7  C   UNL     1       1.931   6.568  18.137  0.00  0.00     0.172 A 
HETATM    8  N   UNL     1       1.267   7.452  17.434  0.00  0.00    -0.151 NA
HETATM    9  N   UNL     1       0.184   6.770  16.972  0.00  0.00    -0.226 N 
HETATM   10  H   UNL     1      -0.582   7.216  16.486  0.00  0.00     0.194 HD
HETATM   11  C   UNL     1       0.156   5.463  17.477  0.00  0.00     0.349 A 
HETATM   12  O   UNL     1      -0.794   4.718  17.352  0.00  0.00    -0.245 OA
HETATM   13  N   UNL     1       1.346   5.323  18.173  0.00  0.00    -0.244 N 
BRANCH  13  14
HETATM   14  C   UNL     1       1.660   4.184  18.943  0.00  0.00     0.051 A 
HETATM   15  C   UNL     1       1.514   4.221  20.339  0.00  0.00     0.031 A 
HETATM   16  C   UNL     1       1.955   3.159  21.136  0.00  0.00     0.002 A 
HETATM   17  C   UNL     1       2.569   2.061  20.547  0.00  0.00     0.001 A 
HETATM   18  C   UNL     1       2.662   1.980  19.162  0.00  0.00     0.009 A 
HETATM   19  C   UNL     1       2.178   3.016  18.342  0.00  0.00    -0.035 A 
HETATM   20  C   UNL     1       2.227   2.796  16.852  0.00  0.00     0.050 C 
ENDBRANCH  13  14
ENDBRANCH   3   7
BRANCH   4  21
HETATM   21  O   UNL     1       4.521   5.824  17.169  0.00  0.00    -0.360 OA
HETATM   22  H   UNL     1       4.013   6.220  16.426  0.00  0.00     0.217 HD
ENDBRANCH   4  21
BRANCH   1  23
HETATM   23  C   UNL     1       4.318   8.915  21.917  0.00  0.00     0.256 C 
HETATM   24  N   UNL     1       3.850   8.309  23.098  0.00  0.00    -0.348 N 
HETATM   25  C   UNL     1       3.548   6.896  23.254  0.00  0.00     0.153 C 
HETATM   26  O   UNL     1       4.636  10.109  21.886  0.00  0.00    -0.267 OA
BRANCH  24  27
HETATM   27  C   UNL     1       3.901   9.068  24.347  0.00  0.00     0.164 C 
BRANCH  27  28
HETATM   28  C   UNL     1       2.734  10.004  24.592  0.00  0.00    -0.040 A 
HETATM   29  C   UNL     1       2.810  11.380  24.317  0.00  0.00     0.009 A 
HETATM   30  C   UNL     1       1.656  12.171  24.326  0.00  0.00     0.001 A 
HETATM   31  C   UNL     1       0.411  11.592  24.575  0.00  0.00     0.007 A 
HETATM   32  C   UNL     1       0.322  10.228  24.873  0.00  0.00    -0.061 A 
HETATM   33  C   UNL     1      -1.004   9.531  24.955  0.00  0.00     0.048 C 
HETATM   34  C   UNL     1       1.492   9.460  24.938  0.00  0.00     0.015 A 
ENDBRANCH  27  28
ENDBRANCH  24  27
ENDBRANCH   1  23
BRANCH   6  35
HETATM   35  O   UNL     1       6.681   8.771  20.094  0.00  0.00    -0.360 OA
HETATM   36  H   UNL     1       7.395   8.482  19.500  0.00  0.00     0.217 HD
ENDBRANCH   6  35
TORSDOF 7
ENDMDL
MODEL 6
REMARK VINA RESULT:    -7.895      4.217      7.868
REMARK INTER + INTRA:         -12.923
REMARK INTER:                 -11.143
REMARK INTRA:                  -1.780
REMARK UNBOUND:                -2.259
REMARK  7 active torsions:
REMARK  status: ('A' for Active; 'I' for Inactive)
REMARK    1  A    between atoms: C_6  and  C_7 
REMARK    2  A    between atoms: C_7  and  N_8 
REMARK       I    between atoms: N_8  and  C_10 
REMARK    3  A    between atoms: C_10  and  C_12 
REMARK    4  A    between atoms: C_14  and  C_15 
REMARK    5  A    between atoms: N_21  and  C_22 
REMARK    6  A    between atoms: C_29  and  O_30 
REMARK    7  A    between atoms: C_32  and  O_33 
ROOT
HETATM    1  C   UNL     1       1.884   5.683  17.491  0.00  0.00     0.066 C 
HETATM    2  C   UNL     1       3.095   5.838  18.207  0.00  0.00     0.038 C 
HETATM    3  C   UNL     1       3.548   7.112  18.597  0.00  0.00     0.046 C 
HETATM    4  C   UNL     1       2.703   8.210  18.398  0.00  0.00     0.082 C 
HETATM    5  C   UNL     1       1.554   8.087  17.632  0.00  0.00     0.075 C 
HETATM    6  C   UNL     1       1.207   6.846  17.100  0.00  0.00     0.084 C 
ENDROOT
BRANCH   3   7
HETATM    7  C   UNL     1       4.888   7.374  19.189  0.00  0.00     0.172 A 
HETATM    8  N   UNL     1       5.748   8.128  18.549  0.00  0.00    -0.151 NA
HETATM    9  N   UNL     1       6.860   8.111  19.334  0.00  0.00    -0.226 N 
HETATM   10  H   UNL     1       7.742   8.514  19.048  0.00  0.00     0.194 HD
HETATM   11  C   UNL     1       6.690   7.260  20.434  0.00  0.00     0.349 A 
HETATM   12  O   UNL     1       7.593   6.943  21.179  0.00  0.00    -0.245 OA
HETATM   13  N   UNL     1       5.368   6.847  20.366  0.00  0.00    -0.244 N 
BRANCH  13  14
HETATM   14  C   UNL     1       4.818   5.878  21.229  0.00  0.00     0.051 A 
HETATM   15  C   UNL     1       5.073   4.515  21.004  0.00  0.00     0.031 A 
HETATM   16  C   UNL     1       4.424   3.529  21.753  0.00  0.00     0.002 A 
HETATM   17  C   UNL     1       3.494   3.894  22.719  0.00  0.00     0.001 A 
HETATM   18  C   UNL     1       3.279   5.239  22.999  0.00  0.00     0.009 A 
HETATM   19  C   UNL     1       3.961   6.245  22.289  0.00  0.00    -0.035 A 
HETATM   20  C   UNL     1       3.743   7.669  22.731  0.00  0.00     0.050 C 
ENDBRANCH  13  14
ENDBRANCH   3   7
BRANCH   4  21
HETATM   21  O   UNL     1       2.957   9.466  18.880  0.00  0.00    -0.360 OA
HETATM   22  H   UNL     1       3.179   9.390  19.835  0.00  0.00     0.217 HD
ENDBRANCH   4  21
BRANCH   1  23
HETATM   23  C   UNL     1       1.470   4.286  17.122  0.00  0.00     0.256 C 
HETATM   24  N   UNL     1       1.054   3.342  18.081  0.00  0.00    -0.348 N 
HETATM   25  C   UNL     1       0.808   3.623  19.486  0.00  0.00     0.153 C 
HETATM   26  O   UNL     1       1.574   3.989  15.928  0.00  0.00    -0.267 OA
BRANCH  24  27
HETATM   27  C   UNL     1       0.577   2.038  17.623  0.00  0.00     0.164 C 
BRANCH  27  28
HETATM   28  C   UNL     1      -0.609   1.472  18.381  0.00  0.00    -0.040 A 
HETATM   29  C   UNL     1      -0.468   0.447  19.331  0.00  0.00     0.009 A 
HETATM   30  C   UNL     1      -1.531   0.112  20.178  0.00  0.00     0.001 A 
HETATM   31  C   UNL     1      -2.731   0.821  20.111  0.00  0.00     0.007 A 
HETATM   32  C   UNL     1      -2.894   1.829  19.155  0.00  0.00    -0.061 A 
HETATM   33  C   UNL     1      -4.086   2.740  19.175  0.00  0.00     0.048 C 
HETATM   34  C   UNL     1      -1.853   2.104  18.259  0.00  0.00     0.015 A 
ENDBRANCH  27  28
ENDBRANCH  24  27
ENDBRANCH   1  23
BRANCH   6  35
HETATM   35  O   UNL     1       0.238   6.823  16.138  0.00  0.00    -0.360 OA
HETATM   36  H   UNL     1      -0.162   5.937  16.106  0.00  0.00     0.217 HD
ENDBRANCH   6  35
TORSDOF 7
ENDMDL
MODEL 7
REMARK VINA RESULT:    -7.777      4.543      8.749
REMARK INTER + INTRA:         -12.764
REMARK INTER:                 -10.556
REMARK INTRA:                  -2.207
REMARK UNBOUND:                -2.259
REMARK  7 active torsions:
REMARK  status: ('A' for Active; 'I' for Inactive)
REMARK    1  A    between atoms: C_6  and  C_7 
REMARK    2  A    between atoms: C_7  and  N_8 
REMARK       I    between atoms: N_8  and  C_10 
REMARK    3  A    between atoms: C_10  and  C_12 
REMARK    4  A    between atoms: C_14  and  C_15 
REMARK    5  A    between atoms: N_21  and  C_22 
REMARK    6  A    between atoms: C_29  and  O_30 
REMARK    7  A    between atoms: C_32  and  O_33 
ROOT
HETATM    1  C   UNL     1       1.936   5.668  17.432  0.00  0.00     0.066 C 
HETATM    2  C   UNL     1       3.145   5.832  18.148  0.00  0.00     0.038 C 
HETATM    3  C   UNL     1       3.570   7.105  18.571  0.00  0.00     0.046 C 
HETATM    4  C   UNL     1       2.698   8.189  18.405  0.00  0.00     0.082 C 
HETATM    5  C   UNL     1       1.550   8.059  17.639  0.00  0.00     0.075 C 
HETATM    6  C   UNL     1       1.230   6.825  17.075  0.00  0.00     0.084 C 
ENDROOT
BRANCH   3   7
HETATM    7  C   UNL     1       4.906   7.384  19.166  0.00  0.00     0.172 A 
HETATM    8  N   UNL     1       5.684   8.290  18.627  0.00  0.00    -0.151 NA
HETATM    9  N   UNL     1       6.820   8.246  19.375  0.00  0.00    -0.226 N 
HETATM   10  H   UNL     1       7.659   8.755  19.134  0.00  0.00     0.194 HD
HETATM   11  C   UNL     1       6.751   7.231  20.340  0.00  0.00     0.349 A 
HETATM   12  O   UNL     1       7.701   6.880  21.009  0.00  0.00    -0.245 OA
HETATM   13  N   UNL     1       5.463   6.729  20.240  0.00  0.00    -0.244 N 
BRANCH  13  14
HETATM   14  C   UNL     1       5.018   5.602  20.960  0.00  0.00     0.051 A 
HETATM   15  C   UNL     1       5.174   4.317  20.415  0.00  0.00     0.031 A 
HETATM   16  C   UNL     1       4.611   3.198  21.039  0.00  0.00     0.002 A 
HETATM   17  C   UNL     1       3.865   3.356  22.201  0.00  0.00     0.001 A 
HETATM   18  C   UNL     1       3.757   4.613  22.788  0.00  0.00     0.009 A 
HETATM   19  C   UNL     1       4.359   5.741  22.201  0.00  0.00    -0.035 A 
HETATM   20  C   UNL     1       4.277   7.040  22.961  0.00  0.00     0.050 C 
ENDBRANCH  13  14
ENDBRANCH   3   7
BRANCH   4  21
HETATM   21  O   UNL     1       2.925   9.437  18.919  0.00  0.00    -0.360 OA
HETATM   22  H   UNL     1       3.897   9.571  18.985  0.00  0.00     0.217 HD
ENDBRANCH   4  21
BRANCH   1  23
HETATM   23  C   UNL     1       1.553   4.272  17.027  0.00  0.00     0.256 C 
HETATM   24  N   UNL     1       1.211   3.279  17.965  0.00  0.00    -0.348 N 
HETATM   25  C   UNL     1       1.017   3.499  19.388  0.00  0.00     0.153 C 
HETATM   26  O   UNL     1       1.616   4.024  15.818  0.00  0.00    -0.267 OA
BRANCH  24  27
HETATM   27  C   UNL     1       0.759   1.977  17.477  0.00  0.00     0.164 C 
BRANCH  27  28
HETATM   28  C   UNL     1       1.850   0.947  17.254  0.00  0.00    -0.040 A 
HETATM   29  C   UNL     1       1.724  -0.081  16.304  0.00  0.00     0.009 A 
HETATM   30  C   UNL     1       2.829  -0.865  15.955  0.00  0.00     0.001 A 
HETATM   31  C   UNL     1       4.078  -0.608  16.522  0.00  0.00     0.007 A 
HETATM   32  C   UNL     1       4.214   0.397  17.485  0.00  0.00    -0.061 A 
HETATM   33  C   UNL     1       5.564   0.833  17.975  0.00  0.00     0.048 C 
HETATM   34  C   UNL     1       3.086   1.124  17.887  0.00  0.00     0.015 A 
ENDBRANCH  27  28
ENDBRANCH  24  27
ENDBRANCH   1  23
BRANCH   6  35
HETATM   35  O   UNL     1       0.258   6.805  16.115  0.00  0.00    -0.360 OA
HETATM   36  H   UNL     1       0.602   7.211  15.301  0.00  0.00     0.217 HD
ENDBRANCH   6  35
TORSDOF 7
ENDMDL
MODEL 8
REMARK VINA RESULT:    -7.700      2.469      4.716
REMARK INTER + INTRA:         -12.659
REMARK INTER:                 -10.727
REMARK INTRA:                  -1.932
REMARK UNBOUND:                -2.259
REMARK  7 active torsions:
REMARK  status: ('A' for Active; 'I' for Inactive)
REMARK    1  A    between atoms: C_6  and  C_7 
REMARK    2  A    between atoms: C_7  and  N_8 
REMARK       I    between atoms: N_8  and  C_10 
REMARK    3  A    between atoms: C_10  and  C_12 
REMARK    4  A    between atoms: C_14  and  C_15 
REMARK    5  A    between atoms: N_21  and  C_22 
REMARK    6  A    between atoms: C_29  and  O_30 
REMARK    7  A    between atoms: C_32  and  O_33 
ROOT
HETATM    1  C   UNL     1       4.210   7.778  20.643  0.00  0.00     0.066 C 
HETATM    2  C   UNL     1       3.117   7.371  19.840  0.00  0.00     0.038 C 
HETATM    3  C   UNL     1       3.321   6.855  18.547  0.00  0.00     0.046 C 
HETATM    4  C   UNL     1       4.634   6.606  18.128  0.00  0.00     0.082 C 
HETATM    5  C   UNL     1       5.711   7.069  18.868  0.00  0.00     0.075 C 
HETATM    6  C   UNL     1       5.488   7.740  20.069  0.00  0.00     0.084 C 
ENDROOT
BRANCH   3   7
HETATM    7  C   UNL     1       2.226   6.575  17.579  0.00  0.00     0.172 A 
HETATM    8  N   UNL     1       1.760   7.540  16.825  0.00  0.00    -0.151 NA
HETATM    9  N   UNL     1       0.755   6.958  16.116  0.00  0.00    -0.226 N 
HETATM   10  H   UNL     1       0.124   7.480  15.525  0.00  0.00     0.194 HD
HETATM   11  C   UNL     1       0.561   5.628  16.513  0.00  0.00     0.349 A 
HETATM   12  O   UNL     1      -0.383   4.954  16.156  0.00  0.00    -0.245 OA
HETATM   13  N   UNL     1       1.582   5.370  17.415  0.00  0.00    -0.244 N 
BRANCH  13  14
HETATM   14  C   UNL     1       1.678   4.171  18.148  0.00  0.00     0.051 A 
HETATM   15  C   UNL     1       2.529   3.145  17.705  0.00  0.00     0.031 A 
HETATM   16  C   UNL     1       2.533   1.894  18.329  0.00  0.00     0.002 A 
HETATM   17  C   UNL     1       1.669   1.646  19.389  0.00  0.00     0.001 A 
HETATM   18  C   UNL     1       0.868   2.671  19.882  0.00  0.00     0.009 A 
HETATM   19  C   UNL     1       0.888   3.951  19.298  0.00  0.00    -0.035 A 
HETATM   20  C   UNL     1       0.066   5.025  19.963  0.00  0.00     0.050 C 
ENDBRANCH  13  14
ENDBRANCH   3   7
BRANCH   4  21
HETATM   21  O   UNL     1       4.954   5.956  16.966  0.00  0.00    -0.360 OA
HETATM   22  H   UNL     1       4.215   6.082  16.329  0.00  0.00     0.217 HD
ENDBRANCH   4  21
BRANCH   1  23
HETATM   23  C   UNL     1       3.902   8.310  22.015  0.00  0.00     0.256 C 
HETATM   24  N   UNL     1       3.555   7.472  23.091  0.00  0.00    -0.348 N 
HETATM   25  C   UNL     1       3.611   6.019  23.077  0.00  0.00     0.153 C 
HETATM   26  O   UNL     1       3.912   9.540  22.132  0.00  0.00    -0.267 OA
BRANCH  24  27
HETATM   27  C   UNL     1       3.366   8.066  24.414  0.00  0.00     0.164 C 
BRANCH  27  28
HETATM   28  C   UNL     1       1.925   8.248  24.850  0.00  0.00    -0.040 A 
HETATM   29  C   UNL     1       1.214   7.237  25.519  0.00  0.00     0.009 A 
HETATM   30  C   UNL     1      -0.021   7.513  26.116  0.00  0.00     0.001 A 
HETATM   31  C   UNL     1      -0.542   8.808  26.081  0.00  0.00     0.007 A 
HETATM   32  C   UNL     1       0.143   9.819  25.400  0.00  0.00    -0.061 A 
HETATM   33  C   UNL     1      -0.280  11.255  25.501  0.00  0.00     0.048 C 
HETATM   34  C   UNL     1       1.340   9.515  24.739  0.00  0.00     0.015 A 
ENDBRANCH  27  28
ENDBRANCH  24  27
ENDBRANCH   1  23
BRANCH   6  35
HETATM   35  O   UNL     1       6.541   8.413  20.619  0.00  0.00    -0.360 OA
HETATM   36  H   UNL     1       6.217   8.993  21.329  0.00  0.00     0.217 HD
ENDBRANCH   6  35
TORSDOF 7
ENDMDL
MODEL 9
REMARK VINA RESULT:    -7.700      4.333      7.420
REMARK INTER + INTRA:         -12.659
REMARK INTER:                 -10.400
REMARK INTRA:                  -2.259
REMARK UNBOUND:                -2.259
REMARK  7 active torsions:
REMARK  status: ('A' for Active; 'I' for Inactive)
REMARK    1  A    between atoms: C_6  and  C_7 
REMARK    2  A    between atoms: C_7  and  N_8 
REMARK       I    between atoms: N_8  and  C_10 
REMARK    3  A    between atoms: C_10  and  C_12 
REMARK    4  A    between atoms: C_14  and  C_15 
REMARK    5  A    between atoms: N_21  and  C_22 
REMARK    6  A    between atoms: C_29  and  O_30 
REMARK    7  A    between atoms: C_32  and  O_33 
ROOT
HETATM    1  C   UNL     1       2.003   6.910  17.780  0.00  0.00     0.066 C 
HETATM    2  C   UNL     1       1.517   5.692  18.312  0.00  0.00     0.038 C 
HETATM    3  C   UNL     1       0.574   4.920  17.609  0.00  0.00     0.046 C 
HETATM    4  C   UNL     1       0.241   5.300  16.303  0.00  0.00     0.082 C 
HETATM    5  C   UNL     1       0.647   6.526  15.800  0.00  0.00     0.075 C 
HETATM    6  C   UNL     1       1.441   7.365  16.579  0.00  0.00     0.084 C 
ENDROOT
BRANCH   3   7
HETATM    7  C   UNL     1      -0.117   3.729  18.176  0.00  0.00     0.172 A 
HETATM    8  N   UNL     1      -1.400   3.561  17.970  0.00  0.00    -0.151 NA
HETATM    9  N   UNL     1      -1.705   2.427  18.659  0.00  0.00    -0.226 N 
HETATM   10  H   UNL     1      -2.652   2.098  18.786  0.00  0.00     0.194 HD
HETATM   11  C   UNL     1      -0.592   1.947  19.362  0.00  0.00     0.349 A 
HETATM   12  O   UNL     1      -0.653   1.056  20.183  0.00  0.00    -0.245 OA
HETATM   13  N   UNL     1       0.457   2.766  18.973  0.00  0.00    -0.244 N 
BRANCH  13  14
HETATM   14  C   UNL     1       1.743   2.696  19.546  0.00  0.00     0.051 A 
HETATM   15  C   UNL     1       1.960   3.192  20.842  0.00  0.00     0.031 A 
HETATM   16  C   UNL     1       3.250   3.269  21.376  0.00  0.00     0.002 A 
HETATM   17  C   UNL     1       4.340   2.873  20.611  0.00  0.00     0.001 A 
HETATM   18  C   UNL     1       4.137   2.319  19.351  0.00  0.00     0.009 A 
HETATM   19  C   UNL     1       2.841   2.188  18.818  0.00  0.00    -0.035 A 
HETATM   20  C   UNL     1       2.709   1.482  17.493  0.00  0.00     0.050 C 
ENDBRANCH  13  14
ENDBRANCH   3   7
BRANCH   4  21
HETATM   21  O   UNL     1      -0.532   4.545  15.462  0.00  0.00    -0.360 OA
HETATM   22  H   UNL     1      -0.273   4.753  14.536  0.00  0.00     0.217 HD
ENDBRANCH   4  21
BRANCH   1  23
HETATM   23  C   UNL     1       3.015   7.668  18.593  0.00  0.00     0.256 C 
HETATM   24  N   UNL     1       4.274   7.131  18.925  0.00  0.00    -0.348 N 
HETATM   25  C   UNL     1       4.822   5.889  18.405  0.00  0.00     0.153 C 
HETATM   26  O   UNL     1       2.655   8.773  19.010  0.00  0.00    -0.267 OA
BRANCH  24  27
HETATM   27  C   UNL     1       5.233   7.974  19.637  0.00  0.00     0.164 C 
BRANCH  27  28
HETATM   28  C   UNL     1       5.171   7.901  21.151  0.00  0.00    -0.040 A 
HETATM   29  C   UNL     1       4.362   8.766  21.908  0.00  0.00     0.009 A 
HETATM   30  C   UNL     1       4.143   8.523  23.268  0.00  0.00     0.001 A 
HETATM   31  C   UNL     1       4.699   7.398  23.879  0.00  0.00     0.007 A 
HETATM   32  C   UNL     1       5.524   6.541  23.144  0.00  0.00    -0.061 A 
HETATM   33  C   UNL     1       5.981   5.226  23.703  0.00  0.00     0.048 C 
HETATM   34  C   UNL     1       5.802   6.834  21.802  0.00  0.00     0.015 A 
ENDBRANCH  27  28
ENDBRANCH  24  27
ENDBRANCH   1  23
BRANCH   6  35
HETATM   35  O   UNL     1       1.586   8.659  16.165  0.00  0.00    -0.360 OA
HETATM   36  H   UNL     1       0.754   8.962  15.761  0.00  0.00     0.217 HD
ENDBRANCH   6  35
TORSDOF 7
ENDMDL
