MODEL 1
REMARK VINA RESULT:    -7.832      0.000      0.000
REMARK INTER + INTRA:         -11.175
REMARK INTER:                  -9.669
REMARK INTRA:                  -1.506
REMARK UNBOUND:                -1.283
REMARK  6 active torsions:
REMARK  status: ('A' for Active; 'I' for Inactive)
REMARK    1  A    between atoms: O_1  and  C_2 
REMARK    2  A    between atoms: C_2  and  C_4 
REMARK    3  A    between atoms: C_6  and  C_7 
REMARK    4  A    between atoms: N_13  and  C_14 
REMARK    5  A    between atoms: C_21  and  O_22 
REMARK    6  A    between atoms: C_24  and  O_25 
ROOT
HETATM    1  C   UNL     1      -2.543  13.642  26.270  0.00  0.00     0.071 C 
HETATM    2  C   UNL     1      -2.719  14.300  25.038  0.00  0.00     0.039 C 
HETATM    3  C   UNL     1      -3.462  13.697  24.023  0.00  0.00     0.046 C 
HETATM    4  C   UNL     1      -4.071  12.452  24.296  0.00  0.00     0.082 C 
HETATM    5  C   UNL     1      -3.793  11.740  25.461  0.00  0.00     0.075 C 
HETATM    6  C   UNL     1      -3.020  12.339  26.444  0.00  0.00     0.085 C 
ENDROOT
BRANCH   3   7
HETATM    7  C   UNL     1      -3.750  14.368  22.730  0.00  0.00     0.172 A 
HETATM    8  N   UNL     1      -4.905  14.960  22.552  0.00  0.00    -0.151 NA
HETATM    9  N   UNL     1      -4.832  15.498  21.310  0.00  0.00    -0.226 N 
HETATM   10  H   UNL     1      -5.629  15.896  20.826  0.00  0.00     0.194 HD
HETATM   11  C   UNL     1      -3.626  15.183  20.705  0.00  0.00     0.349 A 
HETATM   12  O   UNL     1      -3.362  15.401  19.535  0.00  0.00    -0.245 OA
HETATM   13  N   UNL     1      -2.891  14.505  21.669  0.00  0.00    -0.241 N 
BRANCH  13  14
HETATM   14  C   UNL     1      -1.703  13.852  21.291  0.00  0.00     0.084 A 
HETATM   15  C   UNL     1      -1.797  12.535  20.805  0.00  0.00     0.033 A 
HETATM   16  C   UNL     1      -0.655  11.751  20.624  0.00  0.00     0.002 A 
HETATM   17  C   UNL     1       0.595  12.265  20.952  0.00  0.00     0.003 A 
HETATM   18  C   UNL     1       0.705  13.579  21.410  0.00  0.00     0.044 A 
HETATM   19  C   UNL     1      -0.435  14.371  21.561  0.00  0.00     0.143 A 
HETATM   20  F   UNL     1      -0.300  15.605  22.073  0.00  0.00    -0.204 F 
ENDBRANCH  13  14
ENDBRANCH   3   7
BRANCH   4  21
HETATM   21  O   UNL     1      -5.027  11.885  23.493  0.00  0.00    -0.360 OA
HETATM   22  H   UNL     1      -4.789  10.937  23.373  0.00  0.00     0.217 HD
ENDBRANCH   4  21
BRANCH   1  23
HETATM   23  C   UNL     1      -1.918  14.415  27.382  0.00  0.00     0.179 C 
HETATM   24  O   UNL     1      -0.901  15.057  27.234  0.00  0.00    -0.646 OA
BRANCH  23  25
HETATM   25  O   UNL     1      -2.654  14.443  28.512  0.00  0.00    -0.773 OA
HETATM   26  H   UNL     1      -2.105  14.489  29.329  0.00  0.00     0.167 HD
ENDBRANCH  23  25
ENDBRANCH   1  23
BRANCH   6  27
HETATM   27  O   UNL     1      -2.790  11.667  27.615  0.00  0.00    -0.360 OA
HETATM   28  H   UNL     1      -1.983  12.035  28.028  0.00  0.00     0.217 HD
ENDBRANCH   6  27
TORSDOF 6
ENDMDL
MODEL 2
REMARK VINA RESULT:    -7.207      3.035      3.686
REMARK INTER + INTRA:         -10.386
REMARK INTER:                  -8.923
REMARK INTRA:                  -1.463
REMARK UNBOUND:                -1.283
REMARK  6 active torsions:
REMARK  status: ('A' for Active; 'I' for Inactive)
REMARK    1  A    between atoms: O_1  and  C_2 
REMARK    2  A    between atoms: C_2  and  C_4 
REMARK    3  A    between atoms: C_6  and  C_7 
REMARK    4  A    between atoms: N_13  and  C_14 
REMARK    5  A    between atoms: C_21  and  O_22 
REMARK    6  A    between atoms: C_24  and  O_25 
ROOT
HETATM    1  C   UNL     1      -2.717  10.695  26.415  0.00  0.00     0.071 C 
HETATM    2  C   UNL     1      -2.072  10.793  25.167  0.00  0.00     0.039 C 
HETATM    3  C   UNL     1      -2.719  11.401  24.091  0.00  0.00     0.046 C 
HETATM    4  C   UNL     1      -3.998  11.958  24.314  0.00  0.00     0.082 C 
HETATM    5  C   UNL     1      -4.691  11.749  25.505  0.00  0.00     0.075 C 
HETATM    6  C   UNL     1      -4.046  11.108  26.551  0.00  0.00     0.085 C 
ENDROOT
BRANCH   3   7
HETATM    7  C   UNL     1      -2.068  11.605  22.772  0.00  0.00     0.172 A 
HETATM    8  N   UNL     1      -2.528  10.974  21.719  0.00  0.00    -0.151 NA
HETATM    9  N   UNL     1      -1.755  11.404  20.692  0.00  0.00    -0.226 N 
HETATM   10  H   UNL     1      -1.769  10.985  19.770  0.00  0.00     0.194 HD
HETATM   11  C   UNL     1      -0.775  12.274  21.142  0.00  0.00     0.349 A 
HETATM   12  O   UNL     1       0.150  12.684  20.461  0.00  0.00    -0.245 OA
HETATM   13  N   UNL     1      -1.032  12.459  22.494  0.00  0.00    -0.241 N 
BRANCH  13  14
HETATM   14  C   UNL     1      -0.075  13.117  23.290  0.00  0.00     0.084 A 
HETATM   15  C   UNL     1      -0.132  14.520  23.370  0.00  0.00     0.033 A 
HETATM   16  C   UNL     1       0.907  15.251  23.951  0.00  0.00     0.002 A 
HETATM   17  C   UNL     1       2.030  14.589  24.436  0.00  0.00     0.003 A 
HETATM   18  C   UNL     1       2.088  13.195  24.388  0.00  0.00     0.044 A 
HETATM   19  C   UNL     1       1.034  12.465  23.834  0.00  0.00     0.143 A 
HETATM   20  F   UNL     1       1.155  11.131  23.736  0.00  0.00    -0.204 F 
ENDBRANCH  13  14
ENDBRANCH   3   7
BRANCH   4  21
HETATM   21  O   UNL     1      -4.622  12.799  23.428  0.00  0.00    -0.360 OA
HETATM   22  H   UNL     1      -4.782  12.291  22.600  0.00  0.00     0.217 HD
ENDBRANCH   4  21
BRANCH   1  23
HETATM   23  C   UNL     1      -1.907  10.224  27.575  0.00  0.00     0.179 C 
HETATM   24  O   UNL     1      -2.119  10.596  28.709  0.00  0.00    -0.646 OA
BRANCH  23  25
HETATM   25  O   UNL     1      -1.019   9.256  27.266  0.00  0.00    -0.773 OA
HETATM   26  H   UNL     1      -0.248   9.231  27.879  0.00  0.00     0.167 HD
ENDBRANCH  23  25
ENDBRANCH   1  23
BRANCH   6  27
HETATM   27  O   UNL     1      -4.702  10.950  27.743  0.00  0.00    -0.360 OA
HETATM   28  H   UNL     1      -4.164  10.366  28.315  0.00  0.00     0.217 HD
ENDBRANCH   6  27
TORSDOF 6
ENDMDL
MODEL 3
REMARK VINA RESULT:    -7.153      5.153      6.884
REMARK INTER + INTRA:         -10.318
REMARK INTER:                  -8.875
REMARK INTRA:                  -1.443
REMARK UNBOUND:                -1.283
REMARK  6 active torsions:
REMARK  status: ('A' for Active; 'I' for Inactive)
REMARK    1  A    between atoms: O_1  and  C_2 
REMARK    2  A    between atoms: C_2  and  C_4 
REMARK    3  A    between atoms: C_6  and  C_7 
REMARK    4  A    between atoms: N_13  and  C_14 
REMARK    5  A    between atoms: C_21  and  O_22 
REMARK    6  A    between atoms: C_24  and  O_25 
ROOT
HETATM    1  C   UNL     1      -3.551  10.998  25.306  0.00  0.00     0.071 C 
HETATM    2  C   UNL     1      -2.235  10.661  25.676  0.00  0.00     0.039 C 
HETATM    3  C   UNL     1      -1.242  10.547  24.703  0.00  0.00     0.046 C 
HETATM    4  C   UNL     1      -1.588  10.837  23.365  0.00  0.00     0.082 C 
HETATM    5  C   UNL     1      -2.911  11.041  22.977  0.00  0.00     0.075 C 
HETATM    6  C   UNL     1      -3.892  11.113  23.954  0.00  0.00     0.085 C 
ENDROOT
BRANCH   3   7
HETATM    7  C   UNL     1       0.179  10.271  25.033  0.00  0.00     0.172 A 
HETATM    8  N   UNL     1       1.085  11.190  24.806  0.00  0.00    -0.151 NA
HETATM    9  N   UNL     1       2.247  10.648  25.248  0.00  0.00    -0.226 N 
HETATM   10  H   UNL     1       3.156  11.060  25.074  0.00  0.00     0.194 HD
HETATM   11  C   UNL     1       2.047   9.356  25.705  0.00  0.00     0.349 A 
HETATM   12  O   UNL     1       2.940   8.584  26.009  0.00  0.00    -0.245 OA
HETATM   13  N   UNL     1       0.677   9.142  25.631  0.00  0.00    -0.241 N 
BRANCH  13  14
HETATM   14  C   UNL     1       0.176   7.839  25.815  0.00  0.00     0.084 A 
HETATM   15  C   UNL     1      -0.087   7.410  27.128  0.00  0.00     0.033 A 
HETATM   16  C   UNL     1      -0.369   6.070  27.405  0.00  0.00     0.002 A 
HETATM   17  C   UNL     1      -0.365   5.136  26.375  0.00  0.00     0.003 A 
HETATM   18  C   UNL     1      -0.133   5.552  25.063  0.00  0.00     0.044 A 
HETATM   19  C   UNL     1       0.118   6.898  24.785  0.00  0.00     0.143 A 
HETATM   20  F   UNL     1       0.410   7.251  23.523  0.00  0.00    -0.204 F 
ENDBRANCH  13  14
ENDBRANCH   3   7
BRANCH   4  21
HETATM   21  O   UNL     1      -0.665  11.016  22.366  0.00  0.00    -0.360 OA
HETATM   22  H   UNL     1      -0.730  10.242  21.761  0.00  0.00     0.217 HD
ENDBRANCH   4  21
BRANCH   1  23
HETATM   23  C   UNL     1      -4.518  11.305  26.400  0.00  0.00     0.179 C 
HETATM   24  O   UNL     1      -4.562  10.662  27.426  0.00  0.00    -0.646 OA
BRANCH  23  25
HETATM   25  O   UNL     1      -5.233  12.431  26.199  0.00  0.00    -0.773 OA
HETATM   26  H   UNL     1      -5.824  12.378  25.413  0.00  0.00     0.167 HD
ENDBRANCH  23  25
ENDBRANCH   1  23
BRANCH   6  27
HETATM   27  O   UNL     1      -5.185  11.370  23.585  0.00  0.00    -0.360 OA
HETATM   28  H   UNL     1      -5.188  12.151  22.996  0.00  0.00     0.217 HD
ENDBRANCH   6  27
TORSDOF 6
ENDMDL
MODEL 4
REMARK VINA RESULT:    -7.102      2.901      5.287
REMARK INTER + INTRA:         -10.253
REMARK INTER:                  -8.777
REMARK INTRA:                  -1.476
REMARK UNBOUND:                -1.283
REMARK  6 active torsions:
REMARK  status: ('A' for Active; 'I' for Inactive)
REMARK    1  A    between atoms: O_1  and  C_2 
REMARK    2  A    between atoms: C_2  and  C_4 
REMARK    3  A    between atoms: C_6  and  C_7 
REMARK    4  A    between atoms: N_13  and  C_14 
REMARK    5  A    between atoms: C_21  and  O_22 
REMARK    6  A    between atoms: C_24  and  O_25 
ROOT
HETATM    1  C   UNL     1      -3.939  13.939  21.325  0.00  0.00     0.071 C 
HETATM    2  C   UNL     1      -3.048  12.886  21.605  0.00  0.00     0.039 C 
HETATM    3  C   UNL     1      -2.776  12.532  22.927  0.00  0.00     0.046 C 
HETATM    4  C   UNL     1      -3.463  13.219  23.952  0.00  0.00     0.082 C 
HETATM    5  C   UNL     1      -4.241  14.344  23.687  0.00  0.00     0.075 C 
HETATM    6  C   UNL     1      -4.470  14.705  22.368  0.00  0.00     0.085 C 
ENDROOT
BRANCH   3   7
HETATM    7  C   UNL     1      -1.908  11.384  23.289  0.00  0.00     0.172 A 
HETATM    8  N   UNL     1      -2.425  10.354  23.912  0.00  0.00    -0.151 NA
HETATM    9  N   UNL     1      -1.397   9.482  24.054  0.00  0.00    -0.226 N 
HETATM   10  H   UNL     1      -1.447   8.649  24.630  0.00  0.00     0.194 HD
HETATM   11  C   UNL     1      -0.222  10.017  23.551  0.00  0.00     0.349 A 
HETATM   12  O   UNL     1       0.881   9.517  23.692  0.00  0.00    -0.245 OA
HETATM   13  N   UNL     1      -0.579  11.233  22.984  0.00  0.00    -0.241 N 
BRANCH  13  14
HETATM   14  C   UNL     1       0.434  12.127  22.586  0.00  0.00     0.084 A 
HETATM   15  C   UNL     1       1.100  12.860  23.584  0.00  0.00     0.033 A 
HETATM   16  C   UNL     1       1.950  13.918  23.254  0.00  0.00     0.002 A 
HETATM   17  C   UNL     1       2.124  14.275  21.921  0.00  0.00     0.003 A 
HETATM   18  C   UNL     1       1.491  13.538  20.919  0.00  0.00     0.044 A 
HETATM   19  C   UNL     1       0.666  12.461  21.250  0.00  0.00     0.143 A 
HETATM   20  F   UNL     1       0.014  11.822  20.265  0.00  0.00    -0.204 F 
ENDBRANCH  13  14
ENDBRANCH   3   7
BRANCH   4  21
HETATM   21  O   UNL     1      -3.485  12.802  25.258  0.00  0.00    -0.360 OA
HETATM   22  H   UNL     1      -4.145  13.355  25.735  0.00  0.00     0.217 HD
ENDBRANCH   4  21
BRANCH   1  23
HETATM   23  C   UNL     1      -4.348  14.138  19.904  0.00  0.00     0.179 C 
HETATM   24  O   UNL     1      -4.016  15.111  19.263  0.00  0.00    -0.646 OA
BRANCH  23  25
HETATM   25  O   UNL     1      -4.997  13.084  19.368  0.00  0.00    -0.773 OA
HETATM   26  H   UNL     1      -4.440  12.567  18.740  0.00  0.00     0.167 HD
ENDBRANCH  23  25
ENDBRANCH   1  23
BRANCH   6  27
HETATM   27  O   UNL     1      -5.281  15.775  22.099  0.00  0.00    -0.360 OA
HETATM   28  H   UNL     1      -4.921  16.558  22.563  0.00  0.00     0.217 HD
ENDBRANCH   6  27
TORSDOF 6
ENDMDL
MODEL 5
REMARK VINA RESULT:    -7.040      2.253      2.730
REMARK INTER + INTRA:         -10.176
REMARK INTER:                  -8.894
REMARK INTRA:                  -1.282
REMARK UNBOUND:                -1.283
REMARK  6 active torsions:
REMARK  status: ('A' for Active; 'I' for Inactive)
REMARK    1  A    between atoms: O_1  and  C_2 
REMARK    2  A    between atoms: C_2  and  C_4 
REMARK    3  A    between atoms: C_6  and  C_7 
REMARK    4  A    between atoms: N_13  and  C_14 
REMARK    5  A    between atoms: C_21  and  O_22 
REMARK    6  A    between atoms: C_24  and  O_25 
ROOT
HETATM    1  C   UNL     1      -2.638  11.196  26.022  0.00  0.00     0.071 C 
HETATM    2  C   UNL     1      -3.235  12.183  25.214  0.00  0.00     0.039 C 
HETATM    3  C   UNL     1      -3.055  12.158  23.831  0.00  0.00     0.046 C 
HETATM    4  C   UNL     1      -2.317  11.089  23.277  0.00  0.00     0.082 C 
HETATM    5  C   UNL     1      -1.618  10.188  24.078  0.00  0.00     0.075 C 
HETATM    6  C   UNL     1      -1.777  10.251  25.454  0.00  0.00     0.085 C 
ENDROOT
BRANCH   3   7
HETATM    7  C   UNL     1      -3.717  13.122  22.917  0.00  0.00     0.172 A 
HETATM    8  N   UNL     1      -4.912  12.854  22.450  0.00  0.00    -0.151 NA
HETATM    9  N   UNL     1      -5.241  13.932  21.697  0.00  0.00    -0.226 N 
HETATM   10  H   UNL     1      -6.047  13.959  21.083  0.00  0.00     0.194 HD
HETATM   11  C   UNL     1      -4.203  14.849  21.668  0.00  0.00     0.349 A 
HETATM   12  O   UNL     1      -4.167  15.829  20.943  0.00  0.00    -0.245 OA
HETATM   13  N   UNL     1      -3.237  14.347  22.530  0.00  0.00    -0.241 N 
BRANCH  13  14
HETATM   14  C   UNL     1      -1.959  14.939  22.547  0.00  0.00     0.084 A 
HETATM   15  C   UNL     1      -1.161  14.824  21.394  0.00  0.00     0.033 A 
HETATM   16  C   UNL     1       0.188  15.185  21.413  0.00  0.00     0.002 A 
HETATM   17  C   UNL     1       0.764  15.641  22.594  0.00  0.00     0.003 A 
HETATM   18  C   UNL     1      -0.023  15.786  23.738  0.00  0.00     0.044 A 
HETATM   19  C   UNL     1      -1.378  15.454  23.708  0.00  0.00     0.143 A 
HETATM   20  F   UNL     1      -2.088  15.535  24.845  0.00  0.00    -0.204 F 
ENDBRANCH  13  14
ENDBRANCH   3   7
BRANCH   4  21
HETATM   21  O   UNL     1      -2.287  10.805  21.936  0.00  0.00    -0.360 OA
HETATM   22  H   UNL     1      -1.428  11.131  21.583  0.00  0.00     0.217 HD
ENDBRANCH   4  21
BRANCH   1  23
HETATM   23  C   UNL     1      -3.029  11.153  27.461  0.00  0.00     0.179 C 
HETATM   24  O   UNL     1      -2.301  10.701  28.318  0.00  0.00    -0.646 OA
BRANCH  23  25
HETATM   25  O   UNL     1      -4.193  11.779  27.732  0.00  0.00    -0.773 OA
HETATM   26  H   UNL     1      -4.131  12.390  28.502  0.00  0.00     0.167 HD
ENDBRANCH  23  25
ENDBRANCH   1  23
BRANCH   6  27
HETATM   27  O   UNL     1      -1.138   9.333  26.244  0.00  0.00    -0.360 OA
HETATM   28  H   UNL     1      -1.100   8.484  25.759  0.00  0.00     0.217 HD
ENDBRANCH   6  27
TORSDOF 6
ENDMDL
MODEL 6
REMARK VINA RESULT:    -7.017      3.247      5.977
REMARK INTER + INTRA:         -10.146
REMARK INTER:                  -8.806
REMARK INTRA:                  -1.340
REMARK UNBOUND:                -1.283
REMARK  6 active torsions:
REMARK  status: ('A' for Active; 'I' for Inactive)
REMARK    1  A    between atoms: O_1  and  C_2 
REMARK    2  A    between atoms: C_2  and  C_4 
REMARK    3  A    between atoms: C_6  and  C_7 
REMARK    4  A    between atoms: N_13  and  C_14 
REMARK    5  A    between atoms: C_21  and  O_22 
REMARK    6  A    between atoms: C_24  and  O_25 
ROOT
HETATM    1  C   UNL     1       1.927  14.136  21.570  0.00  0.00     0.071 C 
HETATM    2  C   UNL     1       0.958  13.130  21.749  0.00  0.00     0.039 C 
HETATM    3  C   UNL     1       0.350  12.958  22.992  0.00  0.00     0.046 C 
HETATM    4  C   UNL     1       0.693  13.854  24.029  0.00  0.00     0.082 C 
HETATM    5  C   UNL     1       1.742  14.762  23.895  0.00  0.00     0.075 C 
HETATM    6  C   UNL     1       2.362  14.893  22.662  0.00  0.00     0.085 C 
ENDROOT
BRANCH   3   7
HETATM    7  C   UNL     1      -0.733  11.970  23.228  0.00  0.00     0.172 A 
HETATM    8  N   UNL     1      -0.435  10.785  23.702  0.00  0.00    -0.151 NA
HETATM    9  N   UNL     1      -1.627  10.155  23.837  0.00  0.00    -0.226 N 
HETATM   10  H   UNL     1      -1.716   9.167  24.044  0.00  0.00     0.194 HD
HETATM   11  C   UNL     1      -2.664  10.957  23.388  0.00  0.00     0.349 A 
HETATM   12  O   UNL     1      -3.816  10.584  23.247  0.00  0.00    -0.245 OA
HETATM   13  N   UNL     1      -2.079  12.174  23.060  0.00  0.00    -0.241 N 
BRANCH  13  14
HETATM   14  C   UNL     1      -2.836  13.131  22.358  0.00  0.00     0.084 A 
HETATM   15  C   UNL     1      -3.764  13.901  23.083  0.00  0.00     0.033 A 
HETATM   16  C   UNL     1      -4.701  14.704  22.428  0.00  0.00     0.002 A 
HETATM   17  C   UNL     1      -4.739  14.727  21.038  0.00  0.00     0.003 A 
HETATM   18  C   UNL     1      -3.806  13.990  20.307  0.00  0.00     0.044 A 
HETATM   19  C   UNL     1      -2.851  13.212  20.964  0.00  0.00     0.143 A 
HETATM   20  F   UNL     1      -2.017  12.457  20.230  0.00  0.00    -0.204 F 
ENDBRANCH  13  14
ENDBRANCH   3   7
BRANCH   4  21
HETATM   21  O   UNL     1      -0.010  13.960  25.201  0.00  0.00    -0.360 OA
HETATM   22  H   UNL     1       0.553  14.453  25.841  0.00  0.00     0.217 HD
ENDBRANCH   4  21
BRANCH   1  23
HETATM   23  C   UNL     1       2.392  14.407  20.178  0.00  0.00     0.179 C 
HETATM   24  O   UNL     1       2.542  15.531  19.752  0.00  0.00    -0.646 OA
BRANCH  23  25
HETATM   25  O   UNL     1       2.754  13.301  19.496  0.00  0.00    -0.773 OA
HETATM   26  H   UNL     1       2.002  12.878  19.020  0.00  0.00     0.167 HD
ENDBRANCH  23  25
ENDBRANCH   1  23
BRANCH   6  27
HETATM   27  O   UNL     1       3.356  15.823  22.509  0.00  0.00    -0.360 OA
HETATM   28  H   UNL     1       3.399  16.364  23.324  0.00  0.00     0.217 HD
ENDBRANCH   6  27
TORSDOF 6
ENDMDL
MODEL 7
REMARK VINA RESULT:    -6.922      3.363      4.435
REMARK INTER + INTRA:         -10.026
REMARK INTER:                  -8.742
REMARK INTRA:                  -1.283
REMARK UNBOUND:                -1.283
REMARK  6 active torsions:
REMARK  status: ('A' for Active; 'I' for Inactive)
REMARK    1  A    between atoms: O_1  and  C_2 
REMARK    2  A    between atoms: C_2  and  C_4 
REMARK    3  A    between atoms: C_6  and  C_7 
REMARK    4  A    between atoms: N_13  and  C_14 
REMARK    5  A    between atoms: C_21  and  O_22 
REMARK    6  A    between atoms: C_24  and  O_25 
ROOT
HETATM    1  C   UNL     1      -0.611   8.926  25.176  0.00  0.00     0.071 C 
HETATM    2  C   UNL     1      -1.470   9.940  24.709  0.00  0.00     0.039 C 
HETATM    3  C   UNL     1      -2.222  10.691  25.614  0.00  0.00     0.046 C 
HETATM    4  C   UNL     1      -2.044  10.441  26.992  0.00  0.00     0.082 C 
HETATM    5  C   UNL     1      -1.299   9.357  27.451  0.00  0.00     0.075 C 
HETATM    6  C   UNL     1      -0.589   8.597  26.535  0.00  0.00     0.085 C 
ENDROOT
BRANCH   3   7
HETATM    7  C   UNL     1      -3.086  11.823  25.195  0.00  0.00     0.172 A 
HETATM    8  N   UNL     1      -4.203  12.056  25.839  0.00  0.00    -0.151 NA
HETATM    9  N   UNL     1      -4.722  13.159  25.246  0.00  0.00    -0.226 N 
HETATM   10  H   UNL     1      -5.659  13.501  25.426  0.00  0.00     0.194 HD
HETATM   11  C   UNL     1      -3.927  13.573  24.189  0.00  0.00     0.349 A 
HETATM   12  O   UNL     1      -4.238  14.437  23.388  0.00  0.00    -0.245 OA
HETATM   13  N   UNL     1      -2.818  12.737  24.208  0.00  0.00    -0.241 N 
BRANCH  13  14
HETATM   14  C   UNL     1      -1.928  12.756  23.117  0.00  0.00     0.084 A 
HETATM   15  C   UNL     1      -2.306  12.083  21.942  0.00  0.00     0.033 A 
HETATM   16  C   UNL     1      -1.391  11.869  20.909  0.00  0.00     0.002 A 
HETATM   17  C   UNL     1      -0.077  12.302  21.048  0.00  0.00     0.003 A 
HETATM   18  C   UNL     1       0.305  12.996  22.198  0.00  0.00     0.044 A 
HETATM   19  C   UNL     1      -0.620  13.236  23.216  0.00  0.00     0.143 A 
HETATM   20  F   UNL     1      -0.200  13.840  24.339  0.00  0.00    -0.204 F 
ENDBRANCH  13  14
ENDBRANCH   3   7
BRANCH   4  21
HETATM   21  O   UNL     1      -2.516  11.270  27.978  0.00  0.00    -0.360 OA
HETATM   22  H   UNL     1      -3.436  10.990  28.186  0.00  0.00     0.217 HD
ENDBRANCH   4  21
BRANCH   1  23
HETATM   23  C   UNL     1       0.314   8.298  24.189  0.00  0.00     0.179 C 
HETATM   24  O   UNL     1       1.306   8.862  23.780  0.00  0.00    -0.646 OA
BRANCH  23  25
HETATM   25  O   UNL     1       0.023   7.012  23.906  0.00  0.00    -0.773 OA
HETATM   26  H   UNL     1      -0.944   6.823  23.925  0.00  0.00     0.167 HD
ENDBRANCH  23  25
ENDBRANCH   1  23
BRANCH   6  27
HETATM   27  O   UNL     1       0.190   7.564  26.985  0.00  0.00    -0.360 OA
HETATM   28  H   UNL     1       1.031   7.573  26.485  0.00  0.00     0.217 HD
ENDBRANCH   6  27
TORSDOF 6
ENDMDL
MODEL 8
REMARK VINA RESULT:    -6.899      2.530      4.326
REMARK INTER + INTRA:          -9.997
REMARK INTER:                  -8.520
REMARK INTRA:                  -1.477
REMARK UNBOUND:                -1.283
REMARK  6 active torsions:
REMARK  status: ('A' for Active; 'I' for Inactive)
REMARK    1  A    between atoms: O_1  and  C_2 
REMARK    2  A    between atoms: C_2  and  C_4 
REMARK    3  A    between atoms: C_6  and  C_7 
REMARK    4  A    between atoms: N_13  and  C_14 
REMARK    5  A    between atoms: C_21  and  O_22 
REMARK    6  A    between atoms: C_24  and  O_25 
ROOT
HETATM    1  C   UNL     1      -2.266  13.168  26.128  0.00  0.00     0.071 C 
HETATM    2  C   UNL     1      -1.470  13.068  24.970  0.00  0.00     0.039 C 
HETATM    3  C   UNL     1      -0.408  13.951  24.773  0.00  0.00     0.046 C 
HETATM    4  C   UNL     1      -0.129  14.891  25.790  0.00  0.00     0.082 C 
HETATM    5  C   UNL     1      -0.989  15.080  26.870  0.00  0.00     0.075 C 
HETATM    6  C   UNL     1      -2.063  14.218  27.030  0.00  0.00     0.085 C 
ENDROOT
BRANCH   3   7
HETATM    7  C   UNL     1       0.515  13.852  23.615  0.00  0.00     0.172 A 
HETATM    8  N   UNL     1       1.805  13.747  23.823  0.00  0.00    -0.151 NA
HETATM    9  N   UNL     1       2.348  13.635  22.586  0.00  0.00    -0.226 N 
HETATM   10  H   UNL     1       3.344  13.686  22.407  0.00  0.00     0.194 HD
HETATM   11  C   UNL     1       1.372  13.725  21.607  0.00  0.00     0.349 A 
HETATM   12  O   UNL     1       1.597  13.816  20.413  0.00  0.00    -0.245 OA
HETATM   13  N   UNL     1       0.164  13.792  22.290  0.00  0.00    -0.241 N 
BRANCH  13  14
HETATM   14  C   UNL     1      -1.008  14.117  21.580  0.00  0.00     0.084 A 
HETATM   15  C   UNL     1      -1.413  15.464  21.554  0.00  0.00     0.033 A 
HETATM   16  C   UNL     1      -2.670  15.828  21.066  0.00  0.00     0.002 A 
HETATM   17  C   UNL     1      -3.550  14.846  20.622  0.00  0.00     0.003 A 
HETATM   18  C   UNL     1      -3.150  13.508  20.618  0.00  0.00     0.044 A 
HETATM   19  C   UNL     1      -1.881  13.150  21.077  0.00  0.00     0.143 A 
HETATM   20  F   UNL     1      -1.557  11.848  21.128  0.00  0.00    -0.204 F 
ENDBRANCH  13  14
ENDBRANCH   3   7
BRANCH   4  21
HETATM   21  O   UNL     1       1.026  15.629  25.841  0.00  0.00    -0.360 OA
HETATM   22  H   UNL     1       0.852  16.483  25.383  0.00  0.00     0.217 HD
ENDBRANCH   4  21
BRANCH   1  23
HETATM   23  C   UNL     1      -3.251  12.079  26.384  0.00  0.00     0.179 C 
HETATM   24  O   UNL     1      -2.925  11.000  26.829  0.00  0.00    -0.646 OA
BRANCH  23  25
HETATM   25  O   UNL     1      -4.536  12.448  26.205  0.00  0.00    -0.773 OA
HETATM   26  H   UNL     1      -5.039  12.519  27.050  0.00  0.00     0.167 HD
ENDBRANCH  23  25
ENDBRANCH   1  23
BRANCH   6  27
HETATM   27  O   UNL     1      -2.879  14.362  28.120  0.00  0.00    -0.360 OA
HETATM   28  H   UNL     1      -2.368  14.798  28.832  0.00  0.00     0.217 HD
ENDBRANCH   6  27
TORSDOF 6
ENDMDL
MODEL 9
REMARK VINA RESULT:    -6.830      3.007      4.084
REMARK INTER + INTRA:          -9.910
REMARK INTER:                  -8.488
REMARK INTRA:                  -1.422
REMARK UNBOUND:                -1.283
REMARK  6 active torsions:
REMARK  status: ('A' for Active; 'I' for Inactive)
REMARK    1  A    between atoms: O_1  and  C_2 
REMARK    2  A    between atoms: C_2  and  C_4 
REMARK    3  A    between atoms: C_6  and  C_7 
REMARK    4  A    between atoms: N_13  and  C_14 
REMARK    5  A    between atoms: C_21  and  O_22 
REMARK    6  A    between atoms: C_24  and  O_25 
ROOT
HETATM    1  C   UNL     1      -1.017   9.450  25.619  0.00  0.00     0.071 C 
HETATM    2  C   UNL     1      -1.662  10.250  24.656  0.00  0.00     0.039 C 
HETATM    3  C   UNL     1      -2.530  11.265  25.059  0.00  0.00     0.046 C 
HETATM    4  C   UNL     1      -2.685  11.496  26.443  0.00  0.00     0.082 C 
HETATM    5  C   UNL     1      -2.155  10.627  27.395  0.00  0.00     0.075 C 
HETATM    6  C   UNL     1      -1.325   9.599  26.975  0.00  0.00     0.085 C 
ENDROOT
BRANCH   3   7
HETATM    7  C   UNL     1      -3.181  12.192  24.099  0.00  0.00     0.172 A 
HETATM    8  N   UNL     1      -4.334  11.867  23.568  0.00  0.00    -0.151 NA
HETATM    9  N   UNL     1      -4.667  12.925  22.787  0.00  0.00    -0.226 N 
HETATM   10  H   UNL     1      -5.437  12.912  22.129  0.00  0.00     0.194 HD
HETATM   11  C   UNL     1      -3.670  13.887  22.808  0.00  0.00     0.349 A 
HETATM   12  O   UNL     1      -3.636  14.862  22.077  0.00  0.00    -0.245 OA
HETATM   13  N   UNL     1      -2.734  13.435  23.728  0.00  0.00    -0.241 N 
BRANCH  13  14
HETATM   14  C   UNL     1      -1.486  14.083  23.811  0.00  0.00     0.084 A 
HETATM   15  C   UNL     1      -0.474  13.688  22.918  0.00  0.00     0.033 A 
HETATM   16  C   UNL     1       0.843  14.121  23.086  0.00  0.00     0.002 A 
HETATM   17  C   UNL     1       1.171  14.934  24.165  0.00  0.00     0.003 A 
HETATM   18  C   UNL     1       0.172  15.356  25.043  0.00  0.00     0.044 A 
HETATM   19  C   UNL     1      -1.150  14.947  24.856  0.00  0.00     0.143 A 
HETATM   20  F   UNL     1      -2.073  15.310  25.762  0.00  0.00    -0.204 F 
ENDBRANCH  13  14
ENDBRANCH   3   7
BRANCH   4  21
HETATM   21  O   UNL     1      -3.293  12.611  26.961  0.00  0.00    -0.360 OA
HETATM   22  H   UNL     1      -3.523  12.415  27.898  0.00  0.00     0.217 HD
ENDBRANCH   4  21
BRANCH   1  23
HETATM   23  C   UNL     1       0.049   8.522  25.143  0.00  0.00     0.179 C 
HETATM   24  O   UNL     1       1.044   8.287  25.794  0.00  0.00    -0.646 OA
BRANCH  23  25
HETATM   25  O   UNL     1      -0.259   7.873  24.001  0.00  0.00    -0.773 OA
HETATM   26  H   UNL     1      -1.217   7.922  23.776  0.00  0.00     0.167 HD
ENDBRANCH  23  25
ENDBRANCH   1  23
BRANCH   6  27
HETATM   27  O   UNL     1      -0.755   8.776  27.910  0.00  0.00    -0.360 OA
HETATM   28  H   UNL     1      -1.470   8.375  28.444  0.00  0.00     0.217 HD
ENDBRANCH   6  27
TORSDOF 6
ENDMDL
