MODEL 1
REMARK minimizedAffinity -10.0495062
REMARK minimizedRMSD -1
REMARK  3 active torsions:
REMARK  status: ('A' for Active; 'I' for Inactive)
REMARK       I    between atoms: C_2  and  N_3 
REMARK    1  A    between atoms: C_2  and  C_26 
REMARK    2  A    between atoms: N_3  and  C_4 
REMARK    3  A    between atoms: C_16  and  C_17 
ROOT
HETATM    1  C   UNL     1       2.001  11.528  23.175  0.00  0.00     0.153 A 
HETATM    2  C   UNL     1       2.832  10.276  23.017  0.00  0.00    -0.020 A 
HETATM    3  C   UNL     1       3.963  10.120  22.221  0.00  0.00     0.010 A 
HETATM    4  C   UNL     1       4.558   8.865  22.157  0.00  0.00     0.001 A 
HETATM    5  C   UNL     1       4.001   7.789  22.854  0.00  0.00     0.001 A 
HETATM    6  C   UNL     1       2.854   7.959  23.642  0.00  0.00     0.013 A 
HETATM    7  C   UNL     1       2.278   9.214  23.768  0.00  0.00    -0.016 A 
HETATM    8  C   UNL     1       1.124   9.711  24.531  0.00  0.00    -0.003 A 
HETATM    9  C   UNL     1       0.950  11.081  24.176  0.00  0.00    -0.019 A 
HETATM   10  C   UNL     1      -0.082  11.863  24.679  0.00  0.00     0.010 A 
HETATM   11  C   UNL     1      -0.965  11.280  25.575  0.00  0.00     0.002 A 
HETATM   12  C   UNL     1      -0.799   9.941  25.966  0.00  0.00     0.016 A 
HETATM   13  C   UNL     1       0.248   9.129  25.464  0.00  0.00     0.022 A 
ENDROOT
BRANCH   1  14
HETATM   14  N   UNL     1       2.794  12.630  23.666  0.00  0.00    -0.344 N 
HETATM   15  C   UNL     1       3.664  12.466  24.720  0.00  0.00     0.252 C 
HETATM   16  O   UNL     1       3.814  11.405  25.316  0.00  0.00    -0.268 OA
HETATM   17  H   UNL     1       2.648  13.531  23.235  0.00  0.00     0.163 HD
BRANCH  15  18
HETATM   18  C   UNL     1       4.409  13.671  25.165  0.00  0.00     0.034 A 
HETATM   19  C   UNL     1       3.763  14.839  25.567  0.00  0.00     0.036 A 
HETATM   20  C   UNL     1       4.551  15.912  25.951  0.00  0.00     0.117 A 
HETATM   21  N   UNL     1       5.900  15.888  25.958  0.00  0.00    -0.273 NA
HETATM   22  C   UNL     1       6.498  14.749  25.548  0.00  0.00     0.117 A 
HETATM   23  C   UNL     1       5.803  13.626  25.142  0.00  0.00     0.036 A 
ENDBRANCH  15  18
ENDBRANCH   1  14
BRANCH  13  24
HETATM   24  C   UNL     1       0.380   7.755  25.967  0.00  0.00     0.140 C 
HETATM   25  N   UNL     1      -0.449   6.708  25.604  0.00  0.00    -0.337 N 
HETATM   26  C   UNL     1       0.024   5.553  26.170  0.00  0.00     0.080 A 
HETATM   27  H   UNL     1      -1.228   6.777  24.965  0.00  0.00     0.167 HD
HETATM   28  C   UNL     1      -0.368   4.228  26.106  0.00  0.00     0.148 A 
HETATM   29  C   UNL     1       1.128   5.957  26.900  0.00  0.00     0.088 A 
HETATM   30  N   UNL     1       0.392   3.301  26.742  0.00  0.00    -0.271 NA
HETATM   31  C   UNL     1       1.496   3.698  27.421  0.00  0.00     0.118 A 
HETATM   32  C   UNL     1       1.915   5.011  27.551  0.00  0.00     0.053 A 
HETATM   33  N   UNL     1       1.275   7.317  26.832  0.00  0.00    -0.228 NA
ENDBRANCH  13  24
TORSDOF 3
ENDMDL
MODEL 2
REMARK minimizedAffinity -9.54234505
REMARK minimizedRMSD -1
REMARK  3 active torsions:
REMARK  status: ('A' for Active; 'I' for Inactive)
REMARK       I    between atoms: C_2  and  N_3 
REMARK    1  A    between atoms: C_2  and  C_26 
REMARK    2  A    between atoms: N_3  and  C_4 
REMARK    3  A    between atoms: C_16  and  C_17 
ROOT
HETATM    1  C   UNL     1       4.020  11.397  23.583  0.00  0.00     0.153 A 
HETATM    2  C   UNL     1       4.572   9.996  23.715  0.00  0.00    -0.020 A 
HETATM    3  C   UNL     1       5.897   9.603  23.545  0.00  0.00     0.010 A 
HETATM    4  C   UNL     1       6.202   8.250  23.644  0.00  0.00     0.001 A 
HETATM    5  C   UNL     1       5.186   7.317  23.876  0.00  0.00     0.001 A 
HETATM    6  C   UNL     1       3.854   7.729  24.033  0.00  0.00     0.013 A 
HETATM    7  C   UNL     1       3.536   9.077  23.995  0.00  0.00    -0.016 A 
HETATM    8  C   UNL     1       2.271   9.809  24.161  0.00  0.00    -0.003 A 
HETATM    9  C   UNL     1       2.552  11.185  23.909  0.00  0.00    -0.019 A 
HETATM   10  C   UNL     1       1.571  12.168  23.934  0.00  0.00     0.010 A 
HETATM   11  C   UNL     1       0.272  11.788  24.235  0.00  0.00     0.002 A 
HETATM   12  C   UNL     1      -0.027  10.445  24.518  0.00  0.00     0.016 A 
HETATM   13  C   UNL     1       0.961   9.428  24.497  0.00  0.00     0.022 A 
ENDROOT
BRANCH   1  14
HETATM   14  N   UNL     1       4.660  12.306  24.504  0.00  0.00    -0.344 N 
HETATM   15  C   UNL     1       5.927  12.787  24.262  0.00  0.00     0.252 C 
HETATM   16  O   UNL     1       6.595  12.476  23.283  0.00  0.00    -0.268 OA
HETATM   17  H   UNL     1       4.159  12.533  25.350  0.00  0.00     0.163 HD
BRANCH  15  18
HETATM   18  C   UNL     1       6.504  13.693  25.288  0.00  0.00     0.034 A 
HETATM   19  C   UNL     1       7.879  13.868  25.439  0.00  0.00     0.036 A 
HETATM   20  C   UNL     1       8.314  14.726  26.436  0.00  0.00     0.117 A 
HETATM   21  N   UNL     1       7.486  15.397  27.264  0.00  0.00    -0.273 NA
HETATM   22  C   UNL     1       6.161  15.195  27.105  0.00  0.00     0.117 A 
HETATM   23  C   UNL     1       5.626  14.357  26.145  0.00  0.00     0.036 A 
ENDBRANCH  15  18
ENDBRANCH   1  14
BRANCH  13  24
HETATM   24  C   UNL     1       0.572   8.058  24.858  0.00  0.00     0.140 C 
HETATM   25  N   UNL     1       0.958   6.927  24.160  0.00  0.00    -0.337 N 
HETATM   26  C   UNL     1       0.512   5.819  24.832  0.00  0.00     0.080 A 
HETATM   27  H   UNL     1       1.538   6.923  23.333  0.00  0.00     0.167 HD
HETATM   28  C   UNL     1       0.650   4.458  24.627  0.00  0.00     0.148 A 
HETATM   29  C   UNL     1      -0.173   6.332  25.919  0.00  0.00     0.088 A 
HETATM   30  N   UNL     1       0.136   3.612  25.554  0.00  0.00    -0.271 NA
HETATM   31  C   UNL     1      -0.498   4.121  26.640  0.00  0.00     0.118 A 
HETATM   32  C   UNL     1      -0.698   5.470  26.879  0.00  0.00     0.053 A 
HETATM   33  N   UNL     1      -0.197   7.700  25.868  0.00  0.00    -0.228 NA
ENDBRANCH  13  24
TORSDOF 3
ENDMDL
MODEL 3
REMARK minimizedAffinity -9.41248798
REMARK minimizedRMSD -1
REMARK  3 active torsions:
REMARK  status: ('A' for Active; 'I' for Inactive)
REMARK       I    between atoms: C_2  and  N_3 
REMARK    1  A    between atoms: C_2  and  C_26 
REMARK    2  A    between atoms: N_3  and  C_4 
REMARK    3  A    between atoms: C_16  and  C_17 
ROOT
HETATM    1  C   UNL     1       1.964   9.036  23.363  0.00  0.00     0.153 A 
HETATM    2  C   UNL     1       1.638  10.450  23.786  0.00  0.00    -0.020 A 
HETATM    3  C   UNL     1       0.370  11.004  23.940  0.00  0.00     0.010 A 
HETATM    4  C   UNL     1       0.274  12.350  24.275  0.00  0.00     0.001 A 
HETATM    5  C   UNL     1       1.431  13.122  24.418  0.00  0.00     0.001 A 
HETATM    6  C   UNL     1       2.701  12.552  24.247  0.00  0.00     0.013 A 
HETATM    7  C   UNL     1       2.823  11.199  23.970  0.00  0.00    -0.016 A 
HETATM    8  C   UNL     1       3.986  10.320  23.780  0.00  0.00    -0.003 A 
HETATM    9  C   UNL     1       3.482   9.038  23.411  0.00  0.00    -0.019 A 
HETATM   10  C   UNL     1       4.309   7.964  23.109  0.00  0.00     0.010 A 
HETATM   11  C   UNL     1       5.680   8.152  23.189  0.00  0.00     0.002 A 
HETATM   12  C   UNL     1       6.204   9.396  23.579  0.00  0.00     0.016 A 
HETATM   13  C   UNL     1       5.375  10.503  23.892  0.00  0.00     0.022 A 
ENDROOT
BRANCH   1  14
HETATM   14  N   UNL     1       1.387   8.069  24.267  0.00  0.00    -0.344 N 
HETATM   15  C   UNL     1       1.114   6.785  23.854  0.00  0.00     0.252 C 
HETATM   16  O   UNL     1       1.317   6.381  22.714  0.00  0.00    -0.268 OA
HETATM   17  H   UNL     1       1.152   8.389  25.195  0.00  0.00     0.163 HD
BRANCH  15  18
HETATM   18  C   UNL     1       0.494   5.880  24.854  0.00  0.00     0.034 A 
HETATM   19  C   UNL     1      -0.301   6.355  25.897  0.00  0.00     0.036 A 
HETATM   20  C   UNL     1      -0.821   5.427  26.785  0.00  0.00     0.117 A 
HETATM   21  N   UNL     1      -0.602   4.099  26.698  0.00  0.00    -0.273 NA
HETATM   22  C   UNL     1       0.185   3.670  25.688  0.00  0.00     0.117 A 
HETATM   23  C   UNL     1       0.754   4.513  24.753  0.00  0.00     0.036 A 
ENDBRANCH  15  18
ENDBRANCH   1  14
BRANCH  13  24
HETATM   24  C   UNL     1       6.005  11.752  24.344  0.00  0.00     0.140 C 
HETATM   25  N   UNL     1       5.326  12.791  24.955  0.00  0.00    -0.337 N 
HETATM   26  C   UNL     1       6.232  13.744  25.342  0.00  0.00     0.080 A 
HETATM   27  H   UNL     1       4.335  12.805  25.148  0.00  0.00     0.167 HD
HETATM   28  C   UNL     1       6.125  14.941  26.027  0.00  0.00     0.148 A 
HETATM   29  C   UNL     1       7.451  13.250  24.912  0.00  0.00     0.088 A 
HETATM   30  N   UNL     1       7.264  15.617  26.322  0.00  0.00    -0.271 NA
HETATM   31  C   UNL     1       8.459  15.108  25.934  0.00  0.00     0.118 A 
HETATM   32  C   UNL     1       8.624  13.935  25.216  0.00  0.00     0.053 A 
HETATM   33  N   UNL     1       7.278  12.076  24.229  0.00  0.00    -0.228 NA
ENDBRANCH  13  24
TORSDOF 3
ENDMDL
MODEL 4
REMARK minimizedAffinity -8.78537369
REMARK minimizedRMSD -1
REMARK  3 active torsions:
REMARK  status: ('A' for Active; 'I' for Inactive)
REMARK       I    between atoms: C_2  and  N_3 
REMARK    1  A    between atoms: C_2  and  C_26 
REMARK    2  A    between atoms: N_3  and  C_4 
REMARK    3  A    between atoms: C_16  and  C_17 
ROOT
HETATM    1  C   UNL     1       1.378   8.032  23.637  0.00  0.00     0.153 A 
HETATM    2  C   UNL     1       0.716   9.204  24.323  0.00  0.00    -0.020 A 
HETATM    3  C   UNL     1      -0.590   9.262  24.800  0.00  0.00     0.010 A 
HETATM    4  C   UNL     1      -1.041  10.459  25.348  0.00  0.00     0.001 A 
HETATM    5  C   UNL     1      -0.202  11.576  25.378  0.00  0.00     0.001 A 
HETATM    6  C   UNL     1       1.108  11.505  24.881  0.00  0.00     0.013 A 
HETATM    7  C   UNL     1       1.598  10.307  24.385  0.00  0.00    -0.016 A 
HETATM    8  C   UNL     1       2.907   9.912  23.843  0.00  0.00    -0.003 A 
HETATM    9  C   UNL     1       2.779   8.566  23.390  0.00  0.00    -0.019 A 
HETATM   10  C   UNL     1       3.817   7.878  22.775  0.00  0.00     0.010 A 
HETATM   11  C   UNL     1       5.029   8.532  22.615  0.00  0.00     0.002 A 
HETATM   12  C   UNL     1       5.192   9.848  23.080  0.00  0.00     0.016 A 
HETATM   13  C   UNL     1       4.145  10.564  23.710  0.00  0.00     0.022 A 
ENDROOT
BRANCH   1  14
HETATM   14  N   UNL     1       1.379   6.859  24.478  0.00  0.00    -0.344 N 
HETATM   15  C   UNL     1       1.990   6.869  25.711  0.00  0.00     0.252 C 
HETATM   16  O   UNL     1       2.579   7.842  26.168  0.00  0.00    -0.268 OA
HETATM   17  H   UNL     1       0.954   6.023  24.103  0.00  0.00     0.163 HD
BRANCH  15  18
HETATM   18  C   UNL     1       1.957   5.600  26.482  0.00  0.00     0.034 A 
HETATM   19  C   UNL     1       0.986   4.622  26.266  0.00  0.00     0.036 A 
HETATM   20  C   UNL     1       1.036   3.481  27.050  0.00  0.00     0.117 A 
HETATM   21  N   UNL     1       1.967   3.263  28.002  0.00  0.00    -0.273 NA
HETATM   22  C   UNL     1       2.884   4.234  28.200  0.00  0.00     0.117 A 
HETATM   23  C   UNL     1       2.917   5.411  27.476  0.00  0.00     0.036 A 
ENDBRANCH  15  18
ENDBRANCH   1  14
BRANCH  13  24
HETATM   24  C   UNL     1       4.418  11.918  24.215  0.00  0.00     0.140 C 
HETATM   25  N   UNL     1       3.454  12.896  24.384  0.00  0.00    -0.337 N 
HETATM   26  C   UNL     1       4.033  13.990  24.973  0.00  0.00     0.080 A 
HETATM   27  H   UNL     1       2.472  12.788  24.176  0.00  0.00     0.167 HD
HETATM   28  C   UNL     1       3.547  15.208  25.412  0.00  0.00     0.148 A 
HETATM   29  C   UNL     1       5.365  13.638  25.111  0.00  0.00     0.088 A 
HETATM   30  N   UNL     1       4.402  16.054  26.040  0.00  0.00    -0.271 NA
HETATM   31  C   UNL     1       5.697  15.686  26.209  0.00  0.00     0.118 A 
HETATM   32  C   UNL     1       6.247  14.498  25.759  0.00  0.00     0.053 A 
HETATM   33  N   UNL     1       5.593  12.404  24.563  0.00  0.00    -0.228 NA
ENDBRANCH  13  24
TORSDOF 3
ENDMDL
MODEL 5
REMARK minimizedAffinity -7.19429111
REMARK minimizedRMSD -1
REMARK  3 active torsions:
REMARK  status: ('A' for Active; 'I' for Inactive)
REMARK       I    between atoms: C_2  and  N_3 
REMARK    1  A    between atoms: C_2  and  C_26 
REMARK    2  A    between atoms: N_3  and  C_4 
REMARK    3  A    between atoms: C_16  and  C_17 
ROOT
HETATM    1  C   UNL     1       1.911   7.814  26.365  0.00  0.00     0.153 A 
HETATM    2  C   UNL     1       3.123   7.017  25.943  0.00  0.00    -0.020 A 
HETATM    3  C   UNL     1       3.621   6.879  24.650  0.00  0.00     0.010 A 
HETATM    4  C   UNL     1       4.718   6.046  24.450  0.00  0.00     0.001 A 
HETATM    5  C   UNL     1       5.272   5.347  25.526  0.00  0.00     0.001 A 
HETATM    6  C   UNL     1       4.751   5.487  26.820  0.00  0.00     0.013 A 
HETATM    7  C   UNL     1       3.696   6.356  27.053  0.00  0.00    -0.016 A 
HETATM    8  C   UNL     1       2.972   6.742  28.273  0.00  0.00    -0.003 A 
HETATM    9  C   UNL     1       1.907   7.600  27.869  0.00  0.00    -0.019 A 
HETATM   10  C   UNL     1       0.984   8.125  28.765  0.00  0.00     0.010 A 
HETATM   11  C   UNL     1       1.123   7.808  30.108  0.00  0.00     0.002 A 
HETATM   12  C   UNL     1       2.182   6.990  30.537  0.00  0.00     0.016 A 
HETATM   13  C   UNL     1       3.133   6.447  29.638  0.00  0.00     0.022 A 
ENDROOT
BRANCH   1  14
HETATM   14  N   UNL     1       2.043   9.206  26.009  0.00  0.00    -0.344 N 
HETATM   15  C   UNL     1       1.256   9.767  25.029  0.00  0.00     0.252 C 
HETATM   16  O   UNL     1       0.418   9.140  24.391  0.00  0.00    -0.268 OA
HETATM   17  H   UNL     1       2.767   9.734  26.475  0.00  0.00     0.163 HD
BRANCH  15  18
HETATM   18  C   UNL     1       1.494  11.200  24.721  0.00  0.00     0.034 A 
HETATM   19  C   UNL     1       0.462  12.068  24.367  0.00  0.00     0.036 A 
HETATM   20  C   UNL     1       0.793  13.383  24.085  0.00  0.00     0.117 A 
HETATM   21  N   UNL     1       2.051  13.868  24.135  0.00  0.00    -0.273 NA
HETATM   22  C   UNL     1       3.032  13.001  24.465  0.00  0.00     0.117 A 
HETATM   23  C   UNL     1       2.807  11.670  24.759  0.00  0.00     0.036 A 
ENDBRANCH  15  18
ENDBRANCH   1  14
BRANCH  13  24
HETATM   24  C   UNL     1       4.240   5.646  30.179  0.00  0.00     0.140 C 
HETATM   25  N   UNL     1       5.570   5.825  29.841  0.00  0.00    -0.337 N 
HETATM   26  C   UNL     1       6.337   4.988  30.609  0.00  0.00     0.080 A 
HETATM   27  H   UNL     1       5.918   6.513  29.191  0.00  0.00     0.167 HD
HETATM   28  C   UNL     1       7.700   4.785  30.732  0.00  0.00     0.148 A 
HETATM   29  C   UNL     1       5.420   4.293  31.377  0.00  0.00     0.088 A 
HETATM   30  N   UNL     1       8.139   3.911  31.672  0.00  0.00    -0.271 NA
HETATM   31  C   UNL     1       7.237   3.263  32.450  0.00  0.00     0.118 A 
HETATM   32  C   UNL     1       5.862   3.398  32.349  0.00  0.00     0.053 A 
HETATM   33  N   UNL     1       4.142   4.648  31.036  0.00  0.00    -0.228 NA
ENDBRANCH  13  24
TORSDOF 3
ENDMDL
MODEL 6
REMARK minimizedAffinity -7.11957598
REMARK minimizedRMSD -1
REMARK  3 active torsions:
REMARK  status: ('A' for Active; 'I' for Inactive)
REMARK       I    between atoms: C_2  and  N_3 
REMARK    1  A    between atoms: C_2  and  C_26 
REMARK    2  A    between atoms: N_3  and  C_4 
REMARK    3  A    between atoms: C_16  and  C_17 
ROOT
HETATM    1  C   UNL     1       3.348   5.656  27.187  0.00  0.00     0.153 A 
HETATM    2  C   UNL     1       2.415   6.696  27.764  0.00  0.00    -0.020 A 
HETATM    3  C   UNL     1       1.719   6.616  28.966  0.00  0.00     0.010 A 
HETATM    4  C   UNL     1       0.853   7.653  29.298  0.00  0.00     0.001 A 
HETATM    5  C   UNL     1       0.673   8.724  28.419  0.00  0.00     0.001 A 
HETATM    6  C   UNL     1       1.373   8.784  27.205  0.00  0.00     0.013 A 
HETATM    7  C   UNL     1       2.284   7.791  26.880  0.00  0.00    -0.016 A 
HETATM    8  C   UNL     1       3.179   7.596  25.730  0.00  0.00    -0.003 A 
HETATM    9  C   UNL     1       3.806   6.326  25.903  0.00  0.00    -0.019 A 
HETATM   10  C   UNL     1       4.690   5.792  24.975  0.00  0.00     0.010 A 
HETATM   11  C   UNL     1       4.982   6.540  23.844  0.00  0.00     0.002 A 
HETATM   12  C   UNL     1       4.402   7.807  23.663  0.00  0.00     0.016 A 
HETATM   13  C   UNL     1       3.499   8.368  24.600  0.00  0.00     0.022 A 
ENDROOT
BRANCH   1  14
HETATM   14  N   UNL     1       4.446   5.376  28.081  0.00  0.00    -0.344 N 
HETATM   15  C   UNL     1       4.370   4.356  29.003  0.00  0.00     0.252 C 
HETATM   16  O   UNL     1       3.385   3.640  29.141  0.00  0.00    -0.268 OA
HETATM   17  H   UNL     1       5.247   5.989  28.033  0.00  0.00     0.163 HD
BRANCH  15  18
HETATM   18  C   UNL     1       5.543   4.174  29.894  0.00  0.00     0.034 A 
HETATM   19  C   UNL     1       5.502   3.354  31.021  0.00  0.00     0.036 A 
HETATM   20  C   UNL     1       6.648   3.264  31.794  0.00  0.00     0.117 A 
HETATM   21  N   UNL     1       7.795   3.919  31.518  0.00  0.00    -0.273 NA
HETATM   22  C   UNL     1       7.800   4.717  30.429  0.00  0.00     0.117 A 
HETATM   23  C   UNL     1       6.709   4.880  29.597  0.00  0.00     0.036 A 
ENDBRANCH  15  18
ENDBRANCH   1  14
BRANCH  13  24
HETATM   24  C   UNL     1       2.981   9.723  24.359  0.00  0.00     0.140 C 
HETATM   25  N   UNL     1       1.727   9.998  23.844  0.00  0.00    -0.337 N 
HETATM   26  C   UNL     1       1.533  11.355  23.855  0.00  0.00     0.080 A 
HETATM   27  H   UNL     1       1.043   9.306  23.576  0.00  0.00     0.167 HD
HETATM   28  C   UNL     1       0.469  12.171  23.514  0.00  0.00     0.148 A 
HETATM   29  C   UNL     1       2.718  11.865  24.357  0.00  0.00     0.088 A 
HETATM   30  N   UNL     1       0.587  13.505  23.730  0.00  0.00    -0.271 NA
HETATM   31  C   UNL     1       1.734  13.995  24.261  0.00  0.00     0.118 A 
HETATM   32  C   UNL     1       2.844  13.232  24.587  0.00  0.00     0.053 A 
HETATM   33  N   UNL     1       3.618  10.857  24.576  0.00  0.00    -0.228 NA
ENDBRANCH  13  24
TORSDOF 3
ENDMDL
