MODEL 1
REMARK VINA RESULT:    -8.755      0.000      0.000
REMARK INTER + INTRA:         -13.408
REMARK INTER:                 -10.392
REMARK INTRA:                  -3.015
REMARK UNBOUND:                -1.582
REMARK  7 active torsions:
REMARK  status: ('A' for Active; 'I' for Inactive)
REMARK    1  A    between atoms: O_1  and  C_2 
REMARK    2  A    between atoms: C_4  and  O_5 
REMARK    3  A    between atoms: C_6  and  C_17 
REMARK    4  A    between atoms: C_8  and  C_9 
REMARK    5  A    between atoms: C_9  and  C_10 
REMARK    6  A    between atoms: C_10  and  C_11 
REMARK    7  A    between atoms: N_23  and  C_24 
ROOT
HETATM    1  C   UNL     1       3.271   3.911  22.642  0.00  0.00     0.074 C 
HETATM    2  C   UNL     1       3.711   5.032  23.342  0.00  0.00     0.074 C 
HETATM    3  C   UNL     1       4.583   5.936  22.729  0.00  0.00     0.082 C 
HETATM    4  C   UNL     1       5.087   5.694  21.441  0.00  0.00     0.046 C 
HETATM    5  C   UNL     1       4.723   4.486  20.820  0.00  0.00     0.028 C 
HETATM    6  C   UNL     1       3.724   3.644  21.349  0.00  0.00    -0.024 C 
ENDROOT
BRANCH   4   7
HETATM    7  C   UNL     1       5.968   6.699  20.761  0.00  0.00     0.172 A 
HETATM    8  N   UNL     1       7.189   6.938  21.168  0.00  0.00    -0.151 NA
HETATM    9  N   UNL     1       7.684   7.859  20.300  0.00  0.00    -0.226 N 
HETATM   10  H   UNL     1       8.580   8.309  20.431  0.00  0.00     0.194 HD
HETATM   11  C   UNL     1       6.741   8.192  19.342  0.00  0.00     0.349 A 
HETATM   12  O   UNL     1       6.891   9.036  18.472  0.00  0.00    -0.245 OA
HETATM   13  N   UNL     1       5.632   7.423  19.636  0.00  0.00    -0.241 N 
BRANCH  13  14
HETATM   14  C   UNL     1       4.428   7.543  18.920  0.00  0.00     0.084 A 
HETATM   15  C   UNL     1       3.580   8.624  19.206  0.00  0.00     0.033 A 
HETATM   16  C   UNL     1       2.443   8.860  18.429  0.00  0.00     0.002 A 
HETATM   17  C   UNL     1       2.120   7.994  17.385  0.00  0.00     0.003 A 
HETATM   18  C   UNL     1       2.920   6.881  17.135  0.00  0.00     0.044 A 
HETATM   19  C   UNL     1       4.063   6.661  17.905  0.00  0.00     0.143 A 
HETATM   20  F   UNL     1       4.808   5.575  17.646  0.00  0.00    -0.204 F 
ENDBRANCH  13  14
ENDBRANCH   4   7
BRANCH   3  21
HETATM   21  O   UNL     1       4.912   7.071  23.418  0.00  0.00    -0.360 OA
HETATM   22  H   UNL     1       4.810   7.855  22.858  0.00  0.00     0.217 HD
ENDBRANCH   3  21
BRANCH   6  23
HETATM   23  C   UNL     1       3.186   2.529  20.462  0.00  0.00     0.046 C 
BRANCH  23  24
HETATM   24  C   UNL     1       3.109   2.867  18.964  0.00  0.00     0.043 C 
BRANCH  24  25
HETATM   25  C   UNL     1       1.874   3.642  18.571  0.00  0.00    -0.058 A 
HETATM   26  C   UNL     1       1.263   4.507  19.490  0.00  0.00     0.007 A 
HETATM   27  C   UNL     1       0.164   5.281  19.113  0.00  0.00     0.001 A 
HETATM   28  C   UNL     1      -0.340   5.190  17.817  0.00  0.00     0.000 A 
HETATM   29  C   UNL     1       0.250   4.321  16.899  0.00  0.00     0.001 A 
HETATM   30  C   UNL     1       1.350   3.548  17.275  0.00  0.00     0.007 A 
ENDBRANCH  24  25
ENDBRANCH  23  24
ENDBRANCH   6  23
BRANCH   1  31
HETATM   31  O   UNL     1       2.384   3.065  23.240  0.00  0.00    -0.360 OA
HETATM   32  H   UNL     1       2.864   2.425  23.791  0.00  0.00     0.217 HD
ENDBRANCH   1  31
TORSDOF 7
ENDMDL
MODEL 2
REMARK VINA RESULT:    -8.187      2.235      4.619
REMARK INTER + INTRA:         -12.640
REMARK INTER:                  -9.954
REMARK INTRA:                  -2.686
REMARK UNBOUND:                -1.582
REMARK  7 active torsions:
REMARK  status: ('A' for Active; 'I' for Inactive)
REMARK    1  A    between atoms: O_1  and  C_2 
REMARK    2  A    between atoms: C_4  and  O_5 
REMARK    3  A    between atoms: C_6  and  C_17 
REMARK    4  A    between atoms: C_8  and  C_9 
REMARK    5  A    between atoms: C_9  and  C_10 
REMARK    6  A    between atoms: C_10  and  C_11 
REMARK    7  A    between atoms: N_23  and  C_24 
ROOT
HETATM    1  C   UNL     1       1.131   6.901  16.957  0.00  0.00     0.074 C 
HETATM    2  C   UNL     1       1.443   8.080  17.629  0.00  0.00     0.074 C 
HETATM    3  C   UNL     1       2.664   8.197  18.300  0.00  0.00     0.082 C 
HETATM    4  C   UNL     1       3.554   7.112  18.373  0.00  0.00     0.046 C 
HETATM    5  C   UNL     1       3.144   5.898  17.795  0.00  0.00     0.028 C 
HETATM    6  C   UNL     1       1.998   5.807  16.979  0.00  0.00    -0.024 C 
ENDROOT
BRANCH   4   7
HETATM    7  C   UNL     1       4.892   7.262  19.035  0.00  0.00     0.172 A 
HETATM    8  N   UNL     1       5.809   8.073  18.569  0.00  0.00    -0.151 NA
HETATM    9  N   UNL     1       6.850   7.976  19.438  0.00  0.00    -0.226 N 
HETATM   10  H   UNL     1       7.744   8.417  19.271  0.00  0.00     0.194 HD
HETATM   11  C   UNL     1       6.562   7.081  20.455  0.00  0.00     0.349 A 
HETATM   12  O   UNL     1       7.335   6.754  21.341  0.00  0.00    -0.245 OA
HETATM   13  N   UNL     1       5.281   6.633  20.198  0.00  0.00    -0.241 N 
BRANCH  13  14
HETATM   14  C   UNL     1       4.666   5.641  20.983  0.00  0.00     0.084 A 
HETATM   15  C   UNL     1       5.014   4.299  20.766  0.00  0.00     0.033 A 
HETATM   16  C   UNL     1       4.532   3.295  21.609  0.00  0.00     0.002 A 
HETATM   17  C   UNL     1       3.663   3.618  22.652  0.00  0.00     0.003 A 
HETATM   18  C   UNL     1       3.260   4.939  22.835  0.00  0.00     0.044 A 
HETATM   19  C   UNL     1       3.759   5.938  21.997  0.00  0.00     0.143 A 
HETATM   20  F   UNL     1       3.343   7.200  22.193  0.00  0.00    -0.204 F 
ENDBRANCH  13  14
ENDBRANCH   4   7
BRANCH   3  21
HETATM   21  O   UNL     1       2.969   9.405  18.864  0.00  0.00    -0.360 OA
HETATM   22  H   UNL     1       3.695   9.834  18.386  0.00  0.00     0.217 HD
ENDBRANCH   3  21
BRANCH   6  23
HETATM   23  C   UNL     1       1.805   4.540  16.157  0.00  0.00     0.046 C 
BRANCH  23  24
HETATM   24  C   UNL     1       0.812   3.524  16.746  0.00  0.00     0.043 C 
BRANCH  24  25
HETATM   25  C   UNL     1       1.366   2.720  17.899  0.00  0.00    -0.058 A 
HETATM   26  C   UNL     1       0.766   2.796  19.163  0.00  0.00     0.007 A 
HETATM   27  C   UNL     1       1.226   2.003  20.215  0.00  0.00     0.001 A 
HETATM   28  C   UNL     1       2.297   1.134  20.015  0.00  0.00     0.000 A 
HETATM   29  C   UNL     1       2.912   1.061  18.766  0.00  0.00     0.001 A 
HETATM   30  C   UNL     1       2.450   1.854  17.712  0.00  0.00     0.007 A 
ENDBRANCH  24  25
ENDBRANCH  23  24
ENDBRANCH   6  23
BRANCH   1  31
HETATM   31  O   UNL     1      -0.044   6.823  16.270  0.00  0.00    -0.360 OA
HETATM   32  H   UNL     1      -0.361   5.905  16.268  0.00  0.00     0.217 HD
ENDBRANCH   1  31
TORSDOF 7
ENDMDL
MODEL 3
REMARK VINA RESULT:    -8.050      3.233      6.556
REMARK INTER + INTRA:         -12.456
REMARK INTER:                  -9.345
REMARK INTRA:                  -3.111
REMARK UNBOUND:                -1.582
REMARK  7 active torsions:
REMARK  status: ('A' for Active; 'I' for Inactive)
REMARK    1  A    between atoms: O_1  and  C_2 
REMARK    2  A    between atoms: C_4  and  O_5 
REMARK    3  A    between atoms: C_6  and  C_17 
REMARK    4  A    between atoms: C_8  and  C_9 
REMARK    5  A    between atoms: C_9  and  C_10 
REMARK    6  A    between atoms: C_10  and  C_11 
REMARK    7  A    between atoms: N_23  and  C_24 
ROOT
HETATM    1  C   UNL     1       2.448   8.559  18.211  0.00  0.00     0.074 C 
HETATM    2  C   UNL     1       1.260   8.140  17.615  0.00  0.00     0.074 C 
HETATM    3  C   UNL     1       1.127   6.818  17.183  0.00  0.00     0.082 C 
HETATM    4  C   UNL     1       2.202   5.918  17.269  0.00  0.00     0.046 C 
HETATM    5  C   UNL     1       3.424   6.415  17.754  0.00  0.00     0.028 C 
HETATM    6  C   UNL     1       3.534   7.691  18.342  0.00  0.00    -0.024 C 
ENDROOT
BRANCH   4   7
HETATM    7  C   UNL     1       2.034   4.483  16.867  0.00  0.00     0.172 A 
HETATM    8  N   UNL     1       1.594   4.142  15.682  0.00  0.00    -0.151 NA
HETATM    9  N   UNL     1       1.615   2.783  15.667  0.00  0.00    -0.226 N 
HETATM   10  H   UNL     1       1.229   2.238  14.909  0.00  0.00     0.194 HD
HETATM   11  C   UNL     1       2.076   2.283  16.875  0.00  0.00     0.349 A 
HETATM   12  O   UNL     1       2.144   1.099  17.164  0.00  0.00    -0.245 OA
HETATM   13  N   UNL     1       2.362   3.393  17.646  0.00  0.00    -0.241 N 
BRANCH  13  14
HETATM   14  C   UNL     1       2.786   3.285  18.982  0.00  0.00     0.084 A 
HETATM   15  C   UNL     1       4.151   3.085  19.240  0.00  0.00     0.033 A 
HETATM   16  C   UNL     1       4.635   3.106  20.551  0.00  0.00     0.002 A 
HETATM   17  C   UNL     1       3.755   3.286  21.617  0.00  0.00     0.003 A 
HETATM   18  C   UNL     1       2.390   3.420  21.374  0.00  0.00     0.044 A 
HETATM   19  C   UNL     1       1.915   3.413  20.061  0.00  0.00     0.143 A 
HETATM   20  F   UNL     1       0.593   3.534  19.861  0.00  0.00    -0.204 F 
ENDBRANCH  13  14
ENDBRANCH   4   7
BRANCH   3  21
HETATM   21  O   UNL     1      -0.089   6.427  16.692  0.00  0.00    -0.360 OA
HETATM   22  H   UNL     1      -0.016   6.170  15.760  0.00  0.00     0.217 HD
ENDBRANCH   3  21
BRANCH   6  23
HETATM   23  C   UNL     1       4.809   8.019  19.107  0.00  0.00     0.046 C 
BRANCH  23  24
HETATM   24  C   UNL     1       5.488   6.819  19.788  0.00  0.00     0.043 C 
BRANCH  24  25
HETATM   25  C   UNL     1       5.172   6.688  21.259  0.00  0.00    -0.058 A 
HETATM   26  C   UNL     1       3.906   7.045  21.743  0.00  0.00     0.007 A 
HETATM   27  C   UNL     1       3.583   6.860  23.088  0.00  0.00     0.001 A 
HETATM   28  C   UNL     1       4.526   6.325  23.964  0.00  0.00     0.000 A 
HETATM   29  C   UNL     1       5.793   5.981  23.497  0.00  0.00     0.001 A 
HETATM   30  C   UNL     1       6.117   6.164  22.151  0.00  0.00     0.007 A 
ENDBRANCH  24  25
ENDBRANCH  23  24
ENDBRANCH   6  23
BRANCH   1  31
HETATM   31  O   UNL     1       2.542   9.840  18.667  0.00  0.00    -0.360 OA
HETATM   32  H   UNL     1       2.408   9.855  19.629  0.00  0.00     0.217 HD
ENDBRANCH   1  31
TORSDOF 7
ENDMDL
MODEL 4
REMARK VINA RESULT:    -7.941      3.197      5.881
REMARK INTER + INTRA:         -12.308
REMARK INTER:                 -10.430
REMARK INTRA:                  -1.879
REMARK UNBOUND:                -1.582
REMARK  7 active torsions:
REMARK  status: ('A' for Active; 'I' for Inactive)
REMARK    1  A    between atoms: O_1  and  C_2 
REMARK    2  A    between atoms: C_4  and  O_5 
REMARK    3  A    between atoms: C_6  and  C_17 
REMARK    4  A    between atoms: C_8  and  C_9 
REMARK    5  A    between atoms: C_9  and  C_10 
REMARK    6  A    between atoms: C_10  and  C_11 
REMARK    7  A    between atoms: N_23  and  C_24 
ROOT
HETATM    1  C   UNL     1       5.643   6.422  21.902  0.00  0.00     0.074 C 
HETATM    2  C   UNL     1       6.119   6.648  20.612  0.00  0.00     0.074 C 
HETATM    3  C   UNL     1       5.225   6.970  19.587  0.00  0.00     0.082 C 
HETATM    4  C   UNL     1       3.840   6.995  19.819  0.00  0.00     0.046 C 
HETATM    5  C   UNL     1       3.391   6.632  21.100  0.00  0.00     0.028 C 
HETATM    6  C   UNL     1       4.277   6.464  22.184  0.00  0.00    -0.024 C 
ENDROOT
BRANCH   4   7
HETATM    7  C   UNL     1       2.889   7.407  18.733  0.00  0.00     0.172 A 
HETATM    8  N   UNL     1       2.826   8.640  18.299  0.00  0.00    -0.151 NA
HETATM    9  N   UNL     1       1.900   8.624  17.304  0.00  0.00    -0.226 N 
HETATM   10  H   UNL     1       1.568   9.465  16.853  0.00  0.00     0.194 HD
HETATM   11  C   UNL     1       1.383   7.351  17.132  0.00  0.00     0.349 A 
HETATM   12  O   UNL     1       0.493   7.054  16.350  0.00  0.00    -0.245 OA
HETATM   13  N   UNL     1       2.042   6.559  18.052  0.00  0.00    -0.241 N 
BRANCH  13  14
HETATM   14  C   UNL     1       1.726   5.201  18.231  0.00  0.00     0.084 A 
HETATM   15  C   UNL     1       2.561   4.234  17.650  0.00  0.00     0.033 A 
HETATM   16  C   UNL     1       2.364   2.876  17.912  0.00  0.00     0.002 A 
HETATM   17  C   UNL     1       1.306   2.469  18.724  0.00  0.00     0.003 A 
HETATM   18  C   UNL     1       0.433   3.417  19.253  0.00  0.00     0.044 A 
HETATM   19  C   UNL     1       0.645   4.773  18.999  0.00  0.00     0.143 A 
HETATM   20  F   UNL     1      -0.220   5.661  19.514  0.00  0.00    -0.204 F 
ENDBRANCH  13  14
ENDBRANCH   4   7
BRANCH   3  21
HETATM   21  O   UNL     1       5.746   7.277  18.360  0.00  0.00    -0.360 OA
HETATM   22  H   UNL     1       5.833   8.236  18.254  0.00  0.00     0.217 HD
ENDBRANCH   3  21
BRANCH   6  23
HETATM   23  C   UNL     1       3.684   6.375  23.584  0.00  0.00     0.046 C 
BRANCH  23  24
HETATM   24  C   UNL     1       4.189   7.438  24.574  0.00  0.00     0.043 C 
BRANCH  24  25
HETATM   25  C   UNL     1       3.639   8.822  24.324  0.00  0.00    -0.058 A 
HETATM   26  C   UNL     1       2.477   9.248  24.982  0.00  0.00     0.007 A 
HETATM   27  C   UNL     1       2.002  10.549  24.812  0.00  0.00     0.001 A 
HETATM   28  C   UNL     1       2.679  11.434  23.974  0.00  0.00     0.000 A 
HETATM   29  C   UNL     1       3.827  11.016  23.303  0.00  0.00     0.001 A 
HETATM   30  C   UNL     1       4.304   9.714  23.474  0.00  0.00     0.007 A 
ENDBRANCH  24  25
ENDBRANCH  23  24
ENDBRANCH   6  23
BRANCH   1  31
HETATM   31  O   UNL     1       6.535   6.155  22.898  0.00  0.00    -0.360 OA
HETATM   32  H   UNL     1       6.640   5.194  22.993  0.00  0.00     0.217 HD
ENDBRANCH   1  31
TORSDOF 7
ENDMDL
MODEL 5
REMARK VINA RESULT:    -7.928      2.583      5.139
REMARK INTER + INTRA:         -12.291
REMARK INTER:                  -9.345
REMARK INTRA:                  -2.946
REMARK UNBOUND:                -1.582
REMARK  7 active torsions:
REMARK  status: ('A' for Active; 'I' for Inactive)
REMARK    1  A    between atoms: O_1  and  C_2 
REMARK    2  A    between atoms: C_4  and  O_5 
REMARK    3  A    between atoms: C_6  and  C_17 
REMARK    4  A    between atoms: C_8  and  C_9 
REMARK    5  A    between atoms: C_9  and  C_10 
REMARK    6  A    between atoms: C_10  and  C_11 
REMARK    7  A    between atoms: N_23  and  C_24 
ROOT
HETATM    1  C   UNL     1       2.885   2.195  19.271  0.00  0.00     0.074 C 
HETATM    2  C   UNL     1       2.604   2.502  17.942  0.00  0.00     0.074 C 
HETATM    3  C   UNL     1       2.288   3.816  17.584  0.00  0.00     0.082 C 
HETATM    4  C   UNL     1       2.174   4.822  18.557  0.00  0.00     0.046 C 
HETATM    5  C   UNL     1       2.335   4.444  19.901  0.00  0.00     0.028 C 
HETATM    6  C   UNL     1       2.811   3.169  20.269  0.00  0.00    -0.024 C 
ENDROOT
BRANCH   4   7
HETATM    7  C   UNL     1       1.901   6.243  18.162  0.00  0.00     0.172 A 
HETATM    8  N   UNL     1       0.885   6.569  17.405  0.00  0.00    -0.151 NA
HETATM    9  N   UNL     1       0.935   7.923  17.297  0.00  0.00    -0.226 N 
HETATM   10  H   UNL     1       0.327   8.446  16.681  0.00  0.00     0.194 HD
HETATM   11  C   UNL     1       2.011   8.434  18.003  0.00  0.00     0.349 A 
HETATM   12  O   UNL     1       2.335   9.611  18.034  0.00  0.00    -0.245 OA
HETATM   13  N   UNL     1       2.627   7.339  18.577  0.00  0.00    -0.241 N 
BRANCH  13  14
HETATM   14  C   UNL     1       3.818   7.455  19.316  0.00  0.00     0.084 A 
HETATM   15  C   UNL     1       3.800   8.194  20.509  0.00  0.00     0.033 A 
HETATM   16  C   UNL     1       4.921   8.223  21.343  0.00  0.00     0.002 A 
HETATM   17  C   UNL     1       6.083   7.548  20.972  0.00  0.00     0.003 A 
HETATM   18  C   UNL     1       6.132   6.866  19.759  0.00  0.00     0.044 A 
HETATM   19  C   UNL     1       5.003   6.828  18.938  0.00  0.00     0.143 A 
HETATM   20  F   UNL     1       5.086   6.171  17.771  0.00  0.00    -0.204 F 
ENDBRANCH  13  14
ENDBRANCH   4   7
BRANCH   3  21
HETATM   21  O   UNL     1       2.113   4.090  16.255  0.00  0.00    -0.360 OA
HETATM   22  H   UNL     1       1.938   3.278  15.757  0.00  0.00     0.217 HD
ENDBRANCH   3  21
BRANCH   6  23
HETATM   23  C   UNL     1       3.241   2.955  21.714  0.00  0.00     0.046 C 
BRANCH  23  24
HETATM   24  C   UNL     1       4.547   3.661  22.116  0.00  0.00     0.043 C 
BRANCH  24  25
HETATM   25  C   UNL     1       4.352   4.819  23.067  0.00  0.00    -0.058 A 
HETATM   26  C   UNL     1       5.442   5.338  23.778  0.00  0.00     0.007 A 
HETATM   27  C   UNL     1       5.285   6.452  24.604  0.00  0.00     0.001 A 
HETATM   28  C   UNL     1       4.033   7.052  24.733  0.00  0.00     0.000 A 
HETATM   29  C   UNL     1       2.938   6.535  24.042  0.00  0.00     0.001 A 
HETATM   30  C   UNL     1       3.095   5.420  23.215  0.00  0.00     0.007 A 
ENDBRANCH  24  25
ENDBRANCH  23  24
ENDBRANCH   6  23
BRANCH   1  31
HETATM   31  O   UNL     1       3.236   0.917  19.594  0.00  0.00    -0.360 OA
HETATM   32  H   UNL     1       3.686   0.502  18.840  0.00  0.00     0.217 HD
ENDBRANCH   1  31
TORSDOF 7
ENDMDL
MODEL 6
REMARK VINA RESULT:    -7.922      6.579      9.423
REMARK INTER + INTRA:         -12.283
REMARK INTER:                 -10.274
REMARK INTRA:                  -2.009
REMARK UNBOUND:                -1.582
REMARK  7 active torsions:
REMARK  status: ('A' for Active; 'I' for Inactive)
REMARK    1  A    between atoms: O_1  and  C_2 
REMARK    2  A    between atoms: C_4  and  O_5 
REMARK    3  A    between atoms: C_6  and  C_17 
REMARK    4  A    between atoms: C_8  and  C_9 
REMARK    5  A    between atoms: C_9  and  C_10 
REMARK    6  A    between atoms: C_10  and  C_11 
REMARK    7  A    between atoms: N_23  and  C_24 
ROOT
HETATM    1  C   UNL     1       3.654  10.467  23.589  0.00  0.00     0.074 C 
HETATM    2  C   UNL     1       3.890   9.097  23.500  0.00  0.00     0.074 C 
HETATM    3  C   UNL     1       3.034   8.200  24.146  0.00  0.00     0.082 C 
HETATM    4  C   UNL     1       1.978   8.661  24.950  0.00  0.00     0.046 C 
HETATM    5  C   UNL     1       1.854  10.051  25.120  0.00  0.00     0.028 C 
HETATM    6  C   UNL     1       2.600  10.969  24.354  0.00  0.00    -0.024 C 
ENDROOT
BRANCH   4   7
HETATM    7  C   UNL     1       1.021   7.697  25.585  0.00  0.00     0.172 A 
HETATM    8  N   UNL     1       0.010   7.189  24.928  0.00  0.00    -0.151 NA
HETATM    9  N   UNL     1      -0.597   6.341  25.799  0.00  0.00    -0.226 N 
HETATM   10  H   UNL     1      -1.475   5.882  25.595  0.00  0.00     0.194 HD
HETATM   11  C   UNL     1       0.059   6.334  27.019  0.00  0.00     0.349 A 
HETATM   12  O   UNL     1      -0.300   5.711  28.006  0.00  0.00    -0.245 OA
HETATM   13  N   UNL     1       1.120   7.205  26.870  0.00  0.00    -0.241 N 
BRANCH  13  14
HETATM   14  C   UNL     1       1.981   7.523  27.935  0.00  0.00     0.084 A 
HETATM   15  C   UNL     1       3.135   6.746  28.122  0.00  0.00     0.033 A 
HETATM   16  C   UNL     1       4.085   7.106  29.081  0.00  0.00     0.002 A 
HETATM   17  C   UNL     1       3.872   8.222  29.890  0.00  0.00     0.003 A 
HETATM   18  C   UNL     1       2.699   8.962  29.756  0.00  0.00     0.044 A 
HETATM   19  C   UNL     1       1.761   8.604  28.785  0.00  0.00     0.143 A 
HETATM   20  F   UNL     1       0.636   9.330  28.688  0.00  0.00    -0.204 F 
ENDBRANCH  13  14
ENDBRANCH   4   7
BRANCH   3  21
HETATM   21  O   UNL     1       3.247   6.863  23.953  0.00  0.00    -0.360 OA
HETATM   22  H   UNL     1       2.487   6.346  24.261  0.00  0.00     0.217 HD
ENDBRANCH   3  21
BRANCH   6  23
HETATM   23  C   UNL     1       2.184  12.434  24.388  0.00  0.00     0.046 C 
BRANCH  23  24
HETATM   24  C   UNL     1       0.821  12.709  25.045  0.00  0.00     0.043 C 
BRANCH  24  25
HETATM   25  C   UNL     1      -0.355  12.563  24.108  0.00  0.00    -0.058 A 
HETATM   26  C   UNL     1      -0.292  13.090  22.812  0.00  0.00     0.007 A 
HETATM   27  C   UNL     1      -1.345  12.898  21.916  0.00  0.00     0.001 A 
HETATM   28  C   UNL     1      -2.474  12.184  22.312  0.00  0.00     0.000 A 
HETATM   29  C   UNL     1      -2.554  11.668  23.605  0.00  0.00     0.001 A 
HETATM   30  C   UNL     1      -1.500  11.859  24.501  0.00  0.00     0.007 A 
ENDBRANCH  24  25
ENDBRANCH  23  24
ENDBRANCH   6  23
BRANCH   1  31
HETATM   31  O   UNL     1       4.473  11.323  22.914  0.00  0.00    -0.360 OA
HETATM   32  H   UNL     1       5.346  10.914  22.795  0.00  0.00     0.217 HD
ENDBRANCH   1  31
TORSDOF 7
ENDMDL
MODEL 7
REMARK VINA RESULT:    -7.904      6.075      7.839
REMARK INTER + INTRA:         -12.259
REMARK INTER:                 -10.500
REMARK INTRA:                  -1.758
REMARK UNBOUND:                -1.582
REMARK  7 active torsions:
REMARK  status: ('A' for Active; 'I' for Inactive)
REMARK    1  A    between atoms: O_1  and  C_2 
REMARK    2  A    between atoms: C_4  and  O_5 
REMARK    3  A    between atoms: C_6  and  C_17 
REMARK    4  A    between atoms: C_8  and  C_9 
REMARK    5  A    between atoms: C_9  and  C_10 
REMARK    6  A    between atoms: C_10  and  C_11 
REMARK    7  A    between atoms: N_23  and  C_24 
ROOT
HETATM    1  C   UNL     1       2.758   7.079  23.771  0.00  0.00     0.074 C 
HETATM    2  C   UNL     1       1.637   6.471  24.331  0.00  0.00     0.074 C 
HETATM    3  C   UNL     1       0.894   7.145  25.305  0.00  0.00     0.082 C 
HETATM    4  C   UNL     1       1.304   8.399  25.786  0.00  0.00     0.046 C 
HETATM    5  C   UNL     1       2.512   8.919  25.291  0.00  0.00     0.028 C 
HETATM    6  C   UNL     1       3.187   8.336  24.199  0.00  0.00    -0.024 C 
ENDROOT
BRANCH   4   7
HETATM    7  C   UNL     1       0.468   9.149  26.781  0.00  0.00     0.172 A 
HETATM    8  N   UNL     1       0.442   8.825  28.049  0.00  0.00    -0.151 NA
HETATM    9  N   UNL     1      -0.376   9.736  28.637  0.00  0.00    -0.226 N 
HETATM   10  H   UNL     1      -0.665   9.668  29.603  0.00  0.00     0.194 HD
HETATM   11  C   UNL     1      -0.865  10.635  27.704  0.00  0.00     0.349 A 
HETATM   12  O   UNL     1      -1.667  11.525  27.939  0.00  0.00    -0.245 OA
HETATM   13  N   UNL     1      -0.300  10.259  26.501  0.00  0.00    -0.241 N 
BRANCH  13  14
HETATM   14  C   UNL     1      -0.625  10.898  25.291  0.00  0.00     0.084 A 
HETATM   15  C   UNL     1      -1.884  10.657  24.720  0.00  0.00     0.033 A 
HETATM   16  C   UNL     1      -2.301  11.372  23.594  0.00  0.00     0.002 A 
HETATM   17  C   UNL     1      -1.448  12.304  23.005  0.00  0.00     0.003 A 
HETATM   18  C   UNL     1      -0.172  12.504  23.526  0.00  0.00     0.044 A 
HETATM   19  C   UNL     1       0.232  11.797  24.660  0.00  0.00     0.143 A 
HETATM   20  F   UNL     1       1.472  12.004  25.132  0.00  0.00    -0.204 F 
ENDBRANCH  13  14
ENDBRANCH   4   7
BRANCH   3  21
HETATM   21  O   UNL     1      -0.252   6.551  25.757  0.00  0.00    -0.360 OA
HETATM   22  H   UNL     1      -0.056   5.928  26.474  0.00  0.00     0.217 HD
ENDBRANCH   3  21
BRANCH   6  23
HETATM   23  C   UNL     1       4.307   9.132  23.543  0.00  0.00     0.046 C 
BRANCH  23  24
HETATM   24  C   UNL     1       3.964   9.730  22.168  0.00  0.00     0.043 C 
BRANCH  24  25
HETATM   25  C   UNL     1       4.490   8.928  21.001  0.00  0.00    -0.058 A 
HETATM   26  C   UNL     1       5.787   8.399  21.037  0.00  0.00     0.007 A 
HETATM   27  C   UNL     1       6.256   7.598  19.995  0.00  0.00     0.001 A 
HETATM   28  C   UNL     1       5.435   7.327  18.902  0.00  0.00     0.000 A 
HETATM   29  C   UNL     1       4.148   7.861  18.848  0.00  0.00     0.001 A 
HETATM   30  C   UNL     1       3.678   8.662  19.891  0.00  0.00     0.007 A 
ENDBRANCH  24  25
ENDBRANCH  23  24
ENDBRANCH   6  23
BRANCH   1  31
HETATM   31  O   UNL     1       3.443   6.425  22.790  0.00  0.00    -0.360 OA
HETATM   32  H   UNL     1       3.258   6.838  21.931  0.00  0.00     0.217 HD
ENDBRANCH   1  31
TORSDOF 7
ENDMDL
MODEL 8
REMARK VINA RESULT:    -7.849      3.905      5.732
REMARK INTER + INTRA:         -12.184
REMARK INTER:                 -10.602
REMARK INTRA:                  -1.582
REMARK UNBOUND:                -1.582
REMARK  7 active torsions:
REMARK  status: ('A' for Active; 'I' for Inactive)
REMARK    1  A    between atoms: O_1  and  C_2 
REMARK    2  A    between atoms: C_4  and  O_5 
REMARK    3  A    between atoms: C_6  and  C_17 
REMARK    4  A    between atoms: C_8  and  C_9 
REMARK    5  A    between atoms: C_9  and  C_10 
REMARK    6  A    between atoms: C_10  and  C_11 
REMARK    7  A    between atoms: N_23  and  C_24 
ROOT
HETATM    1  C   UNL     1       4.190   7.540  25.168  0.00  0.00     0.074 C 
HETATM    2  C   UNL     1       5.101   6.615  24.664  0.00  0.00     0.074 C 
HETATM    3  C   UNL     1       5.396   6.603  23.298  0.00  0.00     0.082 C 
HETATM    4  C   UNL     1       4.729   7.461  22.408  0.00  0.00     0.046 C 
HETATM    5  C   UNL     1       3.722   8.287  22.937  0.00  0.00     0.028 C 
HETATM    6  C   UNL     1       3.524   8.431  24.325  0.00  0.00    -0.024 C 
ENDROOT
BRANCH   4   7
HETATM    7  C   UNL     1       5.097   7.492  20.953  0.00  0.00     0.172 A 
HETATM    8  N   UNL     1       5.954   8.357  20.474  0.00  0.00    -0.151 NA
HETATM    9  N   UNL     1       6.065   8.059  19.152  0.00  0.00    -0.226 N 
HETATM   10  H   UNL     1       6.585   8.634  18.504  0.00  0.00     0.194 HD
HETATM   11  C   UNL     1       5.251   6.989  18.818  0.00  0.00     0.349 A 
HETATM   12  O   UNL     1       5.105   6.544  17.690  0.00  0.00    -0.245 OA
HETATM   13  N   UNL     1       4.636   6.613  19.996  0.00  0.00    -0.241 N 
BRANCH  13  14
HETATM   14  C   UNL     1       3.667   5.596  20.041  0.00  0.00     0.084 A 
HETATM   15  C   UNL     1       4.038   4.334  20.531  0.00  0.00     0.033 A 
HETATM   16  C   UNL     1       3.079   3.336  20.720  0.00  0.00     0.002 A 
HETATM   17  C   UNL     1       1.747   3.576  20.381  0.00  0.00     0.003 A 
HETATM   18  C   UNL     1       1.380   4.803  19.833  0.00  0.00     0.044 A 
HETATM   19  C   UNL     1       2.342   5.800  19.662  0.00  0.00     0.143 A 
HETATM   20  F   UNL     1       1.959   6.968  19.122  0.00  0.00    -0.204 F 
ENDBRANCH  13  14
ENDBRANCH   4   7
BRANCH   3  21
HETATM   21  O   UNL     1       6.366   5.743  22.862  0.00  0.00    -0.360 OA
HETATM   22  H   UNL     1       6.985   5.533  23.577  0.00  0.00     0.217 HD
ENDBRANCH   3  21
BRANCH   6  23
HETATM   23  C   UNL     1       2.628   9.565  24.805  0.00  0.00     0.046 C 
BRANCH  23  24
HETATM   24  C   UNL     1       1.168   9.171  25.082  0.00  0.00     0.043 C 
BRANCH  24  25
HETATM   25  C   UNL     1       0.165  10.248  24.744  0.00  0.00    -0.058 A 
HETATM   26  C   UNL     1       0.602  11.536  24.406  0.00  0.00     0.007 A 
HETATM   27  C   UNL     1      -0.313  12.518  24.024  0.00  0.00     0.001 A 
HETATM   28  C   UNL     1      -1.675  12.224  23.985  0.00  0.00     0.000 A 
HETATM   29  C   UNL     1      -2.122  10.950  24.334  0.00  0.00     0.001 A 
HETATM   30  C   UNL     1      -1.207   9.967  24.715  0.00  0.00     0.007 A 
ENDBRANCH  24  25
ENDBRANCH  23  24
ENDBRANCH   6  23
BRANCH   1  31
HETATM   31  O   UNL     1       3.950   7.567  26.511  0.00  0.00    -0.360 OA
HETATM   32  H   UNL     1       3.322   6.865  26.744  0.00  0.00     0.217 HD
ENDBRANCH   1  31
TORSDOF 7
ENDMDL
MODEL 9
REMARK VINA RESULT:    -7.779      4.833      6.696
REMARK INTER + INTRA:         -12.089
REMARK INTER:                 -10.292
REMARK INTRA:                  -1.797
REMARK UNBOUND:                -1.582
REMARK  7 active torsions:
REMARK  status: ('A' for Active; 'I' for Inactive)
REMARK    1  A    between atoms: O_1  and  C_2 
REMARK    2  A    between atoms: C_4  and  O_5 
REMARK    3  A    between atoms: C_6  and  C_17 
REMARK    4  A    between atoms: C_8  and  C_9 
REMARK    5  A    between atoms: C_9  and  C_10 
REMARK    6  A    between atoms: C_10  and  C_11 
REMARK    7  A    between atoms: N_23  and  C_24 
ROOT
HETATM    1  C   UNL     1       1.720   7.610  27.067  0.00  0.00     0.074 C 
HETATM    2  C   UNL     1       3.063   7.294  26.878  0.00  0.00     0.074 C 
HETATM    3  C   UNL     1       3.666   7.530  25.640  0.00  0.00     0.082 C 
HETATM    4  C   UNL     1       2.919   8.012  24.553  0.00  0.00     0.046 C 
HETATM    5  C   UNL     1       1.538   8.194  24.747  0.00  0.00     0.028 C 
HETATM    6  C   UNL     1       0.945   8.118  26.023  0.00  0.00    -0.024 C 
ENDROOT
BRANCH   4   7
HETATM    7  C   UNL     1       3.583   8.328  23.245  0.00  0.00     0.172 A 
HETATM    8  N   UNL     1       3.797   9.560  22.856  0.00  0.00    -0.151 NA
HETATM    9  N   UNL     1       4.445   9.454  21.667  0.00  0.00    -0.226 N 
HETATM   10  H   UNL     1       4.646  10.252  21.080  0.00  0.00     0.194 HD
HETATM   11  C   UNL     1       4.627   8.125  21.320  0.00  0.00     0.349 A 
HETATM   12  O   UNL     1       5.127   7.734  20.277  0.00  0.00    -0.245 OA
HETATM   13  N   UNL     1       4.080   7.397  22.358  0.00  0.00    -0.241 N 
BRANCH  13  14
HETATM   14  C   UNL     1       4.007   5.993  22.328  0.00  0.00     0.084 A 
HETATM   15  C   UNL     1       2.818   5.391  21.889  0.00  0.00     0.033 A 
HETATM   16  C   UNL     1       2.745   4.007  21.715  0.00  0.00     0.002 A 
HETATM   17  C   UNL     1       3.848   3.207  22.016  0.00  0.00     0.003 A 
HETATM   18  C   UNL     1       5.011   3.790  22.514  0.00  0.00     0.044 A 
HETATM   19  C   UNL     1       5.081   5.175  22.671  0.00  0.00     0.143 A 
HETATM   20  F   UNL     1       6.212   5.705  23.163  0.00  0.00    -0.204 F 
ENDBRANCH  13  14
ENDBRANCH   4   7
BRANCH   3  21
HETATM   21  O   UNL     1       5.009   7.294  25.529  0.00  0.00    -0.360 OA
HETATM   22  H   UNL     1       5.174   6.400  25.192  0.00  0.00     0.217 HD
ENDBRANCH   3  21
BRANCH   6  23
HETATM   23  C   UNL     1      -0.483   8.625  26.179  0.00  0.00     0.046 C 
BRANCH  23  24
HETATM   24  C   UNL     1      -0.611  10.120  26.515  0.00  0.00     0.043 C 
BRANCH  24  25
HETATM   25  C   UNL     1      -0.940  10.992  25.326  0.00  0.00    -0.058 A 
HETATM   26  C   UNL     1       0.043  11.816  24.763  0.00  0.00     0.007 A 
HETATM   27  C   UNL     1      -0.233  12.571  23.621  0.00  0.00     0.001 A 
HETATM   28  C   UNL     1      -1.498  12.515  23.039  0.00  0.00     0.000 A 
HETATM   29  C   UNL     1      -2.489  11.710  23.600  0.00  0.00     0.001 A 
HETATM   30  C   UNL     1      -2.213  10.954  24.742  0.00  0.00     0.007 A 
ENDBRANCH  24  25
ENDBRANCH  23  24
ENDBRANCH   6  23
BRANCH   1  31
HETATM   31  O   UNL     1       1.162   7.416  28.296  0.00  0.00    -0.360 OA
HETATM   32  H   UNL     1       0.196   7.491  28.231  0.00  0.00     0.217 HD
ENDBRANCH   1  31
TORSDOF 7
ENDMDL
