MODEL 1
REMARK VINA RESULT:    -8.556      0.000      0.000
REMARK INTER + INTRA:         -12.675
REMARK INTER:                 -11.666
REMARK INTRA:                  -1.008
REMARK UNBOUND:                -1.367
REMARK  6 active torsions:
REMARK  status: ('A' for Active; 'I' for Inactive)
REMARK    1  A    between atoms: O_2  and  C_3 
REMARK       I    between atoms: N_6  and  C_7 
REMARK    2  A    between atoms: C_7  and  C_9 
REMARK    3  A    between atoms: C_15  and  O_16 
REMARK    4  A    between atoms: C_17  and  C_18 
REMARK       I    between atoms: C_18  and  N_20 
REMARK    5  A    between atoms: N_20  and  C_22 
REMARK    6  A    between atoms: C_25  and  N_26 
ROOT
HETATM    1  C   UNL     1      -2.066  16.818  20.103  0.00  0.00     0.157 A 
HETATM    2  N   UNL     1      -3.071  17.682  19.841  0.00  0.00    -0.168 NA
HETATM    3  N   UNL     1      -4.177  17.058  20.260  0.00  0.00    -0.277 N 
HETATM    4  H   UNL     1      -5.062  17.538  20.157  0.00  0.00     0.189 HD
HETATM    5  C   UNL     1      -3.955  15.829  20.808  0.00  0.00     0.065 A 
HETATM    6  C   UNL     1      -4.827  14.901  21.374  0.00  0.00     0.069 C 
HETATM    7  C   UNL     1      -4.250  13.745  21.921  0.00  0.00     0.083 C 
HETATM    8  C   UNL     1      -2.864  13.491  21.854  0.00  0.00     0.066 C 
HETATM    9  C   UNL     1      -2.052  14.398  21.154  0.00  0.00     0.036 C 
HETATM   10  C   UNL     1      -2.587  15.621  20.697  0.00  0.00     0.029 A 
ENDROOT
BRANCH   8  11
HETATM   11  C   UNL     1      -2.284  12.215  22.388  0.00  0.00     0.260 C 
HETATM   12  O   UNL     1      -2.676  11.196  21.813  0.00  0.00    -0.267 OA
HETATM   13  N   UNL     1      -1.360  12.197  23.476  0.00  0.00    -0.318 N 
HETATM   14  C   UNL     1      -1.047  13.360  24.322  0.00  0.00     0.159 C 
BRANCH  13  15
HETATM   15  C   UNL     1      -0.824  10.931  23.951  0.00  0.00     0.037 A 
HETATM   16  C   UNL     1       0.282  10.319  23.359  0.00  0.00     0.032 A 
HETATM   17  C   UNL     1       0.761   9.071  23.798  0.00  0.00     0.031 A 
HETATM   18  C   UNL     1       0.183   8.374  24.864  0.00  0.00     0.030 A 
HETATM   19  C   UNL     1      -0.894   9.015  25.484  0.00  0.00     0.031 A 
HETATM   20  C   UNL     1      -1.385  10.259  25.046  0.00  0.00     0.032 A 
BRANCH  18  21
HETATM   21  N   UNL     1       0.653   7.150  25.285  0.00  0.00    -0.377 N 
HETATM   22  C   UNL     1       1.938   6.978  25.979  0.00  0.00     0.149 C 
HETATM   23  C   UNL     1       1.696   6.199  27.284  0.00  0.00     0.187 C 
HETATM   24  O   UNL     1       1.057   4.934  27.040  0.00  0.00    -0.388 OA
HETATM   25  C   UNL     1      -0.211   5.133  26.390  0.00  0.00     0.187 C 
HETATM   26  C   UNL     1      -0.052   5.877  25.055  0.00  0.00     0.149 C 
ENDBRANCH  18  21
ENDBRANCH  13  15
ENDBRANCH   8  11
BRANCH   7  27
HETATM   27  O   UNL     1      -5.097  12.867  22.546  0.00  0.00    -0.360 OA
HETATM   28  H   UNL     1      -5.765  12.537  21.923  0.00  0.00     0.217 HD
ENDBRANCH   7  27
BRANCH   1  29
HETATM   29  C   UNL     1      -0.626  17.093  19.852  0.00  0.00     0.275 C 
HETATM   30  N   UNL     1       0.280  16.997  20.904  0.00  0.00    -0.344 N 
HETATM   31  C   UNL     1       1.700  17.210  20.709  0.00  0.00     0.129 C 
HETATM   32  C   UNL     1      -0.005  16.686  22.298  0.00  0.00     0.158 C 
HETATM   33  C   UNL     1       2.347  16.572  21.922  0.00  0.00     0.053 C 
HETATM   34  C   UNL     1       1.330  16.823  23.035  0.00  0.00     0.140 C 
HETATM   35  O   UNL     1      -0.233  17.381  18.719  0.00  0.00    -0.266 OA
BRANCH  34  36
HETATM   36  O   UNL     1       1.520  15.876  24.082  0.00  0.00    -0.389 OA
HETATM   37  C   UNL     1       2.355  14.789  23.698  0.00  0.00     0.202 C 
ENDBRANCH  34  36
ENDBRANCH   1  29
TORSDOF 6
ENDMDL
MODEL 2
REMARK VINA RESULT:    -7.788      3.340      5.811
REMARK INTER + INTRA:         -11.659
REMARK INTER:                 -10.356
REMARK INTRA:                  -1.303
REMARK UNBOUND:                -1.367
REMARK  6 active torsions:
REMARK  status: ('A' for Active; 'I' for Inactive)
REMARK    1  A    between atoms: O_2  and  C_3 
REMARK       I    between atoms: N_6  and  C_7 
REMARK    2  A    between atoms: C_7  and  C_9 
REMARK    3  A    between atoms: C_15  and  O_16 
REMARK    4  A    between atoms: C_17  and  C_18 
REMARK       I    between atoms: C_18  and  N_20 
REMARK    5  A    between atoms: N_20  and  C_22 
REMARK    6  A    between atoms: C_25  and  N_26 
ROOT
HETATM    1  C   UNL     1      -3.350  12.454  24.607  0.00  0.00     0.157 A 
HETATM    2  N   UNL     1      -4.199  13.062  25.464  0.00  0.00    -0.168 NA
HETATM    3  N   UNL     1      -3.994  12.455  26.637  0.00  0.00    -0.277 N 
HETATM    4  H   UNL     1      -4.538  12.763  27.434  0.00  0.00     0.189 HD
HETATM    5  C   UNL     1      -3.034  11.488  26.609  0.00  0.00     0.065 A 
HETATM    6  C   UNL     1      -2.521  10.669  27.614  0.00  0.00     0.069 C 
HETATM    7  C   UNL     1      -1.466   9.816  27.254  0.00  0.00     0.083 C 
HETATM    8  C   UNL     1      -0.979   9.734  25.933  0.00  0.00     0.066 C 
HETATM    9  C   UNL     1      -1.624  10.485  24.936  0.00  0.00     0.036 C 
HETATM   10  C   UNL     1      -2.607  11.434  25.290  0.00  0.00     0.029 A 
ENDROOT
BRANCH   8  11
HETATM   11  C   UNL     1       0.103   8.764  25.565  0.00  0.00     0.260 C 
HETATM   12  O   UNL     1      -0.235   7.578  25.615  0.00  0.00    -0.267 OA
HETATM   13  N   UNL     1       1.413   9.193  25.195  0.00  0.00    -0.318 N 
HETATM   14  C   UNL     1       1.912  10.570  25.341  0.00  0.00     0.159 C 
BRANCH  13  15
HETATM   15  C   UNL     1       2.426   8.209  24.842  0.00  0.00     0.037 A 
HETATM   16  C   UNL     1       3.353   7.727  25.768  0.00  0.00     0.032 A 
HETATM   17  C   UNL     1       4.358   6.812  25.402  0.00  0.00     0.031 A 
HETATM   18  C   UNL     1       4.482   6.309  24.103  0.00  0.00     0.030 A 
HETATM   19  C   UNL     1       3.520   6.758  23.193  0.00  0.00     0.031 A 
HETATM   20  C   UNL     1       2.517   7.680  23.547  0.00  0.00     0.032 A 
BRANCH  18  21
HETATM   21  N   UNL     1       5.470   5.418  23.750  0.00  0.00    -0.377 N 
HETATM   22  C   UNL     1       5.354   3.965  23.950  0.00  0.00     0.149 C 
HETATM   23  C   UNL     1       5.643   3.256  22.616  0.00  0.00     0.187 C 
HETATM   24  O   UNL     1       6.934   3.612  22.090  0.00  0.00    -0.388 OA
HETATM   25  C   UNL     1       7.009   5.033  21.873  0.00  0.00     0.187 C 
HETATM   26  C   UNL     1       6.766   5.817  23.172  0.00  0.00     0.149 C 
ENDBRANCH  18  21
ENDBRANCH  13  15
ENDBRANCH   8  11
BRANCH   7  27
HETATM   27  O   UNL     1      -0.909   9.064  28.257  0.00  0.00    -0.360 OA
HETATM   28  H   UNL     1       0.014   9.326  28.406  0.00  0.00     0.217 HD
ENDBRANCH   7  27
BRANCH   1  29
HETATM   29  C   UNL     1      -3.180  12.825  23.176  0.00  0.00     0.275 C 
HETATM   30  N   UNL     1      -2.347  13.888  22.842  0.00  0.00    -0.344 N 
HETATM   31  C   UNL     1      -2.110  14.265  21.463  0.00  0.00     0.129 C 
HETATM   32  C   UNL     1      -1.610  14.759  23.746  0.00  0.00     0.158 C 
HETATM   33  C   UNL     1      -0.845  15.099  21.513  0.00  0.00     0.053 C 
HETATM   34  C   UNL     1      -0.953  15.818  22.857  0.00  0.00     0.140 C 
HETATM   35  O   UNL     1      -3.754  12.183  22.292  0.00  0.00    -0.266 OA
BRANCH  34  36
HETATM   36  O   UNL     1       0.342  16.223  23.289  0.00  0.00    -0.389 OA
HETATM   37  C   UNL     1       0.996  17.072  22.352  0.00  0.00     0.202 C 
ENDBRANCH  34  36
ENDBRANCH   1  29
TORSDOF 6
ENDMDL
MODEL 3
REMARK VINA RESULT:    -7.549      3.495      6.076
REMARK INTER + INTRA:         -11.343
REMARK INTER:                 -10.218
REMARK INTRA:                  -1.125
REMARK UNBOUND:                -1.367
REMARK  6 active torsions:
REMARK  status: ('A' for Active; 'I' for Inactive)
REMARK    1  A    between atoms: O_2  and  C_3 
REMARK       I    between atoms: N_6  and  C_7 
REMARK    2  A    between atoms: C_7  and  C_9 
REMARK    3  A    between atoms: C_15  and  O_16 
REMARK    4  A    between atoms: C_17  and  C_18 
REMARK       I    between atoms: C_18  and  N_20 
REMARK    5  A    between atoms: N_20  and  C_22 
REMARK    6  A    between atoms: C_25  and  N_26 
ROOT
HETATM    1  C   UNL     1      -3.536  12.259  24.956  0.00  0.00     0.157 A 
HETATM    2  N   UNL     1      -4.485  12.582  25.862  0.00  0.00    -0.168 NA
HETATM    3  N   UNL     1      -4.128  11.934  26.976  0.00  0.00    -0.277 N 
HETATM    4  H   UNL     1      -4.713  12.040  27.796  0.00  0.00     0.189 HD
HETATM    5  C   UNL     1      -2.976  11.214  26.863  0.00  0.00     0.065 A 
HETATM    6  C   UNL     1      -2.275  10.445  27.790  0.00  0.00     0.069 C 
HETATM    7  C   UNL     1      -1.062   9.886  27.358  0.00  0.00     0.083 C 
HETATM    8  C   UNL     1      -0.593  10.035  26.035  0.00  0.00     0.066 C 
HETATM    9  C   UNL     1      -1.408  10.707  25.110  0.00  0.00     0.036 C 
HETATM   10  C   UNL     1      -2.572  11.375  25.545  0.00  0.00     0.029 A 
ENDROOT
BRANCH   8  11
HETATM   11  C   UNL     1       0.673   9.370  25.584  0.00  0.00     0.260 C 
HETATM   12  O   UNL     1       1.653  10.118  25.532  0.00  0.00    -0.267 OA
HETATM   13  N   UNL     1       0.722   7.985  25.241  0.00  0.00    -0.318 N 
HETATM   14  C   UNL     1      -0.461   7.125  25.077  0.00  0.00     0.159 C 
BRANCH  13  15
HETATM   15  C   UNL     1       1.978   7.388  24.814  0.00  0.00     0.037 A 
HETATM   16  C   UNL     1       2.491   7.567  23.528  0.00  0.00     0.032 A 
HETATM   17  C   UNL     1       3.682   6.945  23.112  0.00  0.00     0.031 A 
HETATM   18  C   UNL     1       4.441   6.129  23.957  0.00  0.00     0.030 A 
HETATM   19  C   UNL     1       3.948   5.993  25.259  0.00  0.00     0.031 A 
HETATM   20  C   UNL     1       2.753   6.605  25.681  0.00  0.00     0.032 A 
BRANCH  18  21
HETATM   21  N   UNL     1       5.603   5.518  23.543  0.00  0.00    -0.377 N 
HETATM   22  C   UNL     1       5.941   4.125  23.873  0.00  0.00     0.149 C 
HETATM   23  C   UNL     1       6.277   3.374  22.572  0.00  0.00     0.187 C 
HETATM   24  O   UNL     1       7.341   4.014  21.846  0.00  0.00    -0.388 OA
HETATM   25  C   UNL     1       6.972   5.364  21.508  0.00  0.00     0.187 C 
HETATM   26  C   UNL     1       6.653   6.194  22.761  0.00  0.00     0.149 C 
ENDBRANCH  18  21
ENDBRANCH  13  15
ENDBRANCH   8  11
BRANCH   7  27
HETATM   27  O   UNL     1      -0.334   9.193  28.290  0.00  0.00    -0.360 OA
HETATM   28  H   UNL     1      -0.674   9.364  29.183  0.00  0.00     0.217 HD
ENDBRANCH   7  27
BRANCH   1  29
HETATM   29  C   UNL     1      -3.479  12.784  23.565  0.00  0.00     0.275 C 
HETATM   30  N   UNL     1      -2.617  13.835  23.268  0.00  0.00    -0.344 N 
HETATM   31  C   UNL     1      -2.488  14.357  21.922  0.00  0.00     0.129 C 
HETATM   32  C   UNL     1      -1.745  14.556  24.184  0.00  0.00     0.158 C 
HETATM   33  C   UNL     1      -1.174  15.114  21.937  0.00  0.00     0.053 C 
HETATM   34  C   UNL     1      -1.109  15.676  23.356  0.00  0.00     0.140 C 
HETATM   35  O   UNL     1      -4.173  12.279  22.678  0.00  0.00    -0.266 OA
BRANCH  34  36
HETATM   36  O   UNL     1       0.244  15.961  23.697  0.00  0.00    -0.389 OA
HETATM   37  C   UNL     1       0.923  16.700  22.688  0.00  0.00     0.202 C 
ENDBRANCH  34  36
ENDBRANCH   1  29
TORSDOF 6
ENDMDL
MODEL 4
REMARK VINA RESULT:    -7.470      3.339      5.154
REMARK INTER + INTRA:         -11.239
REMARK INTER:                 -10.462
REMARK INTRA:                  -0.777
REMARK UNBOUND:                -1.367
REMARK  6 active torsions:
REMARK  status: ('A' for Active; 'I' for Inactive)
REMARK    1  A    between atoms: O_2  and  C_3 
REMARK       I    between atoms: N_6  and  C_7 
REMARK    2  A    between atoms: C_7  and  C_9 
REMARK    3  A    between atoms: C_15  and  O_16 
REMARK    4  A    between atoms: C_17  and  C_18 
REMARK       I    between atoms: C_18  and  N_20 
REMARK    5  A    between atoms: N_20  and  C_22 
REMARK    6  A    between atoms: C_25  and  N_26 
ROOT
HETATM    1  C   UNL     1      -2.664  12.251  22.569  0.00  0.00     0.157 A 
HETATM    2  N   UNL     1      -3.802  12.827  22.122  0.00  0.00    -0.168 NA
HETATM    3  N   UNL     1      -4.692  12.629  23.100  0.00  0.00    -0.277 N 
HETATM    4  H   UNL     1      -5.629  12.988  22.970  0.00  0.00     0.189 HD
HETATM    5  C   UNL     1      -4.196  11.969  24.186  0.00  0.00     0.065 A 
HETATM    6  C   UNL     1      -4.789  11.607  25.394  0.00  0.00     0.069 C 
HETATM    7  C   UNL     1      -3.960  10.990  26.343  0.00  0.00     0.083 C 
HETATM    8  C   UNL     1      -2.608  10.686  26.079  0.00  0.00     0.066 C 
HETATM    9  C   UNL     1      -2.102  10.953  24.796  0.00  0.00     0.036 C 
HETATM   10  C   UNL     1      -2.878  11.676  23.866  0.00  0.00     0.029 A 
ENDROOT
BRANCH   8  11
HETATM   11  C   UNL     1      -1.765   9.964  27.088  0.00  0.00     0.260 C 
HETATM   12  O   UNL     1      -1.862  10.397  28.239  0.00  0.00    -0.267 OA
HETATM   13  N   UNL     1      -0.920   8.872  26.728  0.00  0.00    -0.318 N 
HETATM   14  C   UNL     1      -0.610   8.478  25.344  0.00  0.00     0.159 C 
BRANCH  13  15
HETATM   15  C   UNL     1      -0.126   8.202  27.748  0.00  0.00     0.037 A 
HETATM   16  C   UNL     1      -0.615   7.123  28.485  0.00  0.00     0.032 A 
HETATM   17  C   UNL     1       0.144   6.515  29.502  0.00  0.00     0.031 A 
HETATM   18  C   UNL     1       1.440   6.931  29.825  0.00  0.00     0.030 A 
HETATM   19  C   UNL     1       1.942   7.981  29.050  0.00  0.00     0.031 A 
HETATM   20  C   UNL     1       1.186   8.601  28.037  0.00  0.00     0.032 A 
BRANCH  18  21
HETATM   21  N   UNL     1       2.176   6.337  30.824  0.00  0.00    -0.377 N 
HETATM   22  C   UNL     1       3.443   5.630  30.579  0.00  0.00     0.149 C 
HETATM   23  C   UNL     1       4.521   6.203  31.516  0.00  0.00     0.187 C 
HETATM   24  O   UNL     1       4.130   6.116  32.897  0.00  0.00    -0.388 OA
HETATM   25  C   UNL     1       2.906   6.842  33.116  0.00  0.00     0.187 C 
HETATM   26  C   UNL     1       1.765   6.304  32.238  0.00  0.00     0.149 C 
ENDBRANCH  18  21
ENDBRANCH  13  15
ENDBRANCH   8  11
BRANCH   7  27
HETATM   27  O   UNL     1      -4.521  10.702  27.561  0.00  0.00    -0.360 OA
HETATM   28  H   UNL     1      -5.360  11.180  27.670  0.00  0.00     0.217 HD
ENDBRANCH   7  27
BRANCH   1  29
HETATM   29  C   UNL     1      -1.368  12.258  21.838  0.00  0.00     0.275 C 
HETATM   30  N   UNL     1      -0.367  13.140  22.232  0.00  0.00    -0.344 N 
HETATM   31  C   UNL     1       0.930  13.159  21.585  0.00  0.00     0.129 C 
HETATM   32  C   UNL     1      -0.427  14.138  23.291  0.00  0.00     0.158 C 
HETATM   33  C   UNL     1       1.831  13.876  22.571  0.00  0.00     0.053 C 
HETATM   34  C   UNL     1       0.899  14.899  23.219  0.00  0.00     0.140 C 
HETATM   35  O   UNL     1      -1.173  11.473  20.906  0.00  0.00    -0.266 OA
BRANCH  34  36
HETATM   36  O   UNL     1       1.421  15.288  24.485  0.00  0.00    -0.389 OA
HETATM   37  C   UNL     1       0.435  15.290  25.512  0.00  0.00     0.202 C 
ENDBRANCH  34  36
ENDBRANCH   1  29
TORSDOF 6
ENDMDL
MODEL 5
REMARK VINA RESULT:    -7.292      3.563      6.433
REMARK INTER + INTRA:         -11.004
REMARK INTER:                  -9.838
REMARK INTRA:                  -1.166
REMARK UNBOUND:                -1.367
REMARK  6 active torsions:
REMARK  status: ('A' for Active; 'I' for Inactive)
REMARK    1  A    between atoms: O_2  and  C_3 
REMARK       I    between atoms: N_6  and  C_7 
REMARK    2  A    between atoms: C_7  and  C_9 
REMARK    3  A    between atoms: C_15  and  O_16 
REMARK    4  A    between atoms: C_17  and  C_18 
REMARK       I    between atoms: C_18  and  N_20 
REMARK    5  A    between atoms: N_20  and  C_22 
REMARK    6  A    between atoms: C_25  and  N_26 
ROOT
HETATM    1  C   UNL     1      -1.950  13.227  25.282  0.00  0.00     0.157 A 
HETATM    2  N   UNL     1      -3.051  13.493  26.019  0.00  0.00    -0.168 NA
HETATM    3  N   UNL     1      -3.156  12.460  26.862  0.00  0.00    -0.277 N 
HETATM    4  H   UNL     1      -3.928  12.457  27.517  0.00  0.00     0.189 HD
HETATM    5  C   UNL     1      -2.167  11.530  26.737  0.00  0.00     0.065 A 
HETATM    6  C   UNL     1      -1.916  10.352  27.438  0.00  0.00     0.069 C 
HETATM    7  C   UNL     1      -0.747   9.653  27.097  0.00  0.00     0.083 C 
HETATM    8  C   UNL     1       0.108  10.074  26.057  0.00  0.00     0.066 C 
HETATM    9  C   UNL     1      -0.268  11.194  25.297  0.00  0.00     0.036 C 
HETATM   10  C   UNL     1      -1.372  11.979  25.692  0.00  0.00     0.029 A 
ENDROOT
BRANCH   8  11
HETATM   11  C   UNL     1       1.313   9.269  25.671  0.00  0.00     0.260 C 
HETATM   12  O   UNL     1       2.389   9.756  26.030  0.00  0.00    -0.267 OA
HETATM   13  N   UNL     1       1.207   8.046  24.944  0.00  0.00    -0.318 N 
HETATM   14  C   UNL     1      -0.028   7.557  24.311  0.00  0.00     0.159 C 
BRANCH  13  15
HETATM   15  C   UNL     1       2.409   7.301  24.599  0.00  0.00     0.037 A 
HETATM   16  C   UNL     1       3.092   7.501  23.398  0.00  0.00     0.032 A 
HETATM   17  C   UNL     1       4.225   6.741  23.056  0.00  0.00     0.031 A 
HETATM   18  C   UNL     1       4.754   5.756  23.896  0.00  0.00     0.030 A 
HETATM   19  C   UNL     1       4.094   5.594  25.118  0.00  0.00     0.031 A 
HETATM   20  C   UNL     1       2.955   6.344  25.465  0.00  0.00     0.032 A 
BRANCH  18  21
HETATM   21  N   UNL     1       5.859   5.011  23.552  0.00  0.00    -0.377 N 
HETATM   22  C   UNL     1       5.915   3.546  23.685  0.00  0.00     0.149 C 
HETATM   23  C   UNL     1       6.345   2.942  22.336  0.00  0.00     0.187 C 
HETATM   24  O   UNL     1       7.602   3.477  21.888  0.00  0.00    -0.388 OA
HETATM   25  C   UNL     1       7.511   4.905  21.736  0.00  0.00     0.187 C 
HETATM   26  C   UNL     1       7.119   5.590  23.055  0.00  0.00     0.149 C 
ENDBRANCH  18  21
ENDBRANCH  13  15
ENDBRANCH   8  11
BRANCH   7  27
HETATM   27  O   UNL     1      -0.458   8.535  27.837  0.00  0.00    -0.360 OA
HETATM   28  H   UNL     1       0.446   8.230  27.653  0.00  0.00     0.217 HD
ENDBRANCH   7  27
BRANCH   1  29
HETATM   29  C   UNL     1      -1.397  14.124  24.233  0.00  0.00     0.275 C 
HETATM   30  N   UNL     1      -1.825  13.980  22.917  0.00  0.00    -0.344 N 
HETATM   31  C   UNL     1      -1.353  14.854  21.862  0.00  0.00     0.129 C 
HETATM   32  C   UNL     1      -2.759  12.996  22.388  0.00  0.00     0.158 C 
HETATM   33  C   UNL     1      -2.369  14.684  20.749  0.00  0.00     0.053 C 
HETATM   34  C   UNL     1      -2.783  13.218  20.874  0.00  0.00     0.140 C 
HETATM   35  O   UNL     1      -0.582  15.003  24.528  0.00  0.00    -0.266 OA
BRANCH  34  36
HETATM   36  O   UNL     1      -4.060  13.028  20.273  0.00  0.00    -0.389 OA
HETATM   37  C   UNL     1      -4.616  14.235  19.764  0.00  0.00     0.202 C 
ENDBRANCH  34  36
ENDBRANCH   1  29
TORSDOF 6
ENDMDL
MODEL 6
REMARK VINA RESULT:    -7.265      5.300     10.688
REMARK INTER + INTRA:         -10.968
REMARK INTER:                  -9.625
REMARK INTRA:                  -1.343
REMARK UNBOUND:                -1.367
REMARK  6 active torsions:
REMARK  status: ('A' for Active; 'I' for Inactive)
REMARK    1  A    between atoms: O_2  and  C_3 
REMARK       I    between atoms: N_6  and  C_7 
REMARK    2  A    between atoms: C_7  and  C_9 
REMARK    3  A    between atoms: C_15  and  O_16 
REMARK    4  A    between atoms: C_17  and  C_18 
REMARK       I    between atoms: C_18  and  N_20 
REMARK    5  A    between atoms: N_20  and  C_22 
REMARK    6  A    between atoms: C_25  and  N_26 
ROOT
HETATM    1  C   UNL     1       5.861   5.297  20.882  0.00  0.00     0.157 A 
HETATM    2  N   UNL     1       6.753   4.292  21.027  0.00  0.00    -0.168 NA
HETATM    3  N   UNL     1       6.742   4.011  22.334  0.00  0.00    -0.277 N 
HETATM    4  H   UNL     1       7.350   3.273  22.667  0.00  0.00     0.189 HD
HETATM    5  C   UNL     1       5.870   4.764  23.063  0.00  0.00     0.065 A 
HETATM    6  C   UNL     1       5.552   4.750  24.420  0.00  0.00     0.069 C 
HETATM    7  C   UNL     1       4.537   5.624  24.839  0.00  0.00     0.083 C 
HETATM    8  C   UNL     1       3.904   6.522  23.954  0.00  0.00     0.066 C 
HETATM    9  C   UNL     1       4.359   6.585  22.627  0.00  0.00     0.036 C 
HETATM   10  C   UNL     1       5.294   5.640  22.154  0.00  0.00     0.029 A 
ENDROOT
BRANCH   8  11
HETATM   11  C   UNL     1       2.870   7.492  24.444  0.00  0.00     0.260 C 
HETATM   12  O   UNL     1       3.329   8.473  25.036  0.00  0.00    -0.267 OA
HETATM   13  N   UNL     1       1.473   7.280  24.240  0.00  0.00    -0.318 N 
HETATM   14  C   UNL     1       0.884   6.026  23.743  0.00  0.00     0.159 C 
BRANCH  13  15
HETATM   15  C   UNL     1       0.512   8.256  24.732  0.00  0.00     0.037 A 
HETATM   16  C   UNL     1       0.042   8.244  26.046  0.00  0.00     0.032 A 
HETATM   17  C   UNL     1      -0.923   9.163  26.496  0.00  0.00     0.031 A 
HETATM   18  C   UNL     1      -1.458  10.158  25.672  0.00  0.00     0.030 A 
HETATM   19  C   UNL     1      -0.948  10.195  24.370  0.00  0.00     0.031 A 
HETATM   20  C   UNL     1       0.012   9.274  23.909  0.00  0.00     0.032 A 
BRANCH  18  21
HETATM   21  N   UNL     1      -2.407  11.051  26.116  0.00  0.00    -0.377 N 
HETATM   22  C   UNL     1      -2.587  12.390  25.534  0.00  0.00     0.149 C 
HETATM   23  C   UNL     1      -4.065  12.568  25.145  0.00  0.00     0.187 C 
HETATM   24  O   UNL     1      -4.941  12.361  26.266  0.00  0.00    -0.388 OA
HETATM   25  C   UNL     1      -4.769  11.033  26.796  0.00  0.00     0.187 C 
HETATM   26  C   UNL     1      -3.319  10.787  27.242  0.00  0.00     0.149 C 
ENDBRANCH  18  21
ENDBRANCH  13  15
ENDBRANCH   8  11
BRANCH   7  27
HETATM   27  O   UNL     1       4.170   5.559  26.158  0.00  0.00    -0.360 OA
HETATM   28  H   UNL     1       4.361   6.399  26.606  0.00  0.00     0.217 HD
ENDBRANCH   7  27
BRANCH   1  29
HETATM   29  C   UNL     1       5.490   5.919  19.583  0.00  0.00     0.275 C 
HETATM   30  N   UNL     1       4.634   5.240  18.721  0.00  0.00    -0.344 N 
HETATM   31  C   UNL     1       4.204   5.818  17.464  0.00  0.00     0.129 C 
HETATM   32  C   UNL     1       4.050   3.919  18.906  0.00  0.00     0.158 C 
HETATM   33  C   UNL     1       2.973   5.018  17.084  0.00  0.00     0.053 C 
HETATM   34  C   UNL     1       3.286   3.620  17.613  0.00  0.00     0.140 C 
HETATM   35  O   UNL     1       5.919   7.036  19.280  0.00  0.00    -0.266 OA
BRANCH  34  36
HETATM   36  O   UNL     1       2.074   2.896  17.803  0.00  0.00    -0.389 OA
HETATM   37  C   UNL     1       1.073   3.661  18.465  0.00  0.00     0.202 C 
ENDBRANCH  34  36
ENDBRANCH   1  29
TORSDOF 6
ENDMDL
MODEL 7
REMARK VINA RESULT:    -7.231      4.082      7.102
REMARK INTER + INTRA:         -10.923
REMARK INTER:                  -9.685
REMARK INTRA:                  -1.238
REMARK UNBOUND:                -1.367
REMARK  6 active torsions:
REMARK  status: ('A' for Active; 'I' for Inactive)
REMARK    1  A    between atoms: O_2  and  C_3 
REMARK       I    between atoms: N_6  and  C_7 
REMARK    2  A    between atoms: C_7  and  C_9 
REMARK    3  A    between atoms: C_15  and  O_16 
REMARK    4  A    between atoms: C_17  and  C_18 
REMARK       I    between atoms: C_18  and  N_20 
REMARK    5  A    between atoms: N_20  and  C_22 
REMARK    6  A    between atoms: C_25  and  N_26 
ROOT
HETATM    1  C   UNL     1      -1.221  12.399  25.304  0.00  0.00     0.157 A 
HETATM    2  N   UNL     1      -2.149  12.697  26.241  0.00  0.00    -0.168 NA
HETATM    3  N   UNL     1      -2.280  11.578  26.960  0.00  0.00    -0.277 N 
HETATM    4  H   UNL     1      -2.938  11.581  27.730  0.00  0.00     0.189 HD
HETATM    5  C   UNL     1      -1.470  10.556  26.562  0.00  0.00     0.065 A 
HETATM    6  C   UNL     1      -1.295   9.268  27.066  0.00  0.00     0.069 C 
HETATM    7  C   UNL     1      -0.307   8.480  26.455  0.00  0.00     0.083 C 
HETATM    8  C   UNL     1       0.437   8.932  25.345  0.00  0.00     0.066 C 
HETATM    9  C   UNL     1       0.123  10.187  24.797  0.00  0.00     0.036 C 
HETATM   10  C   UNL     1      -0.781  11.043  25.460  0.00  0.00     0.029 A 
ENDROOT
BRANCH   8  11
HETATM   11  C   UNL     1       1.438   8.042  24.670  0.00  0.00     0.260 C 
HETATM   12  O   UNL     1       0.947   7.215  23.897  0.00  0.00    -0.267 OA
HETATM   13  N   UNL     1       2.839   8.152  24.918  0.00  0.00    -0.318 N 
HETATM   14  C   UNL     1       3.435   8.965  25.990  0.00  0.00     0.159 C 
BRANCH  13  15
HETATM   15  C   UNL     1       3.769   7.266  24.232  0.00  0.00     0.037 A 
HETATM   16  C   UNL     1       4.442   6.237  24.891  0.00  0.00     0.032 A 
HETATM   17  C   UNL     1       5.375   5.418  24.228  0.00  0.00     0.031 A 
HETATM   18  C   UNL     1       5.671   5.563  22.869  0.00  0.00     0.030 A 
HETATM   19  C   UNL     1       4.957   6.564  22.203  0.00  0.00     0.031 A 
HETATM   20  C   UNL     1       4.029   7.393  22.861  0.00  0.00     0.032 A 
BRANCH  18  21
HETATM   21  N   UNL     1       6.589   4.763  22.226  0.00  0.00    -0.377 N 
HETATM   22  C   UNL     1       6.208   3.674  21.313  0.00  0.00     0.149 C 
HETATM   23  C   UNL     1       6.951   3.862  19.979  0.00  0.00     0.187 C 
HETATM   24  O   UNL     1       8.376   3.916  20.165  0.00  0.00    -0.388 OA
HETATM   25  C   UNL     1       8.724   5.009  21.035  0.00  0.00     0.187 C 
HETATM   26  C   UNL     1       8.046   4.876  22.408  0.00  0.00     0.149 C 
ENDBRANCH  18  21
ENDBRANCH  13  15
ENDBRANCH   8  11
BRANCH   7  27
HETATM   27  O   UNL     1      -0.081   7.242  26.998  0.00  0.00    -0.360 OA
HETATM   28  H   UNL     1      -0.876   6.688  26.926  0.00  0.00     0.217 HD
ENDBRANCH   7  27
BRANCH   1  29
HETATM   29  C   UNL     1      -0.703  13.357  24.292  0.00  0.00     0.275 C 
HETATM   30  N   UNL     1      -1.326  13.442  23.051  0.00  0.00    -0.344 N 
HETATM   31  C   UNL     1      -0.891  14.389  22.043  0.00  0.00     0.129 C 
HETATM   32  C   UNL     1      -2.450  12.655  22.564  0.00  0.00     0.158 C 
HETATM   33  C   UNL     1      -2.066  14.490  21.090  0.00  0.00     0.053 C 
HETATM   34  C   UNL     1      -2.654  13.080  21.108  0.00  0.00     0.140 C 
HETATM   35  O   UNL     1       0.257  14.087  24.556  0.00  0.00    -0.266 OA
BRANCH  34  36
HETATM   36  O   UNL     1      -4.016  13.123  20.695  0.00  0.00    -0.389 OA
HETATM   37  C   UNL     1      -4.755  14.156  21.337  0.00  0.00     0.202 C 
ENDBRANCH  34  36
ENDBRANCH   1  29
TORSDOF 6
ENDMDL
MODEL 8
REMARK VINA RESULT:    -7.176      4.741     10.642
REMARK INTER + INTRA:         -10.851
REMARK INTER:                  -9.484
REMARK INTRA:                  -1.367
REMARK UNBOUND:                -1.367
REMARK  6 active torsions:
REMARK  status: ('A' for Active; 'I' for Inactive)
REMARK    1  A    between atoms: O_2  and  C_3 
REMARK       I    between atoms: N_6  and  C_7 
REMARK    2  A    between atoms: C_7  and  C_9 
REMARK    3  A    between atoms: C_15  and  O_16 
REMARK    4  A    between atoms: C_17  and  C_18 
REMARK       I    between atoms: C_18  and  N_20 
REMARK    5  A    between atoms: N_20  and  C_22 
REMARK    6  A    between atoms: C_25  and  N_26 
ROOT
HETATM    1  C   UNL     1       6.220   5.531  22.440  0.00  0.00     0.157 A 
HETATM    2  N   UNL     1       6.965   4.513  22.923  0.00  0.00    -0.168 NA
HETATM    3  N   UNL     1       6.557   4.358  24.186  0.00  0.00    -0.277 N 
HETATM    4  H   UNL     1       6.993   3.634  24.743  0.00  0.00     0.189 HD
HETATM    5  C   UNL     1       5.559   5.209  24.562  0.00  0.00     0.065 A 
HETATM    6  C   UNL     1       4.861   5.337  25.761  0.00  0.00     0.069 C 
HETATM    7  C   UNL     1       3.825   6.284  25.789  0.00  0.00     0.083 C 
HETATM    8  C   UNL     1       3.535   7.116  24.688  0.00  0.00     0.066 C 
HETATM    9  C   UNL     1       4.360   7.035  23.554  0.00  0.00     0.036 C 
HETATM   10  C   UNL     1       5.330   6.015  23.456  0.00  0.00     0.029 A 
ENDROOT
BRANCH   8  11
HETATM   11  C   UNL     1       2.467   8.166  24.771  0.00  0.00     0.260 C 
HETATM   12  O   UNL     1       2.809   9.197  25.356  0.00  0.00    -0.267 OA
HETATM   13  N   UNL     1       1.166   7.970  24.219  0.00  0.00    -0.318 N 
HETATM   14  C   UNL     1       0.657   6.682  23.719  0.00  0.00     0.159 C 
BRANCH  13  15
HETATM   15  C   UNL     1       0.167   9.024  24.323  0.00  0.00     0.037 A 
HETATM   16  C   UNL     1      -0.694   9.131  25.417  0.00  0.00     0.032 A 
HETATM   17  C   UNL     1      -1.687  10.126  25.483  0.00  0.00     0.031 A 
HETATM   18  C   UNL     1      -1.863  11.082  24.477  0.00  0.00     0.030 A 
HETATM   19  C   UNL     1      -0.967  10.998  23.408  0.00  0.00     0.031 A 
HETATM   20  C   UNL     1       0.024  10.001  23.329  0.00  0.00     0.032 A 
BRANCH  18  21
HETATM   21  N   UNL     1      -2.841  12.049  24.544  0.00  0.00    -0.377 N 
HETATM   22  C   UNL     1      -2.788  13.183  25.480  0.00  0.00     0.149 C 
HETATM   23  C   UNL     1      -2.971  14.489  24.687  0.00  0.00     0.187 C 
HETATM   24  O   UNL     1      -4.195  14.488  23.932  0.00  0.00    -0.388 OA
HETATM   25  C   UNL     1      -4.207  13.389  23.003  0.00  0.00     0.187 C 
HETATM   26  C   UNL     1      -4.064  12.039  23.723  0.00  0.00     0.149 C 
ENDBRANCH  18  21
ENDBRANCH  13  15
ENDBRANCH   8  11
BRANCH   7  27
HETATM   27  O   UNL     1       3.087   6.358  26.942  0.00  0.00    -0.360 OA
HETATM   28  H   UNL     1       3.177   7.237  27.348  0.00  0.00     0.217 HD
ENDBRANCH   7  27
BRANCH   1  29
HETATM   29  C   UNL     1       6.283   6.040  21.044  0.00  0.00     0.275 C 
HETATM   30  N   UNL     1       5.441   5.494  20.080  0.00  0.00    -0.344 N 
HETATM   31  C   UNL     1       5.429   5.981  18.716  0.00  0.00     0.129 C 
HETATM   32  C   UNL     1       4.483   4.410  20.247  0.00  0.00     0.158 C 
HETATM   33  C   UNL     1       4.112   5.485  18.151  0.00  0.00     0.053 C 
HETATM   34  C   UNL     1       3.914   4.142  18.851  0.00  0.00     0.140 C 
HETATM   35  O   UNL     1       7.058   6.953  20.746  0.00  0.00    -0.266 OA
BRANCH  34  36
HETATM   36  O   UNL     1       2.533   3.793  18.839  0.00  0.00    -0.389 OA
HETATM   37  C   UNL     1       1.844   4.307  17.705  0.00  0.00     0.202 C 
ENDBRANCH  34  36
ENDBRANCH   1  29
TORSDOF 6
ENDMDL
MODEL 9
REMARK VINA RESULT:    -7.131      4.113      7.267
REMARK INTER + INTRA:         -10.791
REMARK INTER:                  -9.585
REMARK INTRA:                  -1.206
REMARK UNBOUND:                -1.367
REMARK  6 active torsions:
REMARK  status: ('A' for Active; 'I' for Inactive)
REMARK    1  A    between atoms: O_2  and  C_3 
REMARK       I    between atoms: N_6  and  C_7 
REMARK    2  A    between atoms: C_7  and  C_9 
REMARK    3  A    between atoms: C_15  and  O_16 
REMARK    4  A    between atoms: C_17  and  C_18 
REMARK       I    between atoms: C_18  and  N_20 
REMARK    5  A    between atoms: N_20  and  C_22 
REMARK    6  A    between atoms: C_25  and  N_26 
ROOT
HETATM    1  C   UNL     1      -2.659  10.917  25.443  0.00  0.00     0.157 A 
HETATM    2  N   UNL     1      -3.296  11.395  26.535  0.00  0.00    -0.168 NA
HETATM    3  N   UNL     1      -2.670  10.828  27.572  0.00  0.00    -0.277 N 
HETATM    4  H   UNL     1      -2.993  11.054  28.504  0.00  0.00     0.189 HD
HETATM    5  C   UNL     1      -1.633  10.014  27.225  0.00  0.00     0.065 A 
HETATM    6  C   UNL     1      -0.736   9.282  28.001  0.00  0.00     0.069 C 
HETATM    7  C   UNL     1       0.276   8.594  27.315  0.00  0.00     0.083 C 
HETATM    8  C   UNL     1       0.359   8.583  25.907  0.00  0.00     0.066 C 
HETATM    9  C   UNL     1      -0.651   9.227  25.174  0.00  0.00     0.036 C 
HETATM   10  C   UNL     1      -1.611  10.020  25.837  0.00  0.00     0.029 A 
ENDROOT
BRANCH   8  11
HETATM   11  C   UNL     1       1.412   7.782  25.199  0.00  0.00     0.260 C 
HETATM   12  O   UNL     1       1.022   6.695  24.766  0.00  0.00    -0.267 OA
HETATM   13  N   UNL     1       2.751   8.252  25.053  0.00  0.00    -0.318 N 
HETATM   14  C   UNL     1       3.302   9.429  25.744  0.00  0.00     0.159 C 
BRANCH  13  15
HETATM   15  C   UNL     1       3.733   7.438  24.353  0.00  0.00     0.037 A 
HETATM   16  C   UNL     1       3.814   7.399  22.960  0.00  0.00     0.032 A 
HETATM   17  C   UNL     1       4.737   6.571  22.294  0.00  0.00     0.031 A 
HETATM   18  C   UNL     1       5.644   5.754  22.976  0.00  0.00     0.030 A 
HETATM   19  C   UNL     1       5.590   5.833  24.371  0.00  0.00     0.031 A 
HETATM   20  C   UNL     1       4.665   6.652  25.045  0.00  0.00     0.032 A 
BRANCH  18  21
HETATM   21  N   UNL     1       6.540   4.940  22.319  0.00  0.00    -0.377 N 
HETATM   22  C   UNL     1       6.129   3.807  21.475  0.00  0.00     0.149 C 
HETATM   23  C   UNL     1       6.795   3.948  20.096  0.00  0.00     0.187 C 
HETATM   24  O   UNL     1       8.227   4.032  20.201  0.00  0.00    -0.388 OA
HETATM   25  C   UNL     1       8.603   5.167  21.003  0.00  0.00     0.187 C 
HETATM   26  C   UNL     1       8.002   5.084  22.415  0.00  0.00     0.149 C 
ENDBRANCH  18  21
ENDBRANCH  13  15
ENDBRANCH   8  11
BRANCH   7  27
HETATM   27  O   UNL     1       1.205   7.936  28.080  0.00  0.00    -0.360 OA
HETATM   28  H   UNL     1       1.490   8.494  28.823  0.00  0.00     0.217 HD
ENDBRANCH   7  27
BRANCH   1  29
HETATM   29  C   UNL     1      -2.973  11.305  24.042  0.00  0.00     0.275 C 
HETATM   30  N   UNL     1      -2.196  12.272  23.412  0.00  0.00    -0.344 N 
HETATM   31  C   UNL     1      -2.428  12.657  22.034  0.00  0.00     0.129 C 
HETATM   32  C   UNL     1      -1.085  13.026  23.975  0.00  0.00     0.158 C 
HETATM   33  C   UNL     1      -1.140  13.336  21.611  0.00  0.00     0.053 C 
HETATM   34  C   UNL     1      -0.670  14.024  22.891  0.00  0.00     0.140 C 
HETATM   35  O   UNL     1      -3.899  10.760  23.435  0.00  0.00    -0.266 OA
BRANCH  34  36
HETATM   36  O   UNL     1       0.733  14.263  22.820  0.00  0.00    -0.389 OA
HETATM   37  C   UNL     1       1.328  13.710  21.651  0.00  0.00     0.202 C 
ENDBRANCH  34  36
ENDBRANCH   1  29
TORSDOF 6
ENDMDL
