MODEL 1
REMARK VINA RESULT:    -9.341      0.000      0.000
REMARK INTER + INTRA:         -12.855
REMARK INTER:                 -11.346
REMARK INTRA:                  -1.509
REMARK UNBOUND:                -1.056
REMARK  5 active torsions:
REMARK  status: ('A' for Active; 'I' for Inactive)
REMARK       I    between atoms: C_2  and  N_3 
REMARK    1  A    between atoms: C_2  and  C_12 
REMARK    2  A    between atoms: N_3  and  C_5 
REMARK    3  A    between atoms: C_13  and  O_14 
REMARK    4  A    between atoms: C_20  and  C_21 
REMARK    5  A    between atoms: C_21  and  C_22 
ROOT
HETATM    1  C   UNL     1       0.107  16.557  20.990  0.00  0.00     0.066 C 
HETATM    2  C   UNL     1      -0.403  17.408  20.004  0.00  0.00     0.083 C 
HETATM    3  C   UNL     1      -1.778  17.527  19.779  0.00  0.00     0.069 C 
HETATM    4  C   UNL     1      -2.625  16.665  20.480  0.00  0.00     0.065 A 
HETATM    5  N   UNL     1      -3.980  16.505  20.417  0.00  0.00    -0.277 N 
HETATM    6  H   UNL     1      -4.635  17.017  19.840  0.00  0.00     0.189 HD
HETATM    7  N   UNL     1      -4.450  15.501  21.161  0.00  0.00    -0.178 NA
HETATM    8  C   UNL     1      -3.358  14.974  21.744  0.00  0.00     0.071 A 
HETATM    9  C   UNL     1      -2.176  15.707  21.384  0.00  0.00     0.020 A 
HETATM   10  C   UNL     1      -0.787  15.665  21.648  0.00  0.00     0.035 C 
ENDROOT
BRANCH   1  11
HETATM   11  C   UNL     1       1.562  16.427  21.333  0.00  0.00     0.260 C 
HETATM   12  O   UNL     1       2.046  17.440  21.846  0.00  0.00    -0.267 OA
HETATM   13  N   UNL     1       2.311  15.244  21.063  0.00  0.00    -0.318 N 
HETATM   14  C   UNL     1       1.850  14.189  20.148  0.00  0.00     0.159 C 
BRANCH  13  15
HETATM   15  C   UNL     1       3.674  15.105  21.571  0.00  0.00     0.037 A 
HETATM   16  C   UNL     1       3.933  14.604  22.855  0.00  0.00     0.030 A 
HETATM   17  C   UNL     1       5.232  14.542  23.385  0.00  0.00     0.009 A 
HETATM   18  C   UNL     1       6.326  14.968  22.636  0.00  0.00    -0.062 A 
HETATM   19  C   UNL     1       7.709  14.971  23.212  0.00  0.00     0.048 C 
HETATM   20  C   UNL     1       6.102  15.415  21.335  0.00  0.00     0.009 A 
HETATM   21  C   UNL     1       4.800  15.468  20.808  0.00  0.00     0.030 A 
ENDBRANCH  13  15
ENDBRANCH   1  11
BRANCH   2  22
HETATM   22  O   UNL     1       0.375  18.147  19.150  0.00  0.00    -0.360 OA
HETATM   23  H   UNL     1      -0.095  18.237  18.301  0.00  0.00     0.217 HD
ENDBRANCH   2  22
BRANCH   8  24
HETATM   24  C   UNL     1      -3.535  13.673  22.456  0.00  0.00     0.100 C 
BRANCH  24  25
HETATM   25  C   UNL     1      -2.373  12.744  22.230  0.00  0.00    -0.052 A 
HETATM   26  C   UNL     1      -1.459  12.546  23.272  0.00  0.00     0.014 A 
HETATM   27  C   UNL     1      -0.215  11.950  23.040  0.00  0.00    -0.061 A 
HETATM   28  C   UNL     1       0.803  11.927  24.140  0.00  0.00     0.048 C 
HETATM   29  C   UNL     1       0.065  11.426  21.775  0.00  0.00     0.007 A 
HETATM   30  C   UNL     1      -0.859  11.560  20.736  0.00  0.00     0.001 A 
HETATM   31  C   UNL     1      -2.062  12.233  20.959  0.00  0.00     0.007 A 
ENDBRANCH  24  25
ENDBRANCH   8  24
TORSDOF 5
ENDMDL
MODEL 2
REMARK VINA RESULT:    -9.219      3.032      5.939
REMARK INTER + INTRA:         -12.700
REMARK INTER:                 -11.358
REMARK INTRA:                  -1.342
REMARK UNBOUND:                -1.056
REMARK  5 active torsions:
REMARK  status: ('A' for Active; 'I' for Inactive)
REMARK       I    between atoms: C_2  and  N_3 
REMARK    1  A    between atoms: C_2  and  C_12 
REMARK    2  A    between atoms: N_3  and  C_5 
REMARK    3  A    between atoms: C_13  and  O_14 
REMARK    4  A    between atoms: C_20  and  C_21 
REMARK    5  A    between atoms: C_21  and  C_22 
ROOT
HETATM    1  C   UNL     1      -2.847  13.255  21.823  0.00  0.00     0.066 C 
HETATM    2  C   UNL     1      -4.179  13.640  22.005  0.00  0.00     0.083 C 
HETATM    3  C   UNL     1      -4.685  14.814  21.437  0.00  0.00     0.069 C 
HETATM    4  C   UNL     1      -3.783  15.663  20.793  0.00  0.00     0.065 A 
HETATM    5  N   UNL     1      -3.970  16.887  20.216  0.00  0.00    -0.277 N 
HETATM    6  H   UNL     1      -4.836  17.405  20.136  0.00  0.00     0.189 HD
HETATM    7  N   UNL     1      -2.848  17.468  19.782  0.00  0.00    -0.178 NA
HETATM    8  C   UNL     1      -1.875  16.589  20.084  0.00  0.00     0.071 A 
HETATM    9  C   UNL     1      -2.420  15.402  20.684  0.00  0.00     0.020 A 
HETATM   10  C   UNL     1      -1.952  14.171  21.199  0.00  0.00     0.035 C 
ENDROOT
BRANCH   1  11
HETATM   11  C   UNL     1      -2.251  11.981  22.344  0.00  0.00     0.260 C 
HETATM   12  O   UNL     1      -2.555  10.982  21.686  0.00  0.00    -0.267 OA
HETATM   13  N   UNL     1      -1.431  11.937  23.510  0.00  0.00    -0.318 N 
HETATM   14  C   UNL     1      -1.358  13.035  24.486  0.00  0.00     0.159 C 
BRANCH  13  15
HETATM   15  C   UNL     1      -0.736  10.705  23.875  0.00  0.00     0.037 A 
HETATM   16  C   UNL     1       0.507  10.369  23.320  0.00  0.00     0.030 A 
HETATM   17  C   UNL     1       1.145   9.150  23.600  0.00  0.00     0.009 A 
HETATM   18  C   UNL     1       0.564   8.226  24.465  0.00  0.00    -0.062 A 
HETATM   19  C   UNL     1       1.200   6.893  24.721  0.00  0.00     0.048 C 
HETATM   20  C   UNL     1      -0.643   8.561  25.075  0.00  0.00     0.009 A 
HETATM   21  C   UNL     1      -1.274   9.785  24.796  0.00  0.00     0.030 A 
ENDBRANCH  13  15
ENDBRANCH   1  11
BRANCH   2  22
HETATM   22  O   UNL     1      -5.079  12.955  22.780  0.00  0.00    -0.360 OA
HETATM   23  H   UNL     1      -5.878  13.502  22.887  0.00  0.00     0.217 HD
ENDBRANCH   2  22
BRANCH   8  24
HETATM   24  C   UNL     1      -0.467  17.065  19.938  0.00  0.00     0.100 C 
BRANCH  24  25
HETATM   25  C   UNL     1       0.383  16.682  21.119  0.00  0.00    -0.052 A 
HETATM   26  C   UNL     1       1.514  15.884  20.901  0.00  0.00     0.014 A 
HETATM   27  C   UNL     1       2.165  15.249  21.963  0.00  0.00    -0.061 A 
HETATM   28  C   UNL     1       3.252  14.259  21.668  0.00  0.00     0.048 C 
HETATM   29  C   UNL     1       1.761  15.520  23.272  0.00  0.00     0.007 A 
HETATM   30  C   UNL     1       0.671  16.360  23.514  0.00  0.00     0.001 A 
HETATM   31  C   UNL     1      -0.024  16.921  22.441  0.00  0.00     0.007 A 
ENDBRANCH  24  25
ENDBRANCH   8  24
TORSDOF 5
ENDMDL
MODEL 3
REMARK VINA RESULT:    -9.051      1.943      2.586
REMARK INTER + INTRA:         -12.488
REMARK INTER:                 -11.686
REMARK INTRA:                  -0.802
REMARK UNBOUND:                -1.056
REMARK  5 active torsions:
REMARK  status: ('A' for Active; 'I' for Inactive)
REMARK       I    between atoms: C_2  and  N_3 
REMARK    1  A    between atoms: C_2  and  C_12 
REMARK    2  A    between atoms: N_3  and  C_5 
REMARK    3  A    between atoms: C_13  and  O_14 
REMARK    4  A    between atoms: C_20  and  C_21 
REMARK    5  A    between atoms: C_21  and  C_22 
ROOT
HETATM    1  C   UNL     1      -0.660  15.826  21.331  0.00  0.00     0.066 C 
HETATM    2  C   UNL     1      -1.377  16.612  20.423  0.00  0.00     0.083 C 
HETATM    3  C   UNL     1      -2.773  16.559  20.353  0.00  0.00     0.069 C 
HETATM    4  C   UNL     1      -3.424  15.595  21.125  0.00  0.00     0.065 A 
HETATM    5  N   UNL     1      -4.747  15.267  21.208  0.00  0.00    -0.277 N 
HETATM    6  H   UNL     1      -5.521  15.696  20.717  0.00  0.00     0.189 HD
HETATM    7  N   UNL     1      -5.004  14.208  21.981  0.00  0.00    -0.178 NA
HETATM    8  C   UNL     1      -3.797  13.819  22.431  0.00  0.00     0.071 A 
HETATM    9  C   UNL     1      -2.762  14.696  21.956  0.00  0.00     0.020 A 
HETATM   10  C   UNL     1      -1.358  14.826  22.066  0.00  0.00     0.035 C 
ENDROOT
BRANCH   1  11
HETATM   11  C   UNL     1       0.829  15.877  21.510  0.00  0.00     0.260 C 
HETATM   12  O   UNL     1       1.263  17.005  21.759  0.00  0.00    -0.267 OA
HETATM   13  N   UNL     1       1.658  14.725  21.376  0.00  0.00    -0.318 N 
HETATM   14  C   UNL     1       1.208  13.477  20.740  0.00  0.00     0.159 C 
BRANCH  13  15
HETATM   15  C   UNL     1       3.074  14.792  21.729  0.00  0.00     0.037 A 
HETATM   16  C   UNL     1       3.530  14.460  23.013  0.00  0.00     0.030 A 
HETATM   17  C   UNL     1       4.875  14.600  23.388  0.00  0.00     0.009 A 
HETATM   18  C   UNL     1       5.822  15.065  22.478  0.00  0.00    -0.062 A 
HETATM   19  C   UNL     1       7.248  15.283  22.883  0.00  0.00     0.048 C 
HETATM   20  C   UNL     1       5.406  15.346  21.179  0.00  0.00     0.009 A 
HETATM   21  C   UNL     1       4.058  15.198  20.808  0.00  0.00     0.030 A 
ENDBRANCH  13  15
ENDBRANCH   1  11
BRANCH   2  22
HETATM   22  O   UNL     1      -0.797  17.447  19.503  0.00  0.00    -0.360 OA
HETATM   23  H   UNL     1      -0.745  16.980  18.649  0.00  0.00     0.217 HD
ENDBRANCH   2  22
BRANCH   8  24
HETATM   24  C   UNL     1      -3.731  12.502  23.132  0.00  0.00     0.100 C 
BRANCH  24  25
HETATM   25  C   UNL     1      -3.589  12.663  24.622  0.00  0.00    -0.052 A 
HETATM   26  C   UNL     1      -2.802  13.713  25.111  0.00  0.00     0.014 A 
HETATM   27  C   UNL     1      -2.384  13.742  26.445  0.00  0.00    -0.061 A 
HETATM   28  C   UNL     1      -1.393  14.780  26.880  0.00  0.00     0.048 C 
HETATM   29  C   UNL     1      -2.867  12.778  27.333  0.00  0.00     0.007 A 
HETATM   30  C   UNL     1      -3.702  11.755  26.877  0.00  0.00     0.001 A 
HETATM   31  C   UNL     1      -4.043  11.689  25.525  0.00  0.00     0.007 A 
ENDBRANCH  24  25
ENDBRANCH   8  24
TORSDOF 5
ENDMDL
MODEL 4
REMARK VINA RESULT:    -8.974      3.237      4.563
REMARK INTER + INTRA:         -12.391
REMARK INTER:                 -11.447
REMARK INTRA:                  -0.944
REMARK UNBOUND:                -1.056
REMARK  5 active torsions:
REMARK  status: ('A' for Active; 'I' for Inactive)
REMARK       I    between atoms: C_2  and  N_3 
REMARK    1  A    between atoms: C_2  and  C_12 
REMARK    2  A    between atoms: N_3  and  C_5 
REMARK    3  A    between atoms: C_13  and  O_14 
REMARK    4  A    between atoms: C_20  and  C_21 
REMARK    5  A    between atoms: C_21  and  C_22 
ROOT
HETATM    1  C   UNL     1      -1.579  14.058  23.975  0.00  0.00     0.066 C 
HETATM    2  C   UNL     1      -2.811  14.324  23.368  0.00  0.00     0.083 C 
HETATM    3  C   UNL     1      -4.016  13.927  23.956  0.00  0.00     0.069 C 
HETATM    4  C   UNL     1      -3.947  13.136  25.105  0.00  0.00     0.065 A 
HETATM    5  N   UNL     1      -4.936  12.552  25.844  0.00  0.00    -0.277 N 
HETATM    6  H   UNL     1      -5.935  12.610  25.691  0.00  0.00     0.189 HD
HETATM    7  N   UNL     1      -4.496  11.766  26.829  0.00  0.00    -0.178 NA
HETATM    8  C   UNL     1      -3.155  11.833  26.740  0.00  0.00     0.071 A 
HETATM    9  C   UNL     1      -2.752  12.729  25.691  0.00  0.00     0.020 A 
HETATM   10  C   UNL     1      -1.551  13.211  25.119  0.00  0.00     0.035 C 
ENDROOT
BRANCH   1  11
HETATM   11  C   UNL     1      -0.252  14.509  23.439  0.00  0.00     0.260 C 
HETATM   12  O   UNL     1      -0.059  15.723  23.541  0.00  0.00    -0.267 OA
HETATM   13  N   UNL     1       0.682  13.609  22.844  0.00  0.00    -0.318 N 
HETATM   14  C   UNL     1       0.324  12.254  22.399  0.00  0.00     0.159 C 
BRANCH  13  15
HETATM   15  C   UNL     1       2.025  14.067  22.496  0.00  0.00     0.037 A 
HETATM   16  C   UNL     1       2.373  14.388  21.176  0.00  0.00     0.030 A 
HETATM   17  C   UNL     1       3.681  14.750  20.816  0.00  0.00     0.009 A 
HETATM   18  C   UNL     1       4.689  14.819  21.774  0.00  0.00    -0.062 A 
HETATM   19  C   UNL     1       6.103  15.137  21.395  0.00  0.00     0.048 C 
HETATM   20  C   UNL     1       4.355  14.561  23.103  0.00  0.00     0.009 A 
HETATM   21  C   UNL     1       3.043  14.206  23.458  0.00  0.00     0.030 A 
ENDBRANCH  13  15
ENDBRANCH   1  11
BRANCH   2  22
HETATM   22  O   UNL     1      -2.952  14.932  22.148  0.00  0.00    -0.360 OA
HETATM   23  H   UNL     1      -2.546  14.364  21.468  0.00  0.00     0.217 HD
ENDBRANCH   2  22
BRANCH   8  24
HETATM   24  C   UNL     1      -2.374  10.862  27.564  0.00  0.00     0.100 C 
BRANCH  24  25
HETATM   25  C   UNL     1      -1.472  10.003  26.720  0.00  0.00    -0.052 A 
HETATM   26  C   UNL     1      -0.280   9.528  27.280  0.00  0.00     0.014 A 
HETATM   27  C   UNL     1       0.732   8.991  26.479  0.00  0.00    -0.061 A 
HETATM   28  C   UNL     1       2.060   8.668  27.096  0.00  0.00     0.048 C 
HETATM   29  C   UNL     1       0.497   8.805  25.115  0.00  0.00     0.007 A 
HETATM   30  C   UNL     1      -0.710   9.219  24.545  0.00  0.00     0.001 A 
HETATM   31  C   UNL     1      -1.679   9.832  25.342  0.00  0.00     0.007 A 
ENDBRANCH  24  25
ENDBRANCH   8  24
TORSDOF 5
ENDMDL
MODEL 5
REMARK VINA RESULT:    -8.965      3.150      6.321
REMARK INTER + INTRA:         -12.379
REMARK INTER:                 -11.295
REMARK INTRA:                  -1.084
REMARK UNBOUND:                -1.056
REMARK  5 active torsions:
REMARK  status: ('A' for Active; 'I' for Inactive)
REMARK       I    between atoms: C_2  and  N_3 
REMARK    1  A    between atoms: C_2  and  C_12 
REMARK    2  A    between atoms: N_3  and  C_5 
REMARK    3  A    between atoms: C_13  and  O_14 
REMARK    4  A    between atoms: C_20  and  C_21 
REMARK    5  A    between atoms: C_21  and  C_22 
ROOT
HETATM    1  C   UNL     1      -3.071  13.832  22.210  0.00  0.00     0.066 C 
HETATM    2  C   UNL     1      -4.287  14.108  21.576  0.00  0.00     0.083 C 
HETATM    3  C   UNL     1      -4.385  15.077  20.572  0.00  0.00     0.069 C 
HETATM    4  C   UNL     1      -3.257  15.858  20.313  0.00  0.00     0.065 A 
HETATM    5  N   UNL     1      -3.078  16.906  19.456  0.00  0.00    -0.277 N 
HETATM    6  H   UNL     1      -3.757  17.303  18.819  0.00  0.00     0.189 HD
HETATM    7  N   UNL     1      -1.882  17.493  19.547  0.00  0.00    -0.178 NA
HETATM    8  C   UNL     1      -1.240  16.803  20.507  0.00  0.00     0.071 A 
HETATM    9  C   UNL     1      -2.051  15.721  20.994  0.00  0.00     0.020 A 
HETATM   10  C   UNL     1      -1.959  14.681  21.949  0.00  0.00     0.035 C 
ENDROOT
BRANCH   1  11
HETATM   11  C   UNL     1      -2.875  12.765  23.246  0.00  0.00     0.260 C 
HETATM   12  O   UNL     1      -3.196  11.635  22.866  0.00  0.00    -0.267 OA
HETATM   13  N   UNL     1      -2.387  13.047  24.556  0.00  0.00    -0.318 N 
HETATM   14  C   UNL     1      -2.345  14.402  25.126  0.00  0.00     0.159 C 
BRANCH  13  15
HETATM   15  C   UNL     1      -2.051  11.955  25.467  0.00  0.00     0.037 A 
HETATM   16  C   UNL     1      -2.847  11.658  26.584  0.00  0.00     0.030 A 
HETATM   17  C   UNL     1      -2.491  10.666  27.512  0.00  0.00     0.009 A 
HETATM   18  C   UNL     1      -1.327   9.920  27.343  0.00  0.00    -0.062 A 
HETATM   19  C   UNL     1      -0.900   8.905  28.359  0.00  0.00     0.048 C 
HETATM   20  C   UNL     1      -0.550  10.155  26.211  0.00  0.00     0.009 A 
HETATM   21  C   UNL     1      -0.915  11.146  25.282  0.00  0.00     0.030 A 
ENDBRANCH  13  15
ENDBRANCH   1  11
BRANCH   2  22
HETATM   22  O   UNL     1      -5.479  13.514  21.906  0.00  0.00    -0.360 OA
HETATM   23  H   UNL     1      -5.958  13.301  21.084  0.00  0.00     0.217 HD
ENDBRANCH   2  22
BRANCH   8  24
HETATM   24  C   UNL     1       0.044  17.378  21.008  0.00  0.00     0.100 C 
BRANCH  24  25
HETATM   25  C   UNL     1       1.165  16.376  20.969  0.00  0.00    -0.052 A 
HETATM   26  C   UNL     1       1.525  15.725  22.155  0.00  0.00     0.014 A 
HETATM   27  C   UNL     1       2.730  15.023  22.258  0.00  0.00    -0.061 A 
HETATM   28  C   UNL     1       3.163  14.502  23.595  0.00  0.00     0.048 C 
HETATM   29  C   UNL     1       3.523  14.859  21.119  0.00  0.00     0.007 A 
HETATM   30  C   UNL     1       3.152  15.451  19.910  0.00  0.00     0.001 A 
HETATM   31  C   UNL     1       1.989  16.221  19.843  0.00  0.00     0.007 A 
ENDBRANCH  24  25
ENDBRANCH   8  24
TORSDOF 5
ENDMDL
MODEL 6
REMARK VINA RESULT:    -8.839      2.953      6.199
REMARK INTER + INTRA:         -12.219
REMARK INTER:                 -11.123
REMARK INTRA:                  -1.097
REMARK UNBOUND:                -1.056
REMARK  5 active torsions:
REMARK  status: ('A' for Active; 'I' for Inactive)
REMARK       I    between atoms: C_2  and  N_3 
REMARK    1  A    between atoms: C_2  and  C_12 
REMARK    2  A    between atoms: N_3  and  C_5 
REMARK    3  A    between atoms: C_13  and  O_14 
REMARK    4  A    between atoms: C_20  and  C_21 
REMARK    5  A    between atoms: C_21  and  C_22 
ROOT
HETATM    1  C   UNL     1      -2.725  14.023  22.455  0.00  0.00     0.066 C 
HETATM    2  C   UNL     1      -4.027  13.945  21.949  0.00  0.00     0.083 C 
HETATM    3  C   UNL     1      -4.417  14.671  20.820  0.00  0.00     0.069 C 
HETATM    4  C   UNL     1      -3.503  15.584  20.288  0.00  0.00     0.065 A 
HETATM    5  N   UNL     1      -3.626  16.466  19.253  0.00  0.00    -0.277 N 
HETATM    6  H   UNL     1      -4.430  16.603  18.652  0.00  0.00     0.189 HD
HETATM    7  N   UNL     1      -2.573  17.271  19.087  0.00  0.00    -0.178 NA
HETATM    8  C   UNL     1      -1.714  16.905  20.056  0.00  0.00     0.071 A 
HETATM    9  C   UNL     1      -2.235  15.803  20.819  0.00  0.00     0.020 A 
HETATM   10  C   UNL     1      -1.841  14.998  21.913  0.00  0.00     0.035 C 
ENDROOT
BRANCH   1  11
HETATM   11  C   UNL     1      -2.217  13.226  23.620  0.00  0.00     0.260 C 
HETATM   12  O   UNL     1      -1.928  13.911  24.605  0.00  0.00    -0.267 OA
HETATM   13  N   UNL     1      -2.061  11.809  23.572  0.00  0.00    -0.318 N 
HETATM   14  C   UNL     1      -2.057  11.041  22.317  0.00  0.00     0.159 C 
BRANCH  13  15
HETATM   15  C   UNL     1      -1.727  11.064  24.784  0.00  0.00     0.037 A 
HETATM   16  C   UNL     1      -2.624  10.969  25.859  0.00  0.00     0.030 A 
HETATM   17  C   UNL     1      -2.284  10.327  27.060  0.00  0.00     0.009 A 
HETATM   18  C   UNL     1      -1.032   9.738  27.221  0.00  0.00    -0.062 A 
HETATM   19  C   UNL     1      -0.631   9.108  28.520  0.00  0.00     0.048 C 
HETATM   20  C   UNL     1      -0.145   9.767  26.147  0.00  0.00     0.009 A 
HETATM   21  C   UNL     1      -0.493  10.407  24.945  0.00  0.00     0.030 A 
ENDBRANCH  13  15
ENDBRANCH   1  11
BRANCH   2  22
HETATM   22  O   UNL     1      -5.034  13.214  22.526  0.00  0.00    -0.360 OA
HETATM   23  H   UNL     1      -5.449  13.753  23.224  0.00  0.00     0.217 HD
ENDBRANCH   2  22
BRANCH   8  24
HETATM   24  C   UNL     1      -0.534  17.791  20.282  0.00  0.00     0.100 C 
BRANCH  24  25
HETATM   25  C   UNL     1       0.539  17.109  21.085  0.00  0.00    -0.052 A 
HETATM   26  C   UNL     1       1.302  16.106  20.472  0.00  0.00     0.014 A 
HETATM   27  C   UNL     1       2.093  15.236  21.228  0.00  0.00    -0.061 A 
HETATM   28  C   UNL     1       2.743  14.065  20.553  0.00  0.00     0.048 C 
HETATM   29  C   UNL     1       2.226  15.452  22.601  0.00  0.00     0.007 A 
HETATM   30  C   UNL     1       1.519  16.484  23.224  0.00  0.00     0.001 A 
HETATM   31  C   UNL     1       0.666  17.294  22.471  0.00  0.00     0.007 A 
ENDBRANCH  24  25
ENDBRANCH   8  24
TORSDOF 5
ENDMDL
MODEL 7
REMARK VINA RESULT:    -8.664      4.167      6.361
REMARK INTER + INTRA:         -11.999
REMARK INTER:                 -10.969
REMARK INTRA:                  -1.030
REMARK UNBOUND:                -1.056
REMARK  5 active torsions:
REMARK  status: ('A' for Active; 'I' for Inactive)
REMARK       I    between atoms: C_2  and  N_3 
REMARK    1  A    between atoms: C_2  and  C_12 
REMARK    2  A    between atoms: N_3  and  C_5 
REMARK    3  A    between atoms: C_13  and  O_14 
REMARK    4  A    between atoms: C_20  and  C_21 
REMARK    5  A    between atoms: C_21  and  C_22 
ROOT
HETATM    1  C   UNL     1      -1.888  11.488  24.830  0.00  0.00     0.066 C 
HETATM    2  C   UNL     1      -2.474  12.194  25.886  0.00  0.00     0.083 C 
HETATM    3  C   UNL     1      -3.507  13.111  25.669  0.00  0.00     0.069 C 
HETATM    4  C   UNL     1      -3.846  13.404  24.346  0.00  0.00     0.065 A 
HETATM    5  N   UNL     1      -4.748  14.292  23.835  0.00  0.00    -0.277 N 
HETATM    6  H   UNL     1      -5.367  14.907  24.349  0.00  0.00     0.189 HD
HETATM    7  N   UNL     1      -4.734  14.386  22.503  0.00  0.00    -0.178 NA
HETATM    8  C   UNL     1      -3.781  13.519  22.115  0.00  0.00     0.071 A 
HETATM    9  C   UNL     1      -3.218  12.832  23.244  0.00  0.00     0.020 A 
HETATM   10  C   UNL     1      -2.232  11.850  23.496  0.00  0.00     0.035 C 
ENDROOT
BRANCH   1  11
HETATM   11  C   UNL     1      -0.825  10.443  24.992  0.00  0.00     0.260 C 
HETATM   12  O   UNL     1      -1.227   9.397  25.509  0.00  0.00    -0.267 OA
HETATM   13  N   UNL     1       0.530  10.659  24.602  0.00  0.00    -0.318 N 
HETATM   14  C   UNL     1       1.086  11.993  24.326  0.00  0.00     0.159 C 
BRANCH  13  15
HETATM   15  C   UNL     1       1.486   9.554  24.620  0.00  0.00     0.037 A 
HETATM   16  C   UNL     1       2.452   9.434  25.631  0.00  0.00     0.030 A 
HETATM   17  C   UNL     1       3.428   8.425  25.615  0.00  0.00     0.009 A 
HETATM   18  C   UNL     1       3.461   7.484  24.588  0.00  0.00    -0.062 A 
HETATM   19  C   UNL     1       4.536   6.443  24.521  0.00  0.00     0.048 C 
HETATM   20  C   UNL     1       2.477   7.547  23.604  0.00  0.00     0.009 A 
HETATM   21  C   UNL     1       1.499   8.556  23.628  0.00  0.00     0.030 A 
ENDBRANCH  13  15
ENDBRANCH   1  11
BRANCH   2  22
HETATM   22  O   UNL     1      -2.068  12.099  27.193  0.00  0.00    -0.360 OA
HETATM   23  H   UNL     1      -1.623  12.929  27.442  0.00  0.00     0.217 HD
ENDBRANCH   2  22
BRANCH   8  24
HETATM   24  C   UNL     1      -3.362  13.575  20.682  0.00  0.00     0.100 C 
BRANCH  24  25
HETATM   25  C   UNL     1      -2.791  14.917  20.313  0.00  0.00    -0.052 A 
HETATM   26  C   UNL     1      -1.606  15.336  20.931  0.00  0.00     0.014 A 
HETATM   27  C   UNL     1      -1.190  16.669  20.867  0.00  0.00    -0.061 A 
HETATM   28  C   UNL     1      -0.020  17.111  21.694  0.00  0.00     0.048 C 
HETATM   29  C   UNL     1      -1.899  17.569  20.067  0.00  0.00     0.007 A 
HETATM   30  C   UNL     1      -3.052  17.156  19.394  0.00  0.00     0.001 A 
HETATM   31  C   UNL     1      -3.504  15.843  19.534  0.00  0.00     0.007 A 
ENDBRANCH  24  25
ENDBRANCH   8  24
TORSDOF 5
ENDMDL
MODEL 8
REMARK VINA RESULT:    -8.428      3.027      6.033
REMARK INTER + INTRA:         -11.701
REMARK INTER:                 -10.993
REMARK INTRA:                  -0.707
REMARK UNBOUND:                -1.056
REMARK  5 active torsions:
REMARK  status: ('A' for Active; 'I' for Inactive)
REMARK       I    between atoms: C_2  and  N_3 
REMARK    1  A    between atoms: C_2  and  C_12 
REMARK    2  A    between atoms: N_3  and  C_5 
REMARK    3  A    between atoms: C_13  and  O_14 
REMARK    4  A    between atoms: C_20  and  C_21 
REMARK    5  A    between atoms: C_21  and  C_22 
ROOT
HETATM    1  C   UNL     1      -0.001  14.223  22.077  0.00  0.00     0.066 C 
HETATM    2  C   UNL     1       1.294  14.569  21.677  0.00  0.00     0.083 C 
HETATM    3  C   UNL     1       1.550  15.750  20.973  0.00  0.00     0.069 C 
HETATM    4  C   UNL     1       0.453  16.510  20.561  0.00  0.00     0.065 A 
HETATM    5  N   UNL     1       0.392  17.651  19.813  0.00  0.00    -0.277 N 
HETATM    6  H   UNL     1       1.166  18.177  19.426  0.00  0.00     0.189 HD
HETATM    7  N   UNL     1      -0.848  18.050  19.518  0.00  0.00    -0.178 NA
HETATM    8  C   UNL     1      -1.644  17.132  20.099  0.00  0.00     0.071 A 
HETATM    9  C   UNL     1      -0.869  16.158  20.816  0.00  0.00     0.020 A 
HETATM   10  C   UNL     1      -1.093  15.000  21.598  0.00  0.00     0.035 C 
ENDROOT
BRANCH   1  11
HETATM   11  C   UNL     1      -0.344  13.009  22.890  0.00  0.00     0.260 C 
HETATM   12  O   UNL     1      -0.733  12.051  22.216  0.00  0.00    -0.267 OA
HETATM   13  N   UNL     1      -0.248  12.985  24.312  0.00  0.00    -0.318 N 
HETATM   14  C   UNL     1      -0.134  14.201  25.133  0.00  0.00     0.159 C 
BRANCH  13  15
HETATM   15  C   UNL     1      -0.426  11.731  25.041  0.00  0.00     0.037 A 
HETATM   16  C   UNL     1      -1.577  11.480  25.802  0.00  0.00     0.030 A 
HETATM   17  C   UNL     1      -1.724  10.315  26.572  0.00  0.00     0.009 A 
HETATM   18  C   UNL     1      -0.724   9.347  26.594  0.00  0.00    -0.062 A 
HETATM   19  C   UNL     1      -0.837   8.131  27.462  0.00  0.00     0.048 C 
HETATM   20  C   UNL     1       0.404   9.545  25.800  0.00  0.00     0.009 A 
HETATM   21  C   UNL     1       0.543  10.710  25.027  0.00  0.00     0.030 A 
ENDBRANCH  13  15
ENDBRANCH   1  11
BRANCH   2  22
HETATM   22  O   UNL     1       2.399  13.783  21.881  0.00  0.00    -0.360 OA
HETATM   23  H   UNL     1       2.106  12.916  22.216  0.00  0.00     0.217 HD
ENDBRANCH   2  22
BRANCH   8  24
HETATM   24  C   UNL     1      -3.093  17.174  19.741  0.00  0.00     0.100 C 
BRANCH  24  25
HETATM   25  C   UNL     1      -3.814  15.923  20.165  0.00  0.00    -0.052 A 
HETATM   26  C   UNL     1      -4.269  15.042  19.175  0.00  0.00     0.014 A 
HETATM   27  C   UNL     1      -5.194  14.037  19.472  0.00  0.00    -0.061 A 
HETATM   28  C   UNL     1      -5.793  13.239  18.353  0.00  0.00     0.048 C 
HETATM   29  C   UNL     1      -5.570  13.825  20.801  0.00  0.00     0.007 A 
HETATM   30  C   UNL     1      -5.082  14.656  21.812  0.00  0.00     0.001 A 
HETATM   31  C   UNL     1      -4.225  15.710  21.491  0.00  0.00     0.007 A 
ENDBRANCH  24  25
ENDBRANCH   8  24
TORSDOF 5
ENDMDL
MODEL 9
REMARK VINA RESULT:    -8.270      3.210      5.821
REMARK INTER + INTRA:         -11.501
REMARK INTER:                 -10.446
REMARK INTRA:                  -1.056
REMARK UNBOUND:                -1.056
REMARK  5 active torsions:
REMARK  status: ('A' for Active; 'I' for Inactive)
REMARK       I    between atoms: C_2  and  N_3 
REMARK    1  A    between atoms: C_2  and  C_12 
REMARK    2  A    between atoms: N_3  and  C_5 
REMARK    3  A    between atoms: C_13  and  O_14 
REMARK    4  A    between atoms: C_20  and  C_21 
REMARK    5  A    between atoms: C_21  and  C_22 
ROOT
HETATM    1  C   UNL     1      -0.848  12.473  21.755  0.00  0.00     0.066 C 
HETATM    2  C   UNL     1      -2.116  12.385  21.171  0.00  0.00     0.083 C 
HETATM    3  C   UNL     1      -2.738  13.500  20.601  0.00  0.00     0.069 C 
HETATM    4  C   UNL     1      -2.112  14.739  20.753  0.00  0.00     0.065 A 
HETATM    5  N   UNL     1      -2.509  15.988  20.372  0.00  0.00    -0.277 N 
HETATM    6  H   UNL     1      -3.354  16.242  19.875  0.00  0.00     0.189 HD
HETATM    7  N   UNL     1      -1.701  16.971  20.779  0.00  0.00    -0.178 NA
HETATM    8  C   UNL     1      -0.724  16.343  21.459  0.00  0.00     0.071 A 
HETATM    9  C   UNL     1      -0.911  14.918  21.432  0.00  0.00     0.020 A 
HETATM   10  C   UNL     1      -0.267  13.761  21.929  0.00  0.00     0.035 C 
ENDROOT
BRANCH   1  11
HETATM   11  C   UNL     1      -0.091  11.310  22.326  0.00  0.00     0.260 C 
HETATM   12  O   UNL     1       0.718  10.808  21.541  0.00  0.00    -0.267 OA
HETATM   13  N   UNL     1      -0.314  10.824  23.648  0.00  0.00    -0.318 N 
HETATM   14  C   UNL     1      -1.498  11.175  24.448  0.00  0.00     0.159 C 
BRANCH  13  15
HETATM   15  C   UNL     1       0.566   9.805  24.215  0.00  0.00     0.037 A 
HETATM   16  C   UNL     1       1.614  10.139  25.086  0.00  0.00     0.030 A 
HETATM   17  C   UNL     1       2.516   9.179  25.571  0.00  0.00     0.009 A 
HETATM   18  C   UNL     1       2.390   7.839  25.213  0.00  0.00    -0.062 A 
HETATM   19  C   UNL     1       3.384   6.815  25.668  0.00  0.00     0.048 C 
HETATM   20  C   UNL     1       1.323   7.472  24.396  0.00  0.00     0.009 A 
HETATM   21  C   UNL     1       0.419   8.437  23.918  0.00  0.00     0.030 A 
ENDBRANCH  13  15
ENDBRANCH   1  11
BRANCH   2  22
HETATM   22  O   UNL     1      -2.875  11.242  21.150  0.00  0.00    -0.360 OA
HETATM   23  H   UNL     1      -3.816  11.494  21.127  0.00  0.00     0.217 HD
ENDBRANCH   2  22
BRANCH   8  24
HETATM   24  C   UNL     1       0.209  17.203  22.247  0.00  0.00     0.100 C 
BRANCH  24  25
HETATM   25  C   UNL     1       1.280  16.396  22.928  0.00  0.00    -0.052 A 
HETATM   26  C   UNL     1       2.440  16.079  22.211  0.00  0.00     0.014 A 
HETATM   27  C   UNL     1       3.325  15.096  22.664  0.00  0.00    -0.061 A 
HETATM   28  C   UNL     1       4.451  14.659  21.776  0.00  0.00     0.048 C 
HETATM   29  C   UNL     1       3.116  14.514  23.917  0.00  0.00     0.007 A 
HETATM   30  C   UNL     1       1.995  14.859  24.676  0.00  0.00     0.001 A 
HETATM   31  C   UNL     1       1.074  15.780  24.173  0.00  0.00     0.007 A 
ENDBRANCH  24  25
ENDBRANCH   8  24
TORSDOF 5
ENDMDL
