MODEL 1
REMARK VINA RESULT:    -8.100      0.000      0.000
REMARK INTER + INTRA:         -13.743
REMARK INTER:                 -12.293
REMARK INTRA:                  -1.450
REMARK UNBOUND:                -1.618
REMARK  9 active torsions:
REMARK  status: ('A' for Active; 'I' for Inactive)
REMARK       I    between atoms: C_2  and  N_3 
REMARK    1  A    between atoms: C_2  and  C_17 
REMARK    2  A    between atoms: N_3  and  C_5 
REMARK    3  A    between atoms: C_8  and  O_9 
REMARK    4  A    between atoms: O_9  and  C_10 
REMARK    5  A    between atoms: C_10  and  C_11 
REMARK    6  A    between atoms: C_11  and  C_12 
REMARK    7  A    between atoms: C_18  and  O_19 
REMARK    8  A    between atoms: C_25  and  C_26 
REMARK    9  A    between atoms: C_26  and  C_27 
ROOT
HETATM    1  C   UNL     1       3.385   4.233  15.543  0.00  0.00     0.110 C 
HETATM    2  C   UNL     1       2.461   3.904  14.382  0.00  0.00    -0.021 C 
HETATM    3  N   UNL     1       1.695   3.631  13.418  0.00  0.00    -0.102 N 
ENDROOT
BRANCH   1   4
HETATM    4  C   UNL     1       2.751   5.323  16.395  0.00  0.00     0.040 C 
BRANCH   4   5
HETATM    5  C   UNL     1       2.919   6.697  15.766  0.00  0.00     0.176 C 
BRANCH   5   6
HETATM    6  O   UNL     1       4.296   7.088  15.775  0.00  0.00    -0.351 OA
BRANCH   6   7
HETATM    7  C   UNL     1       4.627   8.000  16.744  0.00  0.00     0.068 A 
HETATM    8  C   UNL     1       4.362   9.362  16.681  0.00  0.00     0.039 A 
HETATM    9  C   UNL     1       4.699  10.207  17.744  0.00  0.00     0.032 A 
HETATM   10  C   UNL     1       5.296   9.729  18.919  0.00  0.00     0.037 A 
HETATM   11  C   UNL     1       5.620   8.361  18.935  0.00  0.00     0.032 A 
HETATM   12  C   UNL     1       5.279   7.505  17.869  0.00  0.00     0.039 A 
BRANCH  10  13
HETATM   13  N   UNL     1       5.564  10.615  20.039  0.00  0.00    -0.318 N 
HETATM   14  C   UNL     1       6.747  11.405  20.073  0.00  0.00     0.260 C 
HETATM   15  O   UNL     1       7.476  11.592  19.093  0.00  0.00    -0.267 OA
HETATM   16  C   UNL     1       4.511  10.766  21.044  0.00  0.00     0.159 C 
BRANCH  14  17
HETATM   17  C   UNL     1       7.180  12.148  21.298  0.00  0.00     0.066 A 
HETATM   18  C   UNL     1       8.237  11.612  22.065  0.00  0.00     0.083 A 
HETATM   19  C   UNL     1       8.705  12.227  23.226  0.00  0.00     0.069 A 
HETATM   20  C   UNL     1       8.069  13.405  23.616  0.00  0.00     0.065 A 
HETATM   21  N   UNL     1       8.284  14.229  24.685  0.00  0.00    -0.277 N 
HETATM   22  C   UNL     1       6.999  13.960  22.926  0.00  0.00     0.020 A 
HETATM   23  H   UNL     1       8.984  14.127  25.411  0.00  0.00     0.189 HD
HETATM   24  N   UNL     1       7.450  15.277  24.750  0.00  0.00    -0.178 NA
HETATM   25  C   UNL     1       6.639  15.118  23.690  0.00  0.00     0.071 A 
HETATM   26  C   UNL     1       6.525  13.304  21.765  0.00  0.00     0.035 A 
BRANCH  18  27
HETATM   27  O   UNL     1       8.872  10.434  21.746  0.00  0.00    -0.360 OA
HETATM   28  H   UNL     1       9.324  10.570  20.882  0.00  0.00     0.217 HD
ENDBRANCH  18  27
BRANCH  25  29
HETATM   29  C   UNL     1       5.530  16.109  23.470  0.00  0.00     0.100 C 
BRANCH  29  30
HETATM   30  C   UNL     1       4.233  15.431  23.851  0.00  0.00    -0.052 A 
HETATM   31  C   UNL     1       3.446  14.777  22.890  0.00  0.00     0.014 A 
HETATM   32  C   UNL     1       2.169  14.306  23.204  0.00  0.00    -0.061 A 
HETATM   33  C   UNL     1       1.249  13.849  22.111  0.00  0.00     0.048 C 
HETATM   34  C   UNL     1       1.719  14.385  24.526  0.00  0.00     0.007 A 
HETATM   35  C   UNL     1       2.534  14.938  25.514  0.00  0.00     0.001 A 
HETATM   36  C   UNL     1       3.780  15.469  25.178  0.00  0.00     0.007 A 
ENDBRANCH  29  30
ENDBRANCH  25  29
ENDBRANCH  14  17
ENDBRANCH  10  13
ENDBRANCH   6   7
ENDBRANCH   5   6
ENDBRANCH   4   5
ENDBRANCH   1   4
TORSDOF 9
ENDMDL
MODEL 2
REMARK VINA RESULT:    -8.002      5.580      8.065
REMARK INTER + INTRA:         -13.596
REMARK INTER:                 -12.514
REMARK INTRA:                  -1.082
REMARK UNBOUND:                -1.618
REMARK  9 active torsions:
REMARK  status: ('A' for Active; 'I' for Inactive)
REMARK       I    between atoms: C_2  and  N_3 
REMARK    1  A    between atoms: C_2  and  C_17 
REMARK    2  A    between atoms: N_3  and  C_5 
REMARK    3  A    between atoms: C_8  and  O_9 
REMARK    4  A    between atoms: O_9  and  C_10 
REMARK    5  A    between atoms: C_10  and  C_11 
REMARK    6  A    between atoms: C_11  and  C_12 
REMARK    7  A    between atoms: C_18  and  O_19 
REMARK    8  A    between atoms: C_25  and  C_26 
REMARK    9  A    between atoms: C_26  and  C_27 
ROOT
HETATM    1  C   UNL     1      -2.647  12.594  22.552  0.00  0.00     0.110 C 
HETATM    2  C   UNL     1      -2.789  11.819  23.851  0.00  0.00    -0.021 C 
HETATM    3  N   UNL     1      -2.907  11.175  24.929  0.00  0.00    -0.102 N 
ENDROOT
BRANCH   1   4
HETATM    4  C   UNL     1      -1.211  13.080  22.412  0.00  0.00     0.040 C 
BRANCH   4   5
HETATM    5  C   UNL     1      -0.409  12.832  23.680  0.00  0.00     0.176 C 
BRANCH   5   6
HETATM    6  O   UNL     1       0.332  14.002  24.042  0.00  0.00    -0.351 OA
BRANCH   6   7
HETATM    7  C   UNL     1       1.693  13.877  23.930  0.00  0.00     0.068 A 
HETATM    8  C   UNL     1       2.607  14.180  24.930  0.00  0.00     0.039 A 
HETATM    9  C   UNL     1       3.977  13.976  24.735  0.00  0.00     0.032 A 
HETATM   10  C   UNL     1       4.492  13.442  23.544  0.00  0.00     0.037 A 
HETATM   11  C   UNL     1       3.557  13.207  22.519  0.00  0.00     0.032 A 
HETATM   12  C   UNL     1       2.177  13.408  22.712  0.00  0.00     0.039 A 
BRANCH  10  13
HETATM   13  N   UNL     1       5.910  13.165  23.396  0.00  0.00    -0.318 N 
HETATM   14  C   UNL     1       6.733  14.005  22.595  0.00  0.00     0.260 C 
HETATM   15  O   UNL     1       6.390  15.120  22.192  0.00  0.00    -0.267 OA
HETATM   16  C   UNL     1       6.473  12.090  24.212  0.00  0.00     0.159 C 
BRANCH  14  17
HETATM   17  C   UNL     1       8.135  13.634  22.225  0.00  0.00     0.066 A 
HETATM   18  C   UNL     1       8.329  12.546  21.347  0.00  0.00     0.083 A 
HETATM   19  C   UNL     1       9.597  12.120  20.950  0.00  0.00     0.069 A 
HETATM   20  C   UNL     1      10.686  12.813  21.475  0.00  0.00     0.065 A 
HETATM   21  N   UNL     1      12.030  12.644  21.290  0.00  0.00    -0.277 N 
HETATM   22  C   UNL     1      10.563  13.865  22.374  0.00  0.00     0.020 A 
HETATM   23  H   UNL     1      12.489  11.958  20.703  0.00  0.00     0.189 HD
HETATM   24  N   UNL     1      12.794  13.498  21.987  0.00  0.00    -0.178 NA
HETATM   25  C   UNL     1      11.912  14.242  22.675  0.00  0.00     0.071 A 
HETATM   26  C   UNL     1       9.267  14.262  22.781  0.00  0.00     0.035 A 
BRANCH  18  27
HETATM   27  O   UNL     1       7.289  11.806  20.831  0.00  0.00    -0.360 OA
HETATM   28  H   UNL     1       7.373  10.893  21.191  0.00  0.00     0.217 HD
ENDBRANCH  18  27
BRANCH  25  29
HETATM   29  C   UNL     1      12.429  15.295  23.615  0.00  0.00     0.100 C 
BRANCH  29  30
HETATM   30  C   UNL     1      12.179  14.810  25.025  0.00  0.00    -0.052 A 
HETATM   31  C   UNL     1      11.045  15.222  25.744  0.00  0.00     0.014 A 
HETATM   32  C   UNL     1      10.903  14.918  27.101  0.00  0.00    -0.061 A 
HETATM   33  C   UNL     1       9.828  15.581  27.908  0.00  0.00     0.048 C 
HETATM   34  C   UNL     1      11.847  14.091  27.716  0.00  0.00     0.007 A 
HETATM   35  C   UNL     1      12.923  13.587  26.985  0.00  0.00     0.001 A 
HETATM   36  C   UNL     1      13.096  13.952  25.650  0.00  0.00     0.007 A 
ENDBRANCH  29  30
ENDBRANCH  25  29
ENDBRANCH  14  17
ENDBRANCH  10  13
ENDBRANCH   6   7
ENDBRANCH   5   6
ENDBRANCH   4   5
ENDBRANCH   1   4
TORSDOF 9
ENDMDL
MODEL 3
REMARK VINA RESULT:    -7.744      5.453      9.356
REMARK INTER + INTRA:         -13.210
REMARK INTER:                 -11.882
REMARK INTRA:                  -1.328
REMARK UNBOUND:                -1.618
REMARK  9 active torsions:
REMARK  status: ('A' for Active; 'I' for Inactive)
REMARK       I    between atoms: C_2  and  N_3 
REMARK    1  A    between atoms: C_2  and  C_17 
REMARK    2  A    between atoms: N_3  and  C_5 
REMARK    3  A    between atoms: C_8  and  O_9 
REMARK    4  A    between atoms: O_9  and  C_10 
REMARK    5  A    between atoms: C_10  and  C_11 
REMARK    6  A    between atoms: C_11  and  C_12 
REMARK    7  A    between atoms: C_18  and  O_19 
REMARK    8  A    between atoms: C_25  and  C_26 
REMARK    9  A    between atoms: C_26  and  C_27 
ROOT
HETATM    1  C   UNL     1      13.607  13.410  27.039  0.00  0.00     0.110 C 
HETATM    2  C   UNL     1      12.159  12.980  26.871  0.00  0.00    -0.021 C 
HETATM    3  N   UNL     1      10.958  12.623  26.731  0.00  0.00    -0.102 N 
ENDROOT
BRANCH   1   4
HETATM    4  C   UNL     1      13.783  14.810  26.470  0.00  0.00     0.040 C 
BRANCH   4   5
HETATM    5  C   UNL     1      14.433  14.780  25.096  0.00  0.00     0.176 C 
BRANCH   5   6
HETATM    6  O   UNL     1      13.668  15.547  24.161  0.00  0.00    -0.351 OA
BRANCH   6   7
HETATM    7  C   UNL     1      12.448  15.010  23.841  0.00  0.00     0.068 A 
HETATM    8  C   UNL     1      12.253  13.772  23.243  0.00  0.00     0.039 A 
HETATM    9  C   UNL     1      10.963  13.290  22.996  0.00  0.00     0.032 A 
HETATM   10  C   UNL     1       9.814  14.011  23.352  0.00  0.00     0.037 A 
HETATM   11  C   UNL     1      10.033  15.292  23.892  0.00  0.00     0.032 A 
HETATM   12  C   UNL     1      11.329  15.780  24.146  0.00  0.00     0.039 A 
BRANCH  10  13
HETATM   13  N   UNL     1       8.487  13.455  23.157  0.00  0.00    -0.318 N 
HETATM   14  C   UNL     1       7.686  13.078  24.271  0.00  0.00     0.260 C 
HETATM   15  O   UNL     1       7.930  13.413  25.435  0.00  0.00    -0.267 OA
HETATM   16  C   UNL     1       7.960  13.436  21.792  0.00  0.00     0.159 C 
BRANCH  14  17
HETATM   17  C   UNL     1       6.421  12.292  24.120  0.00  0.00     0.066 A 
HETATM   18  C   UNL     1       6.522  10.900  23.910  0.00  0.00     0.083 A 
HETATM   19  C   UNL     1       5.401  10.085  23.750  0.00  0.00     0.069 A 
HETATM   20  C   UNL     1       4.156  10.711  23.791  0.00  0.00     0.065 A 
HETATM   21  N   UNL     1       2.893  10.203  23.666  0.00  0.00    -0.277 N 
HETATM   22  C   UNL     1       3.993  12.080  23.955  0.00  0.00     0.020 A 
HETATM   23  H   UNL     1       2.629   9.235  23.524  0.00  0.00     0.189 HD
HETATM   24  N   UNL     1       1.920  11.123  23.739  0.00  0.00    -0.178 NA
HETATM   25  C   UNL     1       2.576  12.285  23.895  0.00  0.00     0.071 A 
HETATM   26  C   UNL     1       5.146  12.890  24.090  0.00  0.00     0.035 A 
BRANCH  18  27
HETATM   27  O   UNL     1       7.726  10.240  23.823  0.00  0.00    -0.360 OA
HETATM   28  H   UNL     1       7.857   9.757  24.670  0.00  0.00     0.217 HD
ENDBRANCH  18  27
BRANCH  25  29
HETATM   29  C   UNL     1       1.785  13.561  23.970  0.00  0.00     0.100 C 
BRANCH  29  30
HETATM   30  C   UNL     1       0.547  13.379  23.122  0.00  0.00    -0.052 A 
HETATM   31  C   UNL     1      -0.694  13.073  23.705  0.00  0.00     0.014 A 
HETATM   32  C   UNL     1      -1.796  12.733  22.915  0.00  0.00    -0.061 A 
HETATM   33  C   UNL     1      -3.026  12.161  23.553  0.00  0.00     0.048 C 
HETATM   34  C   UNL     1      -1.689  12.815  21.524  0.00  0.00     0.007 A 
HETATM   35  C   UNL     1      -0.492  13.220  20.933  0.00  0.00     0.001 A 
HETATM   36  C   UNL     1       0.625  13.490  21.726  0.00  0.00     0.007 A 
ENDBRANCH  29  30
ENDBRANCH  25  29
ENDBRANCH  14  17
ENDBRANCH  10  13
ENDBRANCH   6   7
ENDBRANCH   5   6
ENDBRANCH   4   5
ENDBRANCH   1   4
TORSDOF 9
ENDMDL
MODEL 4
REMARK VINA RESULT:    -7.646      2.474      4.601
REMARK INTER + INTRA:         -13.062
REMARK INTER:                 -11.469
REMARK INTRA:                  -1.594
REMARK UNBOUND:                -1.618
REMARK  9 active torsions:
REMARK  status: ('A' for Active; 'I' for Inactive)
REMARK       I    between atoms: C_2  and  N_3 
REMARK    1  A    between atoms: C_2  and  C_17 
REMARK    2  A    between atoms: N_3  and  C_5 
REMARK    3  A    between atoms: C_8  and  O_9 
REMARK    4  A    between atoms: O_9  and  C_10 
REMARK    5  A    between atoms: C_10  and  C_11 
REMARK    6  A    between atoms: C_11  and  C_12 
REMARK    7  A    between atoms: C_18  and  O_19 
REMARK    8  A    between atoms: C_25  and  C_26 
REMARK    9  A    between atoms: C_26  and  C_27 
ROOT
HETATM    1  C   UNL     1       2.583   4.689  16.574  0.00  0.00     0.110 C 
HETATM    2  C   UNL     1       1.924   5.098  17.881  0.00  0.00    -0.021 C 
HETATM    3  N   UNL     1       1.378   5.437  18.966  0.00  0.00    -0.102 N 
ENDROOT
BRANCH   1   4
HETATM    4  C   UNL     1       2.325   5.762  15.526  0.00  0.00     0.040 C 
BRANCH   4   5
HETATM    5  C   UNL     1       2.238   7.147  16.149  0.00  0.00     0.176 C 
BRANCH   5   6
HETATM    6  O   UNL     1       3.411   7.909  15.845  0.00  0.00    -0.351 OA
BRANCH   6   7
HETATM    7  C   UNL     1       3.950   8.583  16.911  0.00  0.00     0.068 A 
HETATM    8  C   UNL     1       4.294   9.927  16.913  0.00  0.00     0.039 A 
HETATM    9  C   UNL     1       4.797  10.537  18.068  0.00  0.00     0.032 A 
HETATM   10  C   UNL     1       4.957   9.838  19.273  0.00  0.00     0.037 A 
HETATM   11  C   UNL     1       4.668   8.462  19.232  0.00  0.00     0.032 A 
HETATM   12  C   UNL     1       4.159   7.845  18.073  0.00  0.00     0.039 A 
BRANCH  10  13
HETATM   13  N   UNL     1       5.406  10.513  20.478  0.00  0.00    -0.318 N 
HETATM   14  C   UNL     1       4.696  11.635  20.990  0.00  0.00     0.260 C 
HETATM   15  O   UNL     1       3.560  11.952  20.625  0.00  0.00    -0.267 OA
HETATM   16  C   UNL     1       6.517   9.907  21.214  0.00  0.00     0.159 C 
BRANCH  14  17
HETATM   17  C   UNL     1       5.243  12.499  22.083  0.00  0.00     0.066 A 
HETATM   18  C   UNL     1       4.646  12.418  23.359  0.00  0.00     0.083 A 
HETATM   19  C   UNL     1       5.080  13.189  24.438  0.00  0.00     0.069 A 
HETATM   20  C   UNL     1       6.134  14.070  24.200  0.00  0.00     0.065 A 
HETATM   21  N   UNL     1       6.774  14.948  25.030  0.00  0.00    -0.277 N 
HETATM   22  C   UNL     1       6.736  14.224  22.958  0.00  0.00     0.020 A 
HETATM   23  H   UNL     1       6.590  15.112  26.013  0.00  0.00     0.189 HD
HETATM   24  N   UNL     1       7.745  15.658  24.436  0.00  0.00    -0.178 NA
HETATM   25  C   UNL     1       7.723  15.243  23.159  0.00  0.00     0.071 A 
HETATM   26  C   UNL     1       6.262  13.449  21.872  0.00  0.00     0.035 A 
BRANCH  18  27
HETATM   27  O   UNL     1       3.579  11.595  23.637  0.00  0.00    -0.360 OA
HETATM   28  H   UNL     1       3.775  10.717  23.236  0.00  0.00     0.217 HD
ENDBRANCH  18  27
BRANCH  25  29
HETATM   29  C   UNL     1       8.669  15.872  22.176  0.00  0.00     0.100 C 
BRANCH  29  30
HETATM   30  C   UNL     1       9.954  15.075  22.206  0.00  0.00    -0.052 A 
HETATM   31  C   UNL     1      10.024  13.790  21.644  0.00  0.00     0.014 A 
HETATM   32  C   UNL     1      11.152  12.985  21.826  0.00  0.00    -0.061 A 
HETATM   33  C   UNL     1      11.106  11.535  21.446  0.00  0.00     0.048 C 
HETATM   34  C   UNL     1      12.270  13.515  22.476  0.00  0.00     0.007 A 
HETATM   35  C   UNL     1      12.252  14.828  22.948  0.00  0.00     0.001 A 
HETATM   36  C   UNL     1      11.097  15.601  22.825  0.00  0.00     0.007 A 
ENDBRANCH  29  30
ENDBRANCH  25  29
ENDBRANCH  14  17
ENDBRANCH  10  13
ENDBRANCH   6   7
ENDBRANCH   5   6
ENDBRANCH   4   5
ENDBRANCH   1   4
TORSDOF 9
ENDMDL
MODEL 5
REMARK VINA RESULT:    -7.503      5.359      7.486
REMARK INTER + INTRA:         -12.849
REMARK INTER:                 -11.572
REMARK INTRA:                  -1.277
REMARK UNBOUND:                -1.618
REMARK  9 active torsions:
REMARK  status: ('A' for Active; 'I' for Inactive)
REMARK       I    between atoms: C_2  and  N_3 
REMARK    1  A    between atoms: C_2  and  C_17 
REMARK    2  A    between atoms: N_3  and  C_5 
REMARK    3  A    between atoms: C_8  and  O_9 
REMARK    4  A    between atoms: O_9  and  C_10 
REMARK    5  A    between atoms: C_10  and  C_11 
REMARK    6  A    between atoms: C_11  and  C_12 
REMARK    7  A    between atoms: C_18  and  O_19 
REMARK    8  A    between atoms: C_25  and  C_26 
REMARK    9  A    between atoms: C_26  and  C_27 
ROOT
HETATM    1  C   UNL     1       0.374   6.752  28.773  0.00  0.00     0.110 C 
HETATM    2  C   UNL     1       0.247   6.385  30.242  0.00  0.00    -0.021 C 
HETATM    3  N   UNL     1       0.142   6.080  31.461  0.00  0.00    -0.102 N 
ENDROOT
BRANCH   1   4
HETATM    4  C   UNL     1      -0.505   7.960  28.480  0.00  0.00     0.040 C 
BRANCH   4   5
HETATM    5  C   UNL     1      -0.263   8.504  27.081  0.00  0.00     0.176 C 
BRANCH   5   6
HETATM    6  O   UNL     1       0.613   7.640  26.350  0.00  0.00    -0.351 OA
BRANCH   6   7
HETATM    7  C   UNL     1       1.690   8.266  25.777  0.00  0.00     0.068 A 
HETATM    8  C   UNL     1       1.617   9.204  24.756  0.00  0.00     0.039 A 
HETATM    9  C   UNL     1       2.774   9.822  24.267  0.00  0.00     0.032 A 
HETATM   10  C   UNL     1       4.046   9.547  24.788  0.00  0.00     0.037 A 
HETATM   11  C   UNL     1       4.106   8.545  25.773  0.00  0.00     0.032 A 
HETATM   12  C   UNL     1       2.945   7.922  26.270  0.00  0.00     0.039 A 
BRANCH  10  13
HETATM   13  N   UNL     1       5.221  10.260  24.317  0.00  0.00    -0.318 N 
HETATM   14  C   UNL     1       6.049   9.705  23.303  0.00  0.00     0.260 C 
HETATM   15  O   UNL     1       5.718   8.749  22.594  0.00  0.00    -0.267 OA
HETATM   16  C   UNL     1       5.428  11.619  24.819  0.00  0.00     0.159 C 
BRANCH  14  17
HETATM   17  C   UNL     1       7.384  10.283  22.952  0.00  0.00     0.066 A 
HETATM   18  C   UNL     1       8.513   9.437  23.004  0.00  0.00     0.083 A 
HETATM   19  C   UNL     1       9.799   9.886  22.703  0.00  0.00     0.069 A 
HETATM   20  C   UNL     1       9.933  11.229  22.357  0.00  0.00     0.065 A 
HETATM   21  N   UNL     1      11.036  11.963  22.019  0.00  0.00    -0.277 N 
HETATM   22  C   UNL     1       8.868  12.121  22.328  0.00  0.00     0.020 A 
HETATM   23  H   UNL     1      11.993  11.638  21.947  0.00  0.00     0.189 HD
HETATM   24  N   UNL     1      10.781  13.255  21.766  0.00  0.00    -0.178 NA
HETATM   25  C   UNL     1       9.459  13.377  21.971  0.00  0.00     0.071 A 
HETATM   26  C   UNL     1       7.576  11.648  22.661  0.00  0.00     0.035 A 
BRANCH  18  27
HETATM   27  O   UNL     1       8.441   8.114  23.375  0.00  0.00    -0.360 OA
HETATM   28  H   UNL     1       8.175   7.600  22.579  0.00  0.00     0.217 HD
ENDBRANCH  18  27
BRANCH  25  29
HETATM   29  C   UNL     1       8.823  14.730  21.817  0.00  0.00     0.100 C 
BRANCH  29  30
HETATM   30  C   UNL     1       7.880  14.924  22.983  0.00  0.00    -0.052 A 
HETATM   31  C   UNL     1       6.516  15.189  22.777  0.00  0.00     0.014 A 
HETATM   32  C   UNL     1       5.682  15.542  23.842  0.00  0.00    -0.061 A 
HETATM   33  C   UNL     1       4.305  16.070  23.571  0.00  0.00     0.048 C 
HETATM   34  C   UNL     1       6.191  15.515  25.144  0.00  0.00     0.007 A 
HETATM   35  C   UNL     1       7.518  15.151  25.373  0.00  0.00     0.001 A 
HETATM   36  C   UNL     1       8.362  14.868  24.299  0.00  0.00     0.007 A 
ENDBRANCH  29  30
ENDBRANCH  25  29
ENDBRANCH  14  17
ENDBRANCH  10  13
ENDBRANCH   6   7
ENDBRANCH   5   6
ENDBRANCH   4   5
ENDBRANCH   1   4
TORSDOF 9
ENDMDL
MODEL 6
REMARK VINA RESULT:    -7.470      4.885     10.094
REMARK INTER + INTRA:         -12.800
REMARK INTER:                 -10.481
REMARK INTRA:                  -2.319
REMARK UNBOUND:                -1.618
REMARK  9 active torsions:
REMARK  status: ('A' for Active; 'I' for Inactive)
REMARK       I    between atoms: C_2  and  N_3 
REMARK    1  A    between atoms: C_2  and  C_17 
REMARK    2  A    between atoms: N_3  and  C_5 
REMARK    3  A    between atoms: C_8  and  O_9 
REMARK    4  A    between atoms: O_9  and  C_10 
REMARK    5  A    between atoms: C_10  and  C_11 
REMARK    6  A    between atoms: C_11  and  C_12 
REMARK    7  A    between atoms: C_18  and  O_19 
REMARK    8  A    between atoms: C_25  and  C_26 
REMARK    9  A    between atoms: C_26  and  C_27 
ROOT
HETATM    1  C   UNL     1      13.261  14.211  28.066  0.00  0.00     0.110 C 
HETATM    2  C   UNL     1      11.845  14.591  27.667  0.00  0.00    -0.021 C 
HETATM    3  N   UNL     1      10.669  14.907  27.337  0.00  0.00    -0.102 N 
ENDROOT
BRANCH   1   4
HETATM    4  C   UNL     1      14.236  14.750  27.029  0.00  0.00     0.040 C 
BRANCH   4   5
HETATM    5  C   UNL     1      14.387  13.800  25.852  0.00  0.00     0.176 C 
BRANCH   5   6
HETATM    6  O   UNL     1      14.018  14.449  24.632  0.00  0.00    -0.351 OA
BRANCH   6   7
HETATM    7  C   UNL     1      12.719  14.243  24.241  0.00  0.00     0.068 A 
HETATM    8  C   UNL     1      12.016  13.058  24.406  0.00  0.00     0.039 A 
HETATM    9  C   UNL     1      10.676  12.959  24.014  0.00  0.00     0.032 A 
HETATM   10  C   UNL     1       9.976  14.042  23.462  0.00  0.00     0.037 A 
HETATM   11  C   UNL     1      10.726  15.211  23.240  0.00  0.00     0.032 A 
HETATM   12  C   UNL     1      12.074  15.316  23.635  0.00  0.00     0.039 A 
BRANCH  10  13
HETATM   13  N   UNL     1       8.565  13.937  23.137  0.00  0.00    -0.318 N 
HETATM   14  C   UNL     1       7.572  14.263  24.102  0.00  0.00     0.260 C 
HETATM   15  O   UNL     1       7.807  14.874  25.149  0.00  0.00    -0.267 OA
HETATM   16  C   UNL     1       8.216  13.629  21.750  0.00  0.00     0.159 C 
BRANCH  14  17
HETATM   17  C   UNL     1       6.122  13.952  23.897  0.00  0.00     0.066 A 
HETATM   18  C   UNL     1       5.248  15.016  23.586  0.00  0.00     0.083 A 
HETATM   19  C   UNL     1       3.881  14.827  23.384  0.00  0.00     0.069 A 
HETATM   20  C   UNL     1       3.398  13.527  23.520  0.00  0.00     0.065 A 
HETATM   21  N   UNL     1       2.134  13.022  23.393  0.00  0.00    -0.277 N 
HETATM   22  C   UNL     1       4.199  12.445  23.864  0.00  0.00     0.020 A 
HETATM   23  H   UNL     1       1.289  13.529  23.157  0.00  0.00     0.189 HD
HETATM   24  N   UNL     1       2.042  11.703  23.619  0.00  0.00    -0.178 NA
HETATM   25  C   UNL     1       3.296  11.334  23.931  0.00  0.00     0.071 A 
HETATM   26  C   UNL     1       5.579  12.666  24.087  0.00  0.00     0.035 A 
BRANCH  18  27
HETATM   27  O   UNL     1       5.667  16.322  23.478  0.00  0.00    -0.360 OA
HETATM   28  H   UNL     1       6.177  16.534  24.294  0.00  0.00     0.217 HD
ENDBRANCH  18  27
BRANCH  25  29
HETATM   29  C   UNL     1       3.561   9.900  24.294  0.00  0.00     0.100 C 
BRANCH  29  30
HETATM   30  C   UNL     1       4.744   9.435  23.474  0.00  0.00    -0.052 A 
HETATM   31  C   UNL     1       5.967   9.111  24.084  0.00  0.00     0.014 A 
HETATM   32  C   UNL     1       7.107   8.853  23.317  0.00  0.00    -0.061 A 
HETATM   33  C   UNL     1       8.450   8.768  23.979  0.00  0.00     0.048 C 
HETATM   34  C   UNL     1       6.994   8.800  21.925  0.00  0.00     0.007 A 
HETATM   35  C   UNL     1       5.761   9.015  21.310  0.00  0.00     0.001 A 
HETATM   36  C   UNL     1       4.643   9.343  22.078  0.00  0.00     0.007 A 
ENDBRANCH  29  30
ENDBRANCH  25  29
ENDBRANCH  14  17
ENDBRANCH  10  13
ENDBRANCH   6   7
ENDBRANCH   5   6
ENDBRANCH   4   5
ENDBRANCH   1   4
TORSDOF 9
ENDMDL
MODEL 7
REMARK VINA RESULT:    -7.422      2.317      4.447
REMARK INTER + INTRA:         -12.727
REMARK INTER:                 -11.347
REMARK INTRA:                  -1.381
REMARK UNBOUND:                -1.618
REMARK  9 active torsions:
REMARK  status: ('A' for Active; 'I' for Inactive)
REMARK       I    between atoms: C_2  and  N_3 
REMARK    1  A    between atoms: C_2  and  C_17 
REMARK    2  A    between atoms: N_3  and  C_5 
REMARK    3  A    between atoms: C_8  and  O_9 
REMARK    4  A    between atoms: O_9  and  C_10 
REMARK    5  A    between atoms: C_10  and  C_11 
REMARK    6  A    between atoms: C_11  and  C_12 
REMARK    7  A    between atoms: C_18  and  O_19 
REMARK    8  A    between atoms: C_25  and  C_26 
REMARK    9  A    between atoms: C_26  and  C_27 
ROOT
HETATM    1  C   UNL     1       2.252   4.959  15.333  0.00  0.00     0.110 C 
HETATM    2  C   UNL     1       2.347   6.406  15.786  0.00  0.00    -0.021 C 
HETATM    3  N   UNL     1       2.426   7.608  16.162  0.00  0.00    -0.102 N 
ENDROOT
BRANCH   1   4
HETATM    4  C   UNL     1       3.407   4.169  15.932  0.00  0.00     0.040 C 
BRANCH   4   5
HETATM    5  C   UNL     1       3.597   4.483  17.407  0.00  0.00     0.176 C 
BRANCH   5   6
HETATM    6  O   UNL     1       4.956   4.841  17.674  0.00  0.00    -0.351 OA
BRANCH   6   7
HETATM    7  C   UNL     1       5.136   6.131  18.106  0.00  0.00     0.068 A 
HETATM    8  C   UNL     1       5.705   7.150  17.356  0.00  0.00     0.039 A 
HETATM    9  C   UNL     1       5.804   8.448  17.869  0.00  0.00     0.032 A 
HETATM   10  C   UNL     1       5.322   8.788  19.141  0.00  0.00     0.037 A 
HETATM   11  C   UNL     1       4.813   7.727  19.911  0.00  0.00     0.032 A 
HETATM   12  C   UNL     1       4.708   6.420  19.398  0.00  0.00     0.039 A 
BRANCH  10  13
HETATM   13  N   UNL     1       5.365  10.159  19.620  0.00  0.00    -0.318 N 
HETATM   14  C   UNL     1       6.001  10.478  20.852  0.00  0.00     0.260 C 
HETATM   15  O   UNL     1       6.752   9.707  21.457  0.00  0.00    -0.267 OA
HETATM   16  C   UNL     1       4.864  11.200  18.722  0.00  0.00     0.159 C 
BRANCH  14  17
HETATM   17  C   UNL     1       5.871  11.823  21.496  0.00  0.00     0.066 A 
HETATM   18  C   UNL     1       4.637  12.160  22.094  0.00  0.00     0.083 A 
HETATM   19  C   UNL     1       4.416  13.392  22.711  0.00  0.00     0.069 A 
HETATM   20  C   UNL     1       5.474  14.299  22.702  0.00  0.00     0.065 A 
HETATM   21  N   UNL     1       5.574  15.565  23.209  0.00  0.00    -0.277 N 
HETATM   22  C   UNL     1       6.697  14.043  22.096  0.00  0.00     0.020 A 
HETATM   23  H   UNL     1       4.864  16.085  23.711  0.00  0.00     0.189 HD
HETATM   24  N   UNL     1       6.758  16.154  22.989  0.00  0.00    -0.178 NA
HETATM   25  C   UNL     1       7.455  15.244  22.289  0.00  0.00     0.071 A 
HETATM   26  C   UNL     1       6.889  12.796  21.454  0.00  0.00     0.035 A 
BRANCH  18  27
HETATM   27  O   UNL     1       3.550  11.316  22.096  0.00  0.00    -0.360 OA
HETATM   28  H   UNL     1       3.010  11.536  22.890  0.00  0.00     0.217 HD
ENDBRANCH  18  27
BRANCH  25  29
HETATM   29  C   UNL     1       8.841  15.591  21.825  0.00  0.00     0.100 C 
BRANCH  29  30
HETATM   30  C   UNL     1       9.804  15.176  22.915  0.00  0.00    -0.052 A 
HETATM   31  C   UNL     1       9.922  13.832  23.305  0.00  0.00     0.014 A 
HETATM   32  C   UNL     1      10.676  13.472  24.426  0.00  0.00    -0.061 A 
HETATM   33  C   UNL     1      10.580  12.080  24.976  0.00  0.00     0.048 C 
HETATM   34  C   UNL     1      11.416  14.452  25.093  0.00  0.00     0.007 A 
HETATM   35  C   UNL     1      11.390  15.775  24.652  0.00  0.00     0.001 A 
HETATM   36  C   UNL     1      10.580  16.139  23.576  0.00  0.00     0.007 A 
ENDBRANCH  29  30
ENDBRANCH  25  29
ENDBRANCH  14  17
ENDBRANCH  10  13
ENDBRANCH   6   7
ENDBRANCH   5   6
ENDBRANCH   4   5
ENDBRANCH   1   4
TORSDOF 9
ENDMDL
MODEL 8
REMARK VINA RESULT:    -7.385      2.982      9.979
REMARK INTER + INTRA:         -12.672
REMARK INTER:                 -11.148
REMARK INTRA:                  -1.525
REMARK UNBOUND:                -1.618
REMARK  9 active torsions:
REMARK  status: ('A' for Active; 'I' for Inactive)
REMARK       I    between atoms: C_2  and  N_3 
REMARK    1  A    between atoms: C_2  and  C_17 
REMARK    2  A    between atoms: N_3  and  C_5 
REMARK    3  A    between atoms: C_8  and  O_9 
REMARK    4  A    between atoms: O_9  and  C_10 
REMARK    5  A    between atoms: C_10  and  C_11 
REMARK    6  A    between atoms: C_11  and  C_12 
REMARK    7  A    between atoms: C_18  and  O_19 
REMARK    8  A    between atoms: C_25  and  C_26 
REMARK    9  A    between atoms: C_26  and  C_27 
ROOT
HETATM    1  C   UNL     1      10.313  16.746  21.826  0.00  0.00     0.110 C 
HETATM    2  C   UNL     1       9.587  17.842  21.064  0.00  0.00    -0.021 C 
HETATM    3  N   UNL     1       8.985  18.753  20.432  0.00  0.00    -0.102 N 
ENDROOT
BRANCH   1   4
HETATM    4  C   UNL     1       9.434  15.504  21.876  0.00  0.00     0.040 C 
BRANCH   4   5
HETATM    5  C   UNL     1       9.400  14.896  23.269  0.00  0.00     0.176 C 
BRANCH   5   6
HETATM    6  O   UNL     1       8.049  14.671  23.685  0.00  0.00    -0.351 OA
BRANCH   6   7
HETATM    7  C   UNL     1       7.384  13.702  22.979  0.00  0.00     0.068 A 
HETATM    8  C   UNL     1       6.138  13.860  22.388  0.00  0.00     0.039 A 
HETATM    9  C   UNL     1       5.559  12.823  21.647  0.00  0.00     0.032 A 
HETATM   10  C   UNL     1       6.207  11.595  21.447  0.00  0.00     0.037 A 
HETATM   11  C   UNL     1       7.436  11.431  22.111  0.00  0.00     0.032 A 
HETATM   12  C   UNL     1       8.023  12.472  22.855  0.00  0.00     0.039 A 
BRANCH  10  13
HETATM   13  N   UNL     1       5.620  10.565  20.609  0.00  0.00    -0.318 N 
HETATM   14  C   UNL     1       5.938  10.487  19.224  0.00  0.00     0.260 C 
HETATM   15  O   UNL     1       6.882  11.089  18.702  0.00  0.00    -0.267 OA
HETATM   16  C   UNL     1       4.817   9.536  21.271  0.00  0.00     0.159 C 
BRANCH  14  17
HETATM   17  C   UNL     1       5.190   9.600  18.278  0.00  0.00     0.066 A 
HETATM   18  C   UNL     1       4.341  10.205  17.327  0.00  0.00     0.083 A 
HETATM   19  C   UNL     1       3.597   9.463  16.409  0.00  0.00     0.069 A 
HETATM   20  C   UNL     1       3.714   8.075  16.478  0.00  0.00     0.065 A 
HETATM   21  N   UNL     1       3.126   7.088  15.739  0.00  0.00    -0.277 N 
HETATM   22  C   UNL     1       4.501   7.420  17.417  0.00  0.00     0.020 A 
HETATM   23  H   UNL     1       2.478   7.199  14.967  0.00  0.00     0.189 HD
HETATM   24  N   UNL     1       3.466   5.845  16.110  0.00  0.00    -0.178 NA
HETATM   25  C   UNL     1       4.293   6.027  17.153  0.00  0.00     0.071 A 
HETATM   26  C   UNL     1       5.227   8.194  18.353  0.00  0.00     0.035 A 
BRANCH  18  27
HETATM   27  O   UNL     1       4.160  11.567  17.242  0.00  0.00    -0.360 OA
HETATM   28  H   UNL     1       4.821  11.910  16.599  0.00  0.00     0.217 HD
ENDBRANCH  18  27
BRANCH  25  29
HETATM   29  C   UNL     1       4.844   4.822  17.861  0.00  0.00     0.100 C 
BRANCH  29  30
HETATM   30  C   UNL     1       4.349   4.867  19.289  0.00  0.00    -0.052 A 
HETATM   31  C   UNL     1       3.000   4.630  19.598  0.00  0.00     0.014 A 
HETATM   32  C   UNL     1       2.508   4.844  20.888  0.00  0.00    -0.061 A 
HETATM   33  C   UNL     1       1.029   4.839  21.136  0.00  0.00     0.048 C 
HETATM   34  C   UNL     1       3.400   5.185  21.910  0.00  0.00     0.007 A 
HETATM   35  C   UNL     1       4.761   5.321  21.639  0.00  0.00     0.001 A 
HETATM   36  C   UNL     1       5.234   5.174  20.334  0.00  0.00     0.007 A 
ENDBRANCH  29  30
ENDBRANCH  25  29
ENDBRANCH  14  17
ENDBRANCH  10  13
ENDBRANCH   6   7
ENDBRANCH   5   6
ENDBRANCH   4   5
ENDBRANCH   1   4
TORSDOF 9
ENDMDL
MODEL 9
REMARK VINA RESULT:    -7.358      3.696     10.522
REMARK INTER + INTRA:         -12.631
REMARK INTER:                 -11.014
REMARK INTRA:                  -1.618
REMARK UNBOUND:                -1.618
REMARK  9 active torsions:
REMARK  status: ('A' for Active; 'I' for Inactive)
REMARK       I    between atoms: C_2  and  N_3 
REMARK    1  A    between atoms: C_2  and  C_17 
REMARK    2  A    between atoms: N_3  and  C_5 
REMARK    3  A    between atoms: C_8  and  O_9 
REMARK    4  A    between atoms: O_9  and  C_10 
REMARK    5  A    between atoms: C_10  and  C_11 
REMARK    6  A    between atoms: C_11  and  C_12 
REMARK    7  A    between atoms: C_18  and  O_19 
REMARK    8  A    between atoms: C_25  and  C_26 
REMARK    9  A    between atoms: C_26  and  C_27 
ROOT
HETATM    1  C   UNL     1      14.350  15.475  25.459  0.00  0.00     0.110 C 
HETATM    2  C   UNL     1      13.469  15.063  24.291  0.00  0.00    -0.021 C 
HETATM    3  N   UNL     1      12.738  14.722  23.322  0.00  0.00    -0.102 N 
ENDROOT
BRANCH   1   4
HETATM    4  C   UNL     1      14.408  14.338  26.469  0.00  0.00     0.040 C 
BRANCH   4   5
HETATM    5  C   UNL     1      13.807  14.743  27.805  0.00  0.00     0.176 C 
BRANCH   5   6
HETATM    6  O   UNL     1      12.673  13.927  28.114  0.00  0.00    -0.351 OA
BRANCH   6   7
HETATM    7  C   UNL     1      11.705  13.899  27.143  0.00  0.00     0.068 A 
HETATM    8  C   UNL     1      11.421  12.809  26.331  0.00  0.00     0.039 A 
HETATM    9  C   UNL     1      10.380  12.862  25.398  0.00  0.00     0.032 A 
HETATM   10  C   UNL     1       9.567  13.995  25.248  0.00  0.00     0.037 A 
HETATM   11  C   UNL     1       9.914  15.111  26.031  0.00  0.00     0.032 A 
HETATM   12  C   UNL     1      10.959  15.061  26.974  0.00  0.00     0.039 A 
BRANCH  10  13
HETATM   13  N   UNL     1       8.443  13.997  24.328  0.00  0.00    -0.318 N 
HETATM   14  C   UNL     1       7.364  13.086  24.498  0.00  0.00     0.260 C 
HETATM   15  O   UNL     1       7.174  12.432  25.528  0.00  0.00    -0.267 OA
HETATM   16  C   UNL     1       8.401  15.059  23.322  0.00  0.00     0.159 C 
BRANCH  14  17
HETATM   17  C   UNL     1       6.308  12.891  23.455  0.00  0.00     0.066 A 
HETATM   18  C   UNL     1       4.988  13.290  23.759  0.00  0.00     0.083 A 
HETATM   19  C   UNL     1       3.935  13.141  22.856  0.00  0.00     0.069 A 
HETATM   20  C   UNL     1       4.237  12.560  21.626  0.00  0.00     0.065 A 
HETATM   21  N   UNL     1       3.445  12.278  20.548  0.00  0.00    -0.277 N 
HETATM   22  C   UNL     1       5.506  12.111  21.283  0.00  0.00     0.020 A 
HETATM   23  H   UNL     1       2.453  12.460  20.449  0.00  0.00     0.189 HD
HETATM   24  N   UNL     1       4.088  11.688  19.531  0.00  0.00    -0.178 NA
HETATM   25  C   UNL     1       5.351  11.557  19.970  0.00  0.00     0.071 A 
HETATM   26  C   UNL     1       6.553  12.250  22.225  0.00  0.00     0.035 A 
BRANCH  18  27
HETATM   27  O   UNL     1       4.630  13.832  24.972  0.00  0.00    -0.360 OA
HETATM   28  H   UNL     1       4.090  14.635  24.785  0.00  0.00     0.217 HD
ENDBRANCH  18  27
BRANCH  25  29
HETATM   29  C   UNL     1       6.361  10.883  19.086  0.00  0.00     0.100 C 
BRANCH  29  30
HETATM   30  C   UNL     1       5.899   9.460  18.868  0.00  0.00    -0.052 A 
HETATM   31  C   UNL     1       5.500   9.012  17.598  0.00  0.00     0.014 A 
HETATM   32  C   UNL     1       4.908   7.758  17.431  0.00  0.00    -0.061 A 
HETATM   33  C   UNL     1       4.257   7.405  16.127  0.00  0.00     0.048 C 
HETATM   34  C   UNL     1       4.822   6.893  18.525  0.00  0.00     0.007 A 
HETATM   35  C   UNL     1       5.311   7.285  19.772  0.00  0.00     0.001 A 
HETATM   36  C   UNL     1       5.836   8.565  19.947  0.00  0.00     0.007 A 
ENDBRANCH  29  30
ENDBRANCH  25  29
ENDBRANCH  14  17
ENDBRANCH  10  13
ENDBRANCH   6   7
ENDBRANCH   5   6
ENDBRANCH   4   5
ENDBRANCH   1   4
TORSDOF 9
ENDMDL
