MODEL 1
REMARK VINA RESULT:    -9.403      0.000      0.000
REMARK INTER + INTRA:         -12.746
REMARK INTER:                 -11.506
REMARK INTRA:                  -1.241
REMARK UNBOUND:                -1.145
REMARK  5 active torsions:
REMARK  status: ('A' for Active; 'I' for Inactive)
REMARK    1  A    between atoms: O_1  and  C_2 
REMARK    2  A    between atoms: C_4  and  O_5 
REMARK    3  A    between atoms: C_6  and  C_11 
REMARK    4  A    between atoms: C_8  and  C_9 
REMARK    5  A    between atoms: C_17  and  C_18 
ROOT
HETATM    1  C   UNL     1      -0.668   9.987  26.128  0.00  0.00     0.103 A 
HETATM    2  N   UNL     1      -1.239  10.500  27.232  0.00  0.00    -0.173 NA
HETATM    3  N   UNL     1      -1.028   9.599  28.181  0.00  0.00    -0.281 N 
HETATM    4  H   UNL     1      -1.404   9.794  29.103  0.00  0.00     0.189 HD
HETATM    5  C   UNL     1      -0.289   8.521  27.791  0.00  0.00     0.037 A 
HETATM    6  C   UNL     1       0.001   7.450  28.777  0.00  0.00     0.070 C 
HETATM    7  C   UNL     1      -0.002   8.736  26.442  0.00  0.00     0.032 A 
ENDROOT
BRANCH   1   8
HETATM    8  C   UNL     1      -0.679  10.805  24.899  0.00  0.00     0.029 A 
HETATM    9  C   UNL     1      -1.855  11.061  24.169  0.00  0.00     0.081 A 
HETATM   10  C   UNL     1      -1.859  11.973  23.109  0.00  0.00     0.074 A 
HETATM   11  C   UNL     1      -0.681  12.636  22.762  0.00  0.00     0.074 A 
HETATM   12  C   UNL     1       0.515  12.387  23.442  0.00  0.00    -0.024 A 
HETATM   13  C   UNL     1       0.502  11.460  24.502  0.00  0.00     0.026 A 
BRANCH   9  14
HETATM   14  O   UNL     1      -3.032  10.429  24.476  0.00  0.00    -0.360 OA
HETATM   15  H   UNL     1      -3.720  10.725  23.862  0.00  0.00     0.217 HD
ENDBRANCH   9  14
BRANCH  11  16
HETATM   16  O   UNL     1      -0.699  13.566  21.760  0.00  0.00    -0.360 OA
HETATM   17  H   UNL     1       0.115  14.091  21.802  0.00  0.00     0.217 HD
ENDBRANCH  11  16
BRANCH  12  18
HETATM   18  C   UNL     1       1.769  13.186  23.176  0.00  0.00     0.037 C 
HETATM   19  C   UNL     1       1.924  14.445  24.020  0.00  0.00     0.010 C 
ENDBRANCH  12  18
ENDBRANCH   1   8
BRANCH   7  20
HETATM   20  C   UNL     1       0.847   7.864  25.622  0.00  0.00     0.017 A 
HETATM   21  C   UNL     1       2.205   7.667  25.904  0.00  0.00     0.127 A 
HETATM   22  F   UNL     1       2.814   8.355  26.880  0.00  0.00    -0.205 F 
HETATM   23  C   UNL     1       2.972   6.734  25.198  0.00  0.00     0.043 A 
HETATM   24  C   UNL     1       2.406   6.007  24.154  0.00  0.00     0.003 A 
HETATM   25  C   UNL     1       1.072   6.216  23.823  0.00  0.00     0.001 A 
HETATM   26  C   UNL     1       0.297   7.119  24.563  0.00  0.00     0.015 A 
ENDBRANCH   7  20
TORSDOF 5
ENDMDL
MODEL 2
REMARK VINA RESULT:    -8.588      2.655      5.790
REMARK INTER + INTRA:         -11.741
REMARK INTER:                 -10.591
REMARK INTRA:                  -1.150
REMARK UNBOUND:                -1.145
REMARK  5 active torsions:
REMARK  status: ('A' for Active; 'I' for Inactive)
REMARK    1  A    between atoms: O_1  and  C_2 
REMARK    2  A    between atoms: C_4  and  O_5 
REMARK    3  A    between atoms: C_6  and  C_11 
REMARK    4  A    between atoms: C_8  and  C_9 
REMARK    5  A    between atoms: C_17  and  C_18 
ROOT
HETATM    1  C   UNL     1      -1.181  10.715  25.053  0.00  0.00     0.103 A 
HETATM    2  N   UNL     1      -2.472  10.443  24.799  0.00  0.00    -0.173 NA
HETATM    3  N   UNL     1      -2.821  11.283  23.835  0.00  0.00    -0.281 N 
HETATM    4  H   UNL     1      -3.780  11.248  23.508  0.00  0.00     0.189 HD
HETATM    5  C   UNL     1      -1.810  12.075  23.377  0.00  0.00     0.037 A 
HETATM    6  C   UNL     1      -2.094  13.056  22.299  0.00  0.00     0.070 C 
HETATM    7  C   UNL     1      -0.691  11.726  24.134  0.00  0.00     0.032 A 
ENDROOT
BRANCH   1   8
HETATM    8  C   UNL     1      -0.481   9.882  26.052  0.00  0.00     0.029 A 
HETATM    9  C   UNL     1      -0.984   9.673  27.350  0.00  0.00     0.081 A 
HETATM   10  C   UNL     1      -0.385   8.749  28.212  0.00  0.00     0.074 A 
HETATM   11  C   UNL     1       0.730   8.026  27.786  0.00  0.00     0.074 A 
HETATM   12  C   UNL     1       1.279   8.227  26.515  0.00  0.00    -0.024 A 
HETATM   13  C   UNL     1       0.667   9.168  25.664  0.00  0.00     0.026 A 
BRANCH   9  14
HETATM   14  O   UNL     1      -2.076  10.364  27.808  0.00  0.00    -0.360 OA
HETATM   15  H   UNL     1      -2.461   9.887  28.557  0.00  0.00     0.217 HD
ENDBRANCH   9  14
BRANCH  11  16
HETATM   16  O   UNL     1       1.282   7.086  28.611  0.00  0.00    -0.360 OA
HETATM   17  H   UNL     1       1.577   7.517  29.429  0.00  0.00     0.217 HD
ENDBRANCH  11  16
BRANCH  12  18
HETATM   18  C   UNL     1       2.400   7.366  25.981  0.00  0.00     0.037 C 
HETATM   19  C   UNL     1       2.923   7.768  24.608  0.00  0.00     0.010 C 
ENDBRANCH  12  18
ENDBRANCH   1   8
BRANCH   7  20
HETATM   20  C   UNL     1       0.656  12.271  23.931  0.00  0.00     0.017 A 
HETATM   21  C   UNL     1       0.961  13.615  24.181  0.00  0.00     0.127 A 
HETATM   22  F   UNL     1       0.001  14.490  24.516  0.00  0.00    -0.205 F 
HETATM   23  C   UNL     1       2.274  14.094  24.113  0.00  0.00     0.043 A 
HETATM   24  C   UNL     1       3.312  13.243  23.744  0.00  0.00     0.003 A 
HETATM   25  C   UNL     1       3.032  11.914  23.446  0.00  0.00     0.001 A 
HETATM   26  C   UNL     1       1.722  11.430  23.560  0.00  0.00     0.015 A 
ENDBRANCH   7  20
TORSDOF 5
ENDMDL
MODEL 3
REMARK VINA RESULT:    -8.485      1.352      2.168
REMARK INTER + INTRA:         -11.614
REMARK INTER:                 -10.513
REMARK INTRA:                  -1.101
REMARK UNBOUND:                -1.145
REMARK  5 active torsions:
REMARK  status: ('A' for Active; 'I' for Inactive)
REMARK    1  A    between atoms: O_1  and  C_2 
REMARK    2  A    between atoms: C_4  and  O_5 
REMARK    3  A    between atoms: C_6  and  C_11 
REMARK    4  A    between atoms: C_8  and  C_9 
REMARK    5  A    between atoms: C_17  and  C_18 
ROOT
HETATM    1  C   UNL     1      -0.409  10.342  25.934  0.00  0.00     0.103 A 
HETATM    2  N   UNL     1      -1.049  10.755  27.041  0.00  0.00    -0.173 NA
HETATM    3  N   UNL     1      -1.055   9.705  27.851  0.00  0.00    -0.281 N 
HETATM    4  H   UNL     1      -1.515   9.810  28.749  0.00  0.00     0.189 HD
HETATM    5  C   UNL     1      -0.395   8.612  27.371  0.00  0.00     0.037 A 
HETATM    6  C   UNL     1      -0.345   7.380  28.198  0.00  0.00     0.070 C 
HETATM    7  C   UNL     1       0.074   8.984  26.111  0.00  0.00     0.032 A 
ENDROOT
BRANCH   1   8
HETATM    8  C   UNL     1      -0.182  11.326  24.857  0.00  0.00     0.029 A 
HETATM    9  C   UNL     1       1.106  11.735  24.462  0.00  0.00     0.081 A 
HETATM   10  C   UNL     1       1.290  12.538  23.333  0.00  0.00     0.074 A 
HETATM   11  C   UNL     1       0.185  12.948  22.587  0.00  0.00     0.074 A 
HETATM   12  C   UNL     1      -1.114  12.589  22.963  0.00  0.00    -0.024 A 
HETATM   13  C   UNL     1      -1.280  11.786  24.108  0.00  0.00     0.026 A 
BRANCH   9  14
HETATM   14  O   UNL     1       2.218  11.356  25.169  0.00  0.00    -0.360 OA
HETATM   15  H   UNL     1       2.802  10.845  24.590  0.00  0.00     0.217 HD
ENDBRANCH   9  14
BRANCH  11  16
HETATM   16  O   UNL     1       0.372  13.690  21.454  0.00  0.00    -0.360 OA
HETATM   17  H   UNL     1      -0.113  13.276  20.722  0.00  0.00     0.217 HD
ENDBRANCH  11  16
BRANCH  12  18
HETATM   18  C   UNL     1      -2.314  12.906  22.102  0.00  0.00     0.037 C 
HETATM   19  C   UNL     1      -3.327  13.853  22.731  0.00  0.00     0.010 C 
ENDBRANCH  12  18
ENDBRANCH   1   8
BRANCH   7  20
HETATM   20  C   UNL     1       0.916   8.142  25.253  0.00  0.00     0.017 A 
HETATM   21  C   UNL     1       2.242   7.833  25.583  0.00  0.00     0.127 A 
HETATM   22  F   UNL     1       2.834   8.386  26.651  0.00  0.00    -0.205 F 
HETATM   23  C   UNL     1       2.992   6.924  24.829  0.00  0.00     0.043 A 
HETATM   24  C   UNL     1       2.445   6.337  23.692  0.00  0.00     0.003 A 
HETATM   25  C   UNL     1       1.146   6.660  23.315  0.00  0.00     0.001 A 
HETATM   26  C   UNL     1       0.384   7.536  24.100  0.00  0.00     0.015 A 
ENDBRANCH   7  20
TORSDOF 5
ENDMDL
MODEL 4
REMARK VINA RESULT:    -8.081      2.695      4.315
REMARK INTER + INTRA:         -11.116
REMARK INTER:                  -9.665
REMARK INTRA:                  -1.450
REMARK UNBOUND:                -1.145
REMARK  5 active torsions:
REMARK  status: ('A' for Active; 'I' for Inactive)
REMARK    1  A    between atoms: O_1  and  C_2 
REMARK    2  A    between atoms: C_4  and  O_5 
REMARK    3  A    between atoms: C_6  and  C_11 
REMARK    4  A    between atoms: C_8  and  C_9 
REMARK    5  A    between atoms: C_17  and  C_18 
ROOT
HETATM    1  C   UNL     1       2.437   8.875  24.009  0.00  0.00     0.103 A 
HETATM    2  N   UNL     1       3.043   8.394  22.909  0.00  0.00    -0.173 NA
HETATM    3  N   UNL     1       3.352   7.139  23.204  0.00  0.00    -0.281 N 
HETATM    4  H   UNL     1       3.840   6.599  22.497  0.00  0.00     0.189 HD
HETATM    5  C   UNL     1       2.932   6.723  24.433  0.00  0.00     0.037 A 
HETATM    6  C   UNL     1       3.231   5.334  24.865  0.00  0.00     0.070 C 
HETATM    7  C   UNL     1       2.298   7.827  25.003  0.00  0.00     0.032 A 
ENDROOT
BRANCH   1   8
HETATM    8  C   UNL     1       1.908  10.253  23.961  0.00  0.00     0.029 A 
HETATM    9  C   UNL     1       2.693  11.353  23.565  0.00  0.00     0.081 A 
HETATM   10  C   UNL     1       2.119  12.613  23.372  0.00  0.00     0.074 A 
HETATM   11  C   UNL     1       0.750  12.789  23.580  0.00  0.00     0.074 A 
HETATM   12  C   UNL     1      -0.059  11.730  24.004  0.00  0.00    -0.024 A 
HETATM   13  C   UNL     1       0.539  10.469  24.201  0.00  0.00     0.026 A 
BRANCH   9  14
HETATM   14  O   UNL     1       4.041  11.222  23.353  0.00  0.00    -0.360 OA
HETATM   15  H   UNL     1       4.467  10.958  24.181  0.00  0.00     0.217 HD
ENDBRANCH   9  14
BRANCH  11  16
HETATM   16  O   UNL     1       0.182  14.009  23.340  0.00  0.00    -0.360 OA
HETATM   17  H   UNL     1      -0.779  13.937  23.450  0.00  0.00     0.217 HD
ENDBRANCH  11  16
BRANCH  12  18
HETATM   18  C   UNL     1      -1.560  11.859  24.107  0.00  0.00     0.037 C 
HETATM   19  C   UNL     1      -2.256  10.723  24.845  0.00  0.00     0.010 C 
ENDBRANCH  12  18
ENDBRANCH   1   8
BRANCH   7  20
HETATM   20  C   UNL     1       1.615   7.817  26.302  0.00  0.00     0.017 A 
HETATM   21  C   UNL     1       0.232   7.631  26.415  0.00  0.00     0.127 A 
HETATM   22  F   UNL     1      -0.546   7.560  25.325  0.00  0.00    -0.205 F 
HETATM   23  C   UNL     1      -0.390   7.490  27.660  0.00  0.00     0.043 A 
HETATM   24  C   UNL     1       0.357   7.582  28.831  0.00  0.00     0.003 A 
HETATM   25  C   UNL     1       1.726   7.812  28.750  0.00  0.00     0.001 A 
HETATM   26  C   UNL     1       2.350   7.907  27.499  0.00  0.00     0.015 A 
ENDBRANCH   7  20
TORSDOF 5
ENDMDL
MODEL 5
REMARK VINA RESULT:    -7.193      3.106      6.276
REMARK INTER + INTRA:         -10.020
REMARK INTER:                  -9.043
REMARK INTRA:                  -0.977
REMARK UNBOUND:                -1.145
REMARK  5 active torsions:
REMARK  status: ('A' for Active; 'I' for Inactive)
REMARK    1  A    between atoms: O_1  and  C_2 
REMARK    2  A    between atoms: C_4  and  O_5 
REMARK    3  A    between atoms: C_6  and  C_11 
REMARK    4  A    between atoms: C_8  and  C_9 
REMARK    5  A    between atoms: C_17  and  C_18 
ROOT
HETATM    1  C   UNL     1       0.055   8.939  27.354  0.00  0.00     0.103 A 
HETATM    2  N   UNL     1      -0.880   9.716  27.928  0.00  0.00    -0.173 NA
HETATM    3  N   UNL     1      -1.456  10.363  26.924  0.00  0.00    -0.281 N 
HETATM    4  H   UNL     1      -2.191  11.024  27.154  0.00  0.00     0.189 HD
HETATM    5  C   UNL     1      -0.998  10.019  25.687  0.00  0.00     0.037 A 
HETATM    6  C   UNL     1      -1.574  10.688  24.493  0.00  0.00     0.070 C 
HETATM    7  C   UNL     1      -0.009   9.061  25.909  0.00  0.00     0.032 A 
ENDROOT
BRANCH   1   8
HETATM    8  C   UNL     1       0.832   8.034  28.225  0.00  0.00     0.029 A 
HETATM    9  C   UNL     1       2.238   8.073  28.296  0.00  0.00     0.081 A 
HETATM   10  C   UNL     1       2.930   7.319  29.250  0.00  0.00     0.074 A 
HETATM   11  C   UNL     1       2.222   6.513  30.141  0.00  0.00     0.074 A 
HETATM   12  C   UNL     1       0.827   6.423  30.083  0.00  0.00    -0.024 A 
HETATM   13  C   UNL     1       0.148   7.182  29.110  0.00  0.00     0.026 A 
BRANCH   9  14
HETATM   14  O   UNL     1       2.970   8.851  27.438  0.00  0.00    -0.360 OA
HETATM   15  H   UNL     1       2.502   8.916  26.593  0.00  0.00     0.217 HD
ENDBRANCH   9  14
BRANCH  11  16
HETATM   16  O   UNL     1       2.896   5.818  31.106  0.00  0.00    -0.360 OA
HETATM   17  H   UNL     1       2.359   5.059  31.383  0.00  0.00     0.217 HD
ENDBRANCH  11  16
BRANCH  12  18
HETATM   18  C   UNL     1       0.029   5.664  31.117  0.00  0.00     0.037 C 
HETATM   19  C   UNL     1      -0.005   6.300  32.501  0.00  0.00     0.010 C 
ENDBRANCH  12  18
ENDBRANCH   1   8
BRANCH   7  20
HETATM   20  C   UNL     1       0.711   8.344  24.850  0.00  0.00     0.017 A 
HETATM   21  C   UNL     1       1.844   8.880  24.225  0.00  0.00     0.127 A 
HETATM   22  F   UNL     1       2.257  10.127  24.497  0.00  0.00    -0.205 F 
HETATM   23  C   UNL     1       2.599   8.135  23.313  0.00  0.00     0.043 A 
HETATM   24  C   UNL     1       2.208   6.845  22.967  0.00  0.00     0.003 A 
HETATM   25  C   UNL     1       1.061   6.304  23.538  0.00  0.00     0.001 A 
HETATM   26  C   UNL     1       0.334   7.038  24.484  0.00  0.00     0.015 A 
ENDBRANCH   7  20
TORSDOF 5
ENDMDL
MODEL 6
REMARK VINA RESULT:    -7.143      3.362      6.352
REMARK INTER + INTRA:          -9.958
REMARK INTER:                  -8.873
REMARK INTRA:                  -1.085
REMARK UNBOUND:                -1.145
REMARK  5 active torsions:
REMARK  status: ('A' for Active; 'I' for Inactive)
REMARK    1  A    between atoms: O_1  and  C_2 
REMARK    2  A    between atoms: C_4  and  O_5 
REMARK    3  A    between atoms: C_6  and  C_11 
REMARK    4  A    between atoms: C_8  and  C_9 
REMARK    5  A    between atoms: C_17  and  C_18 
ROOT
HETATM    1  C   UNL     1       2.099  10.385  23.902  0.00  0.00     0.103 A 
HETATM    2  N   UNL     1       3.099  11.033  23.279  0.00  0.00    -0.173 NA
HETATM    3  N   UNL     1       2.644  12.263  23.080  0.00  0.00    -0.281 N 
HETATM    4  H   UNL     1       3.253  12.915  22.599  0.00  0.00     0.189 HD
HETATM    5  C   UNL     1       1.402  12.501  23.592  0.00  0.00     0.037 A 
HETATM    6  C   UNL     1       0.797  13.845  23.421  0.00  0.00     0.070 C 
HETATM    7  C   UNL     1       1.001  11.296  24.170  0.00  0.00     0.032 A 
ENDROOT
BRANCH   1   8
HETATM    8  C   UNL     1       2.335   8.990  24.323  0.00  0.00     0.029 A 
HETATM    9  C   UNL     1       2.960   8.042  23.489  0.00  0.00     0.081 A 
HETATM   10  C   UNL     1       3.317   6.781  23.977  0.00  0.00     0.074 A 
HETATM   11  C   UNL     1       3.047   6.451  25.305  0.00  0.00     0.074 A 
HETATM   12  C   UNL     1       2.401   7.352  26.157  0.00  0.00    -0.024 A 
HETATM   13  C   UNL     1       2.041   8.615  25.646  0.00  0.00     0.026 A 
BRANCH   9  14
HETATM   14  O   UNL     1       3.240   8.327  22.178  0.00  0.00    -0.360 OA
HETATM   15  H   UNL     1       4.167   8.593  22.103  0.00  0.00     0.217 HD
ENDBRANCH   9  14
BRANCH  11  16
HETATM   16  O   UNL     1       3.444   5.237  25.793  0.00  0.00    -0.360 OA
HETATM   17  H   UNL     1       3.242   4.551  25.137  0.00  0.00     0.217 HD
ENDBRANCH  11  16
BRANCH  12  18
HETATM   18  C   UNL     1       2.217   7.072  27.630  0.00  0.00     0.037 C 
HETATM   19  C   UNL     1       1.054   7.804  28.286  0.00  0.00     0.010 C 
ENDBRANCH  12  18
ENDBRANCH   1   8
BRANCH   7  20
HETATM   20  C   UNL     1      -0.248  11.104  24.917  0.00  0.00     0.017 A 
HETATM   21  C   UNL     1      -1.503  11.174  24.299  0.00  0.00     0.127 A 
HETATM   22  F   UNL     1      -1.619  11.527  23.010  0.00  0.00    -0.205 F 
HETATM   23  C   UNL     1      -2.679  10.859  24.989  0.00  0.00     0.043 A 
HETATM   24  C   UNL     1      -2.628  10.512  26.337  0.00  0.00     0.003 A 
HETATM   25  C   UNL     1      -1.400  10.479  26.987  0.00  0.00     0.001 A 
HETATM   26  C   UNL     1      -0.222  10.751  26.278  0.00  0.00     0.015 A 
ENDBRANCH   7  20
TORSDOF 5
ENDMDL
MODEL 7
REMARK VINA RESULT:    -7.058      2.865      5.866
REMARK INTER + INTRA:          -9.853
REMARK INTER:                  -9.297
REMARK INTRA:                  -0.556
REMARK UNBOUND:                -1.145
REMARK  5 active torsions:
REMARK  status: ('A' for Active; 'I' for Inactive)
REMARK    1  A    between atoms: O_1  and  C_2 
REMARK    2  A    between atoms: C_4  and  O_5 
REMARK    3  A    between atoms: C_6  and  C_11 
REMARK    4  A    between atoms: C_8  and  C_9 
REMARK    5  A    between atoms: C_17  and  C_18 
ROOT
HETATM    1  C   UNL     1       0.748   8.746  25.605  0.00  0.00     0.103 A 
HETATM    2  N   UNL     1       0.690   8.055  26.757  0.00  0.00    -0.173 NA
HETATM    3  N   UNL     1      -0.101   8.767  27.548  0.00  0.00    -0.281 N 
HETATM    4  H   UNL     1      -0.261   8.417  28.487  0.00  0.00     0.189 HD
HETATM    5  C   UNL     1      -0.632   9.881  26.970  0.00  0.00     0.037 A 
HETATM    6  C   UNL     1      -1.529  10.752  27.771  0.00  0.00     0.070 C 
HETATM    7  C   UNL     1      -0.122   9.907  25.672  0.00  0.00     0.032 A 
ENDROOT
BRANCH   1   8
HETATM    8  C   UNL     1       1.514   8.162  24.486  0.00  0.00     0.029 A 
HETATM    9  C   UNL     1       2.558   8.850  23.841  0.00  0.00     0.081 A 
HETATM   10  C   UNL     1       3.369   8.207  22.899  0.00  0.00     0.074 A 
HETATM   11  C   UNL     1       3.138   6.867  22.588  0.00  0.00     0.074 A 
HETATM   12  C   UNL     1       2.092   6.156  23.184  0.00  0.00    -0.024 A 
HETATM   13  C   UNL     1       1.281   6.822  24.123  0.00  0.00     0.026 A 
BRANCH   9  14
HETATM   14  O   UNL     1       2.816  10.168  24.117  0.00  0.00    -0.360 OA
HETATM   15  H   UNL     1       3.477  10.220  24.822  0.00  0.00     0.217 HD
ENDBRANCH   9  14
BRANCH  11  16
HETATM   16  O   UNL     1       3.965   6.227  21.707  0.00  0.00    -0.360 OA
HETATM   17  H   UNL     1       4.674   6.833  21.441  0.00  0.00     0.217 HD
ENDBRANCH  11  16
BRANCH  12  18
HETATM   18  C   UNL     1       1.904   4.673  22.966  0.00  0.00     0.037 C 
HETATM   19  C   UNL     1       2.711   3.777  23.895  0.00  0.00     0.010 C 
ENDBRANCH  12  18
ENDBRANCH   1   8
BRANCH   7  20
HETATM   20  C   UNL     1      -0.488  10.894  24.650  0.00  0.00     0.017 A 
HETATM   21  C   UNL     1      -1.796  11.009  24.162  0.00  0.00     0.127 A 
HETATM   22  F   UNL     1      -2.750  10.143  24.533  0.00  0.00    -0.205 F 
HETATM   23  C   UNL     1      -2.165  12.038  23.288  0.00  0.00     0.043 A 
HETATM   24  C   UNL     1      -1.215  12.953  22.842  0.00  0.00     0.003 A 
HETATM   25  C   UNL     1       0.101  12.835  23.275  0.00  0.00     0.001 A 
HETATM   26  C   UNL     1       0.454  11.830  24.186  0.00  0.00     0.015 A 
ENDBRANCH   7  20
TORSDOF 5
ENDMDL
MODEL 8
REMARK VINA RESULT:    -6.926      2.902      5.161
REMARK INTER + INTRA:          -9.691
REMARK INTER:                  -8.314
REMARK INTRA:                  -1.377
REMARK UNBOUND:                -1.145
REMARK  5 active torsions:
REMARK  status: ('A' for Active; 'I' for Inactive)
REMARK    1  A    between atoms: O_1  and  C_2 
REMARK    2  A    between atoms: C_4  and  O_5 
REMARK    3  A    between atoms: C_6  and  C_11 
REMARK    4  A    between atoms: C_8  and  C_9 
REMARK    5  A    between atoms: C_17  and  C_18 
ROOT
HETATM    1  C   UNL     1       0.571   8.415  25.813  0.00  0.00     0.103 A 
HETATM    2  N   UNL     1       0.345   7.755  26.962  0.00  0.00    -0.173 NA
HETATM    3  N   UNL     1      -0.385   8.581  27.698  0.00  0.00    -0.281 N 
HETATM    4  H   UNL     1      -0.651   8.269  28.626  0.00  0.00     0.189 HD
HETATM    5  C   UNL     1      -0.719   9.751  27.081  0.00  0.00     0.037 A 
HETATM    6  C   UNL     1      -1.533  10.749  27.820  0.00  0.00     0.070 C 
HETATM    7  C   UNL     1      -0.130   9.687  25.818  0.00  0.00     0.032 A 
ENDROOT
BRANCH   1   8
HETATM    8  C   UNL     1       1.315   7.715  24.747  0.00  0.00     0.029 A 
HETATM    9  C   UNL     1       0.923   6.458  24.249  0.00  0.00     0.081 A 
HETATM   10  C   UNL     1       1.550   5.901  23.130  0.00  0.00     0.074 A 
HETATM   11  C   UNL     1       2.582   6.595  22.498  0.00  0.00     0.074 A 
HETATM   12  C   UNL     1       3.022   7.832  22.979  0.00  0.00    -0.024 A 
HETATM   13  C   UNL     1       2.385   8.374  24.112  0.00  0.00     0.026 A 
BRANCH   9  14
HETATM   14  O   UNL     1      -0.084   5.743  24.843  0.00  0.00    -0.360 OA
HETATM   15  H   UNL     1      -0.288   4.970  24.297  0.00  0.00     0.217 HD
ENDBRANCH   9  14
BRANCH  11  16
HETATM   16  O   UNL     1       3.157   6.072  21.373  0.00  0.00    -0.360 OA
HETATM   17  H   UNL     1       2.500   5.537  20.902  0.00  0.00     0.217 HD
ENDBRANCH  11  16
BRANCH  12  18
HETATM   18  C   UNL     1       4.043   8.663  22.238  0.00  0.00     0.037 C 
HETATM   19  C   UNL     1       4.015  10.153  22.555  0.00  0.00     0.010 C 
ENDBRANCH  12  18
ENDBRANCH   1   8
BRANCH   7  20
HETATM   20  C   UNL     1      -0.291  10.701  24.771  0.00  0.00     0.017 A 
HETATM   21  C   UNL     1      -1.541  11.008  24.217  0.00  0.00     0.127 A 
HETATM   22  F   UNL     1      -2.634  10.305  24.548  0.00  0.00    -0.205 F 
HETATM   23  C   UNL     1      -1.704  12.066  23.316  0.00  0.00     0.043 A 
HETATM   24  C   UNL     1      -0.604  12.816  22.910  0.00  0.00     0.003 A 
HETATM   25  C   UNL     1       0.656  12.505  23.409  0.00  0.00     0.001 A 
HETATM   26  C   UNL     1       0.805  11.473  24.345  0.00  0.00     0.015 A 
ENDBRANCH   7  20
TORSDOF 5
ENDMDL
MODEL 9
REMARK VINA RESULT:    -6.854      3.028      5.293
REMARK INTER + INTRA:          -9.601
REMARK INTER:                  -8.456
REMARK INTRA:                  -1.145
REMARK UNBOUND:                -1.145
REMARK  5 active torsions:
REMARK  status: ('A' for Active; 'I' for Inactive)
REMARK    1  A    between atoms: O_1  and  C_2 
REMARK    2  A    between atoms: C_4  and  O_5 
REMARK    3  A    between atoms: C_6  and  C_11 
REMARK    4  A    between atoms: C_8  and  C_9 
REMARK    5  A    between atoms: C_17  and  C_18 
ROOT
HETATM    1  C   UNL     1       0.375   8.930  24.961  0.00  0.00     0.103 A 
HETATM    2  N   UNL     1      -0.295   9.948  24.393  0.00  0.00    -0.173 NA
HETATM    3  N   UNL     1      -0.990  10.498  25.379  0.00  0.00    -0.281 N 
HETATM    4  H   UNL     1      -1.585  11.286  25.149  0.00  0.00     0.189 HD
HETATM    5  C   UNL     1      -0.780   9.939  26.605  0.00  0.00     0.037 A 
HETATM    6  C   UNL     1      -1.513  10.478  27.779  0.00  0.00     0.070 C 
HETATM    7  C   UNL     1       0.135   8.908  26.392  0.00  0.00     0.032 A 
ENDROOT
BRANCH   1   8
HETATM    8  C   UNL     1       1.304   8.156  24.114  0.00  0.00     0.029 A 
HETATM    9  C   UNL     1       2.455   8.723  23.535  0.00  0.00     0.081 A 
HETATM   10  C   UNL     1       3.398   7.925  22.880  0.00  0.00     0.074 A 
HETATM   11  C   UNL     1       3.196   6.548  22.790  0.00  0.00     0.074 A 
HETATM   12  C   UNL     1       2.051   5.949  23.324  0.00  0.00    -0.024 A 
HETATM   13  C   UNL     1       1.108   6.769  23.974  0.00  0.00     0.026 A 
BRANCH   9  14
HETATM   14  O   UNL     1       2.689  10.072  23.600  0.00  0.00    -0.360 OA
HETATM   15  H   UNL     1       2.256  10.505  22.850  0.00  0.00     0.217 HD
ENDBRANCH   9  14
BRANCH  11  16
HETATM   16  O   UNL     1       4.144   5.763  22.194  0.00  0.00    -0.360 OA
HETATM   17  H   UNL     1       3.885   4.832  22.282  0.00  0.00     0.217 HD
ENDBRANCH  11  16
BRANCH  12  18
HETATM   18  C   UNL     1       1.872   4.449  23.358  0.00  0.00     0.037 C 
HETATM   19  C   UNL     1       2.792   3.711  24.322  0.00  0.00     0.010 C 
ENDBRANCH  12  18
ENDBRANCH   1   8
BRANCH   7  20
HETATM   20  C   UNL     1       0.717   8.077  27.453  0.00  0.00     0.017 A 
HETATM   21  C   UNL     1       2.101   7.983  27.650  0.00  0.00     0.127 A 
HETATM   22  F   UNL     1       2.960   8.569  26.803  0.00  0.00    -0.205 F 
HETATM   23  C   UNL     1       2.641   7.297  28.743  0.00  0.00     0.043 A 
HETATM   24  C   UNL     1       1.803   6.643  29.643  0.00  0.00     0.003 A 
HETATM   25  C   UNL     1       0.428   6.682  29.446  0.00  0.00     0.001 A 
HETATM   26  C   UNL     1      -0.109   7.409  28.375  0.00  0.00     0.015 A 
ENDBRANCH   7  20
TORSDOF 5
ENDMDL
