MODEL 1
REMARK VINA RESULT:    -5.975      0.000      0.000
REMARK INTER + INTRA:          -8.808
REMARK INTER:                  -7.882
REMARK INTRA:                  -0.926
REMARK UNBOUND:                -1.086
REMARK  5 active torsions:
REMARK  status: ('A' for Active; 'I' for Inactive)
REMARK    1  A    between atoms: N8_1  and  C24_2 
REMARK    2  A    between atoms: N8_1  and  C7_8 
REMARK    3  A    between atoms: C2_13  and  N1_14 
REMARK    4  A    between atoms: N1_14  and  C17_15 
REMARK    5  A    between atoms: C14_16  and  C13_19 
ROOT
ATOM      1  C17 FTA A   1       7.714  11.841  10.558  1.00  0.00     0.142 C 
ATOM      2  C14 FTA A   1       7.798  11.116   9.425  1.00  0.00     0.158 C 
ATOM      3  C18 FTA A   1       9.016  10.401   9.107  1.00  0.00     0.069 C 
ATOM      4  N21 FTA A   1      10.076   9.925   8.952  1.00  0.00    -0.197 NA
ENDROOT
BRANCH   2   5
ATOM      5  C13 FTA A   1       6.630  11.045   8.518  1.00  0.00     0.197 A 
ATOM      6  N15 FTA A   1       5.701  10.008   8.453  1.00  0.00    -0.093 NA
ATOM      7  N19 FTA A   1       4.800  10.316   7.442  1.00  0.00    -0.231 N 
ATOM      8  N20 FTA A   1       5.155  11.530   6.872  1.00  0.00    -0.017 NA
ATOM      9  H15 FTA A   1       3.997   9.736   7.160  1.00  0.00     0.200 HD
ATOM     10  N16 FTA A   1       6.282  11.989   7.545  1.00  0.00    -0.090 NA
ENDBRANCH   2   5
BRANCH   1  11
ATOM     11  N1  FTA A   1       7.330  13.130  10.479  1.00  0.00    -0.389 N 
ATOM     12  H11 FTA A   1       7.983  13.795  10.040  1.00  0.00     0.159 HD
BRANCH  11  13
ATOM     13  C2  FTA A   1       6.092  13.642  10.956  1.00  0.00     0.028 A 
ATOM     14  C4  FTA A   1       4.879  13.008  10.697  1.00  0.00     0.031 A 
ATOM     15  C6  FTA A   1       3.685  13.679  10.992  1.00  0.00     0.031 A 
ATOM     16  C7  FTA A   1       3.671  14.961  11.535  1.00  0.00     0.032 A 
ATOM     17  C5  FTA A   1       4.885  15.567  11.810  1.00  0.00     0.031 A 
ATOM     18  C3  FTA A   1       6.080  14.924  11.512  1.00  0.00     0.031 A 
BRANCH  16  19
ATOM     19  N8  FTA A   1       2.489  15.738  11.647  1.00  0.00    -0.356 N 
ATOM     20  H1  FTA A   1       2.218  16.304  10.831  1.00  0.00     0.166 HD
BRANCH  19  21
ATOM     21  C24 FTA A   1       1.645  15.798  12.797  1.00  0.00     0.032 A 
ATOM     22  C26 FTA A   1       1.846  16.728  13.789  1.00  0.00     0.029 A 
ATOM     23  C28 FTA A   1       1.107  16.624  14.953  1.00  0.00     0.002 A 
ATOM     24  C30 FTA A   1       0.153  15.639  15.142  1.00  0.00     0.000 A 
ATOM     25  C29 FTA A   1      -0.083  14.729  14.145  1.00  0.00     0.002 A 
ATOM     26  C27 FTA A   1       0.666  14.830  12.967  1.00  0.00     0.029 A 
ENDBRANCH  19  21
ENDBRANCH  16  19
ENDBRANCH  11  13
ENDBRANCH   1  11
TORSDOF 5
ENDMDL
MODEL 2
REMARK VINA RESULT:    -5.964      1.278      1.985
REMARK INTER + INTRA:          -8.793
REMARK INTER:                  -7.836
REMARK INTRA:                  -0.958
REMARK UNBOUND:                -1.086
REMARK  5 active torsions:
REMARK  status: ('A' for Active; 'I' for Inactive)
REMARK    1  A    between atoms: N8_1  and  C24_2 
REMARK    2  A    between atoms: N8_1  and  C7_8 
REMARK    3  A    between atoms: C2_13  and  N1_14 
REMARK    4  A    between atoms: N1_14  and  C17_15 
REMARK    5  A    between atoms: C14_16  and  C13_19 
ROOT
ATOM      1  C17 FTA A   1       7.915  12.806  11.086  1.00  0.00     0.142 C 
ATOM      2  C14 FTA A   1       8.016  12.686   9.748  1.00  0.00     0.158 C 
ATOM      3  C18 FTA A   1       8.722  13.688   8.979  1.00  0.00     0.069 C 
ATOM      4  N21 FTA A   1       9.269  14.599   8.483  1.00  0.00    -0.197 NA
ENDROOT
BRANCH   2   5
ATOM      5  C13 FTA A   1       7.413  11.513   9.074  1.00  0.00     0.197 A 
ATOM      6  N15 FTA A   1       8.044  10.679   8.153  1.00  0.00    -0.093 NA
ATOM      7  N19 FTA A   1       7.112   9.738   7.736  1.00  0.00    -0.231 N 
ATOM      8  N20 FTA A   1       5.907   9.972   8.382  1.00  0.00    -0.017 NA
ATOM      9  H15 FTA A   1       7.288   8.984   7.055  1.00  0.00     0.200 HD
ATOM     10  N16 FTA A   1       6.095  11.066   9.220  1.00  0.00    -0.090 NA
ENDBRANCH   2   5
BRANCH   1  11
ATOM     11  N1  FTA A   1       6.696  12.741  11.656  1.00  0.00    -0.389 N 
ATOM     12  H11 FTA A   1       6.452  11.876  12.160  1.00  0.00     0.159 HD
BRANCH  11  13
ATOM     13  C2  FTA A   1       5.720  13.774  11.614  1.00  0.00     0.028 A 
ATOM     14  C4  FTA A   1       5.923  15.010  12.224  1.00  0.00     0.031 A 
ATOM     15  C6  FTA A   1       4.842  15.893  12.346  1.00  0.00     0.031 A 
ATOM     16  C7  FTA A   1       3.570  15.575  11.878  1.00  0.00     0.032 A 
ATOM     17  C5  FTA A   1       3.391  14.354  11.252  1.00  0.00     0.031 A 
ATOM     18  C3  FTA A   1       4.446  13.459  11.134  1.00  0.00     0.031 A 
BRANCH  16  19
ATOM     19  N8  FTA A   1       2.424  16.356  12.174  1.00  0.00    -0.356 N 
ATOM     20  H1  FTA A   1       2.323  17.254  11.677  1.00  0.00     0.166 HD
BRANCH  19  21
ATOM     21  C24 FTA A   1       1.398  16.002  13.102  1.00  0.00     0.032 A 
ATOM     22  C26 FTA A   1       1.372  16.516  14.377  1.00  0.00     0.029 A 
ATOM     23  C28 FTA A   1       0.459  16.004  15.279  1.00  0.00     0.002 A 
ATOM     24  C30 FTA A   1      -0.449  15.017  14.936  1.00  0.00     0.000 A 
ATOM     25  C29 FTA A   1      -0.459  14.524  13.659  1.00  0.00     0.002 A 
ATOM     26  C27 FTA A   1       0.467  15.038  12.745  1.00  0.00     0.029 A 
ENDBRANCH  19  21
ENDBRANCH  16  19
ENDBRANCH  11  13
ENDBRANCH   1  11
TORSDOF 5
ENDMDL
MODEL 3
REMARK VINA RESULT:    -5.901      2.657      3.988
REMARK INTER + INTRA:          -8.713
REMARK INTER:                  -7.680
REMARK INTRA:                  -1.032
REMARK UNBOUND:                -1.086
REMARK  5 active torsions:
REMARK  status: ('A' for Active; 'I' for Inactive)
REMARK    1  A    between atoms: N8_1  and  C24_2 
REMARK    2  A    between atoms: N8_1  and  C7_8 
REMARK    3  A    between atoms: C2_13  and  N1_14 
REMARK    4  A    between atoms: N1_14  and  C17_15 
REMARK    5  A    between atoms: C14_16  and  C13_19 
ROOT
ATOM      1  C17 FTA A   1       4.614  13.698   9.287  1.00  0.00     0.142 C 
ATOM      2  C14 FTA A   1       4.866  12.489   8.748  1.00  0.00     0.158 C 
ATOM      3  C18 FTA A   1       4.012  11.967   7.703  1.00  0.00     0.069 C 
ATOM      4  N21 FTA A   1       3.207  11.649   6.911  1.00  0.00    -0.197 NA
ENDROOT
BRANCH   2   5
ATOM      5  C13 FTA A   1       6.031  11.708   9.222  1.00  0.00     0.197 A 
ATOM      6  N15 FTA A   1       6.321  10.384   8.898  1.00  0.00    -0.093 NA
ATOM      7  N19 FTA A   1       7.472  10.028   9.589  1.00  0.00    -0.231 N 
ATOM      8  N20 FTA A   1       7.904  11.109  10.343  1.00  0.00    -0.017 NA
ATOM      9  H15 FTA A   1       7.932   9.107   9.548  1.00  0.00     0.200 HD
ATOM     10  N16 FTA A   1       7.018  12.156  10.108  1.00  0.00    -0.090 NA
ENDBRANCH   2   5
BRANCH   1  11
ATOM     11  N1  FTA A   1       4.508  13.805  10.626  1.00  0.00    -0.389 N 
ATOM     12  H11 FTA A   1       4.225  12.964  11.149  1.00  0.00     0.159 HD
BRANCH  11  13
ATOM     13  C2  FTA A   1       4.758  14.990  11.371  1.00  0.00     0.028 A 
ATOM     14  C4  FTA A   1       5.919  15.163  12.119  1.00  0.00     0.031 A 
ATOM     15  C6  FTA A   1       6.000  16.244  13.009  1.00  0.00     0.031 A 
ATOM     16  C7  FTA A   1       4.954  17.149  13.170  1.00  0.00     0.032 A 
ATOM     17  C5  FTA A   1       3.817  16.977  12.401  1.00  0.00     0.031 A 
ATOM     18  C3  FTA A   1       3.712  15.905  11.524  1.00  0.00     0.031 A 
BRANCH  16  19
ATOM     19  N8  FTA A   1       4.929  18.118  14.205  1.00  0.00    -0.356 N 
ATOM     20  H1  FTA A   1       5.164  19.088  13.950  1.00  0.00     0.166 HD
BRANCH  19  21
ATOM     21  C24 FTA A   1       4.603  17.861  15.571  1.00  0.00     0.032 A 
ATOM     22  C26 FTA A   1       5.555  17.450  16.474  1.00  0.00     0.029 A 
ATOM     23  C28 FTA A   1       5.146  17.052  17.732  1.00  0.00     0.002 A 
ATOM     24  C30 FTA A   1       3.819  17.081  18.126  1.00  0.00     0.000 A 
ATOM     25  C29 FTA A   1       2.866  17.524  17.249  1.00  0.00     0.002 A 
ATOM     26  C27 FTA A   1       3.276  17.925  15.972  1.00  0.00     0.029 A 
ENDBRANCH  19  21
ENDBRANCH  16  19
ENDBRANCH  11  13
ENDBRANCH   1  11
TORSDOF 5
ENDMDL
MODEL 4
REMARK VINA RESULT:    -5.811      3.249      4.722
REMARK INTER + INTRA:          -8.596
REMARK INTER:                  -7.542
REMARK INTRA:                  -1.055
REMARK UNBOUND:                -1.086
REMARK  5 active torsions:
REMARK  status: ('A' for Active; 'I' for Inactive)
REMARK    1  A    between atoms: N8_1  and  C24_2 
REMARK    2  A    between atoms: N8_1  and  C7_8 
REMARK    3  A    between atoms: C2_13  and  N1_14 
REMARK    4  A    between atoms: N1_14  and  C17_15 
REMARK    5  A    between atoms: C14_16  and  C13_19 
ROOT
ATOM      1  C17 FTA A   1       4.292  13.496   9.116  1.00  0.00     0.142 C 
ATOM      2  C14 FTA A   1       4.634  12.377   8.447  1.00  0.00     0.158 C 
ATOM      3  C18 FTA A   1       3.910  11.993   7.254  1.00  0.00     0.069 C 
ATOM      4  N21 FTA A   1       3.203  11.777   6.343  1.00  0.00    -0.197 NA
ENDROOT
BRANCH   2   5
ATOM      5  C13 FTA A   1       5.764  11.554   8.934  1.00  0.00     0.197 A 
ATOM      6  N15 FTA A   1       5.979  10.205   8.656  1.00  0.00    -0.093 NA
ATOM      7  N19 FTA A   1       7.121   9.814   9.343  1.00  0.00    -0.231 N 
ATOM      8  N20 FTA A   1       7.622  10.899  10.048  1.00  0.00    -0.017 NA
ATOM      9  H15 FTA A   1       7.531   8.869   9.331  1.00  0.00     0.200 HD
ATOM     10  N16 FTA A   1       6.788  11.981   9.787  1.00  0.00    -0.090 NA
ENDBRANCH   2   5
BRANCH   1  11
ATOM     11  N1  FTA A   1       4.043  13.414  10.437  1.00  0.00    -0.389 N 
ATOM     12  H11 FTA A   1       3.598  12.552  10.785  1.00  0.00     0.159 HD
BRANCH  11  13
ATOM     13  C2  FTA A   1       4.346  14.426  11.388  1.00  0.00     0.028 A 
ATOM     14  C4  FTA A   1       3.483  15.491  11.638  1.00  0.00     0.031 A 
ATOM     15  C6  FTA A   1       3.939  16.569  12.409  1.00  0.00     0.031 A 
ATOM     16  C7  FTA A   1       5.229  16.611  12.932  1.00  0.00     0.032 A 
ATOM     17  C5  FTA A   1       6.065  15.535  12.696  1.00  0.00     0.031 A 
ATOM     18  C3  FTA A   1       5.637  14.463  11.923  1.00  0.00     0.031 A 
BRANCH  16  19
ATOM     19  N8  FTA A   1       5.778  17.773  13.532  1.00  0.00    -0.356 N 
ATOM     20  H1  FTA A   1       5.635  18.669  13.044  1.00  0.00     0.166 HD
BRANCH  19  21
ATOM     21  C24 FTA A   1       6.513  17.803  14.756  1.00  0.00     0.032 A 
ATOM     22  C26 FTA A   1       7.831  18.193  14.796  1.00  0.00     0.029 A 
ATOM     23  C28 FTA A   1       8.532  18.035  15.976  1.00  0.00     0.002 A 
ATOM     24  C30 FTA A   1       7.948  17.530  17.126  1.00  0.00     0.000 A 
ATOM     25  C29 FTA A   1       6.626  17.174  17.109  1.00  0.00     0.002 A 
ATOM     26  C27 FTA A   1       5.914  17.329  15.915  1.00  0.00     0.029 A 
ENDBRANCH  19  21
ENDBRANCH  16  19
ENDBRANCH  11  13
ENDBRANCH   1  11
TORSDOF 5
ENDMDL
MODEL 5
REMARK VINA RESULT:    -5.710      1.847      2.679
REMARK INTER + INTRA:          -8.465
REMARK INTER:                  -7.536
REMARK INTRA:                  -0.929
REMARK UNBOUND:                -1.086
REMARK  5 active torsions:
REMARK  status: ('A' for Active; 'I' for Inactive)
REMARK    1  A    between atoms: N8_1  and  C24_2 
REMARK    2  A    between atoms: N8_1  and  C7_8 
REMARK    3  A    between atoms: C2_13  and  N1_14 
REMARK    4  A    between atoms: N1_14  and  C17_15 
REMARK    5  A    between atoms: C14_16  and  C13_19 
ROOT
ATOM      1  C17 FTA A   1       6.737  13.888  10.741  1.00  0.00     0.142 C 
ATOM      2  C14 FTA A   1       7.473  12.866  10.261  1.00  0.00     0.158 C 
ATOM      3  C18 FTA A   1       8.916  12.903  10.354  1.00  0.00     0.069 C 
ATOM      4  N21 FTA A   1      10.070  13.093  10.446  1.00  0.00    -0.197 NA
ENDROOT
BRANCH   2   5
ATOM      5  C13 FTA A   1       6.791  11.701   9.652  1.00  0.00     0.197 A 
ATOM      6  N15 FTA A   1       7.389  10.498   9.284  1.00  0.00    -0.093 NA
ATOM      7  N19 FTA A   1       6.407   9.701   8.712  1.00  0.00    -0.231 N 
ATOM      8  N20 FTA A   1       5.202  10.389   8.715  1.00  0.00    -0.017 NA
ATOM      9  H15 FTA A   1       6.549   8.749   8.344  1.00  0.00     0.200 HD
ATOM     10  N16 FTA A   1       5.436  11.626   9.308  1.00  0.00    -0.090 NA
ENDBRANCH   2   5
BRANCH   1  11
ATOM     11  N1  FTA A   1       5.830  14.473   9.935  1.00  0.00    -0.389 N 
ATOM     12  H11 FTA A   1       6.096  14.627   8.952  1.00  0.00     0.159 HD
BRANCH  11  13
ATOM     13  C2  FTA A   1       4.532  14.893  10.338  1.00  0.00     0.028 A 
ATOM     14  C4  FTA A   1       4.057  16.177  10.085  1.00  0.00     0.031 A 
ATOM     15  C6  FTA A   1       2.873  16.598  10.705  1.00  0.00     0.031 A 
ATOM     16  C7  FTA A   1       2.156  15.774  11.569  1.00  0.00     0.032 A 
ATOM     17  C5  FTA A   1       2.628  14.493  11.791  1.00  0.00     0.031 A 
ATOM     18  C3  FTA A   1       3.807  14.061  11.196  1.00  0.00     0.031 A 
BRANCH  16  19
ATOM     19  N8  FTA A   1       1.080  16.244  12.365  1.00  0.00    -0.356 N 
ATOM     20  H1  FTA A   1       1.253  17.075  12.949  1.00  0.00     0.166 HD
BRANCH  19  21
ATOM     21  C24 FTA A   1      -0.221  15.661  12.423  1.00  0.00     0.032 A 
ATOM     22  C26 FTA A   1      -0.529  14.673  13.328  1.00  0.00     0.029 A 
ATOM     23  C28 FTA A   1      -1.747  14.031  13.219  1.00  0.00     0.002 A 
ATOM     24  C30 FTA A   1      -2.681  14.367  12.253  1.00  0.00     0.000 A 
ATOM     25  C29 FTA A   1      -2.402  15.375  11.370  1.00  0.00     0.002 A 
ATOM     26  C27 FTA A   1      -1.167  16.025  11.475  1.00  0.00     0.029 A 
ENDBRANCH  19  21
ENDBRANCH  16  19
ENDBRANCH  11  13
ENDBRANCH   1  11
TORSDOF 5
ENDMDL
MODEL 6
REMARK VINA RESULT:    -5.668      3.066      4.038
REMARK INTER + INTRA:          -8.412
REMARK INTER:                  -7.313
REMARK INTRA:                  -1.098
REMARK UNBOUND:                -1.086
REMARK  5 active torsions:
REMARK  status: ('A' for Active; 'I' for Inactive)
REMARK    1  A    between atoms: N8_1  and  C24_2 
REMARK    2  A    between atoms: N8_1  and  C7_8 
REMARK    3  A    between atoms: C2_13  and  N1_14 
REMARK    4  A    between atoms: N1_14  and  C17_15 
REMARK    5  A    between atoms: C14_16  and  C13_19 
ROOT
ATOM      1  C17 FTA A   1       8.195  12.626  10.222  1.00  0.00     0.142 C 
ATOM      2  C14 FTA A   1       7.974  11.478   9.551  1.00  0.00     0.158 C 
ATOM      3  C18 FTA A   1       9.081  10.612   9.207  1.00  0.00     0.069 C 
ATOM      4  N21 FTA A   1      10.072  10.042   8.948  1.00  0.00    -0.197 NA
ENDROOT
BRANCH   2   5
ATOM      5  C13 FTA A   1       6.589  11.104   9.184  1.00  0.00     0.197 A 
ATOM      6  N15 FTA A   1       5.426  11.746   9.604  1.00  0.00    -0.093 NA
ATOM      7  N19 FTA A   1       4.349  11.050   9.069  1.00  0.00    -0.231 N 
ATOM      8  N20 FTA A   1       4.823   9.981   8.323  1.00  0.00    -0.017 NA
ATOM      9  H15 FTA A   1       3.356  11.289   9.205  1.00  0.00     0.200 HD
ATOM     10  N16 FTA A   1       6.213  10.019   8.384  1.00  0.00    -0.090 NA
ENDBRANCH   2   5
BRANCH   1  11
ATOM     11  N1  FTA A   1       7.708  13.778   9.721  1.00  0.00    -0.389 N 
ATOM     12  H11 FTA A   1       7.803  13.933   8.707  1.00  0.00     0.159 HD
BRANCH  11  13
ATOM     13  C2  FTA A   1       7.072  14.795  10.484  1.00  0.00     0.028 A 
ATOM     14  C4  FTA A   1       7.299  16.148  10.249  1.00  0.00     0.031 A 
ATOM     15  C6  FTA A   1       6.827  17.087  11.177  1.00  0.00     0.031 A 
ATOM     16  C7  FTA A   1       6.140  16.710  12.328  1.00  0.00     0.032 A 
ATOM     17  C5  FTA A   1       5.900  15.363  12.533  1.00  0.00     0.031 A 
ATOM     18  C3  FTA A   1       6.372  14.416  11.633  1.00  0.00     0.031 A 
BRANCH  16  19
ATOM     19  N8  FTA A   1       5.839  17.617  13.376  1.00  0.00    -0.356 N 
ATOM     20  H1  FTA A   1       5.088  18.302  13.208  1.00  0.00     0.166 HD
BRANCH  19  21
ATOM     21  C24 FTA A   1       6.491  17.658  14.646  1.00  0.00     0.032 A 
ATOM     22  C26 FTA A   1       7.813  18.016  14.766  1.00  0.00     0.029 A 
ATOM     23  C28 FTA A   1       8.430  17.869  15.994  1.00  0.00     0.002 A 
ATOM     24  C30 FTA A   1       7.758  17.406  17.112  1.00  0.00     0.000 A 
ATOM     25  C29 FTA A   1       6.431  17.082  17.014  1.00  0.00     0.002 A 
ATOM     26  C27 FTA A   1       5.804  17.226  15.771  1.00  0.00     0.029 A 
ENDBRANCH  19  21
ENDBRANCH  16  19
ENDBRANCH  11  13
ENDBRANCH   1  11
TORSDOF 5
ENDMDL
MODEL 7
REMARK VINA RESULT:    -5.640      2.360      8.479
REMARK INTER + INTRA:          -8.376
REMARK INTER:                  -7.432
REMARK INTRA:                  -0.944
REMARK UNBOUND:                -1.086
REMARK  5 active torsions:
REMARK  status: ('A' for Active; 'I' for Inactive)
REMARK    1  A    between atoms: N8_1  and  C24_2 
REMARK    2  A    between atoms: N8_1  and  C7_8 
REMARK    3  A    between atoms: C2_13  and  N1_14 
REMARK    4  A    between atoms: N1_14  and  C17_15 
REMARK    5  A    between atoms: C14_16  and  C13_19 
ROOT
ATOM      1  C17 FTA A   1       2.370  16.230  11.806  1.00  0.00     0.142 C 
ATOM      2  C14 FTA A   1       2.045  16.528  13.079  1.00  0.00     0.158 C 
ATOM      3  C18 FTA A   1       2.794  17.532  13.805  1.00  0.00     0.069 C 
ATOM      4  N21 FTA A   1       3.519  18.319  14.285  1.00  0.00    -0.197 NA
ENDROOT
BRANCH   2   5
ATOM      5  C13 FTA A   1       0.908  15.832  13.723  1.00  0.00     0.197 A 
ATOM      6  N15 FTA A   1       0.574  15.877  15.075  1.00  0.00    -0.093 NA
ATOM      7  N19 FTA A   1      -0.526  15.050  15.261  1.00  0.00    -0.231 N 
ATOM      8  N20 FTA A   1      -0.883  14.486  14.045  1.00  0.00    -0.017 NA
ATOM      9  H15 FTA A   1      -1.002  14.882  16.160  1.00  0.00     0.200 HD
ATOM     10  N16 FTA A   1      -0.002  14.978  13.088  1.00  0.00    -0.090 NA
ENDBRANCH   2   5
BRANCH   1  11
ATOM     11  N1  FTA A   1       2.594  14.944  11.474  1.00  0.00    -0.389 N 
ATOM     12  H11 FTA A   1       1.773  14.331  11.367  1.00  0.00     0.159 HD
BRANCH  11  13
ATOM     13  C2  FTA A   1       3.876  14.368  11.262  1.00  0.00     0.028 A 
ATOM     14  C4  FTA A   1       4.067  13.274  10.421  1.00  0.00     0.031 A 
ATOM     15  C6  FTA A   1       5.304  12.615  10.434  1.00  0.00     0.031 A 
ATOM     16  C7  FTA A   1       6.348  13.017  11.262  1.00  0.00     0.032 A 
ATOM     17  C5  FTA A   1       6.151  14.121  12.073  1.00  0.00     0.031 A 
ATOM     18  C3  FTA A   1       4.928  14.780  12.085  1.00  0.00     0.031 A 
BRANCH  16  19
ATOM     19  N8  FTA A   1       7.525  12.246  11.446  1.00  0.00    -0.356 N 
ATOM     20  H1  FTA A   1       7.763  11.970  12.409  1.00  0.00     0.166 HD
BRANCH  19  21
ATOM     21  C24 FTA A   1       8.406  11.823  10.406  1.00  0.00     0.032 A 
ATOM     22  C26 FTA A   1       8.228  10.625   9.754  1.00  0.00     0.029 A 
ATOM     23  C28 FTA A   1       9.210  10.194   8.881  1.00  0.00     0.002 A 
ATOM     24  C30 FTA A   1      10.347  10.938   8.617  1.00  0.00     0.000 A 
ATOM     25  C29 FTA A   1      10.518  12.150   9.231  1.00  0.00     0.002 A 
ATOM     26  C27 FTA A   1       9.528  12.587  10.118  1.00  0.00     0.029 A 
ENDBRANCH  19  21
ENDBRANCH  16  19
ENDBRANCH  11  13
ENDBRANCH   1  11
TORSDOF 5
ENDMDL
MODEL 8
REMARK VINA RESULT:    -5.586      1.706      2.831
REMARK INTER + INTRA:          -8.305
REMARK INTER:                  -7.223
REMARK INTRA:                  -1.083
REMARK UNBOUND:                -1.086
REMARK  5 active torsions:
REMARK  status: ('A' for Active; 'I' for Inactive)
REMARK    1  A    between atoms: N8_1  and  C24_2 
REMARK    2  A    between atoms: N8_1  and  C7_8 
REMARK    3  A    between atoms: C2_13  and  N1_14 
REMARK    4  A    between atoms: N1_14  and  C17_15 
REMARK    5  A    between atoms: C14_16  and  C13_19 
ROOT
ATOM      1  C17 FTA A   1       5.747  13.871   7.917  1.00  0.00     0.142 C 
ATOM      2  C14 FTA A   1       5.434  12.567   8.052  1.00  0.00     0.158 C 
ATOM      3  C18 FTA A   1       4.244  12.035   7.423  1.00  0.00     0.069 C 
ATOM      4  N21 FTA A   1       3.227  11.759   6.909  1.00  0.00    -0.197 NA
ENDROOT
BRANCH   2   5
ATOM      5  C13 FTA A   1       6.326  11.682   8.836  1.00  0.00     0.197 A 
ATOM      6  N15 FTA A   1       6.510  10.315   8.637  1.00  0.00    -0.093 NA
ATOM      7  N19 FTA A   1       7.389   9.866   9.613  1.00  0.00    -0.231 N 
ATOM      8  N20 FTA A   1       7.756  10.932  10.421  1.00  0.00    -0.017 NA
ATOM      9  H15 FTA A   1       7.717   8.895   9.720  1.00  0.00     0.200 HD
ATOM     10  N16 FTA A   1       7.106  12.061   9.934  1.00  0.00    -0.090 NA
ENDBRANCH   2   5
BRANCH   1  11
ATOM     11  N1  FTA A   1       5.981  14.603   9.023  1.00  0.00    -0.389 N 
ATOM     12  H11 FTA A   1       6.963  14.798   9.266  1.00  0.00     0.159 HD
BRANCH  11  13
ATOM     13  C2  FTA A   1       4.976  15.127   9.882  1.00  0.00     0.028 A 
ATOM     14  C4  FTA A   1       4.365  14.354  10.866  1.00  0.00     0.031 A 
ATOM     15  C6  FTA A   1       3.230  14.856  11.518  1.00  0.00     0.031 A 
ATOM     16  C7  FTA A   1       2.693  16.103  11.212  1.00  0.00     0.032 A 
ATOM     17  C5  FTA A   1       3.326  16.870  10.250  1.00  0.00     0.031 A 
ATOM     18  C3  FTA A   1       4.444  16.384   9.583  1.00  0.00     0.031 A 
BRANCH  16  19
ATOM     19  N8  FTA A   1       1.436  16.541  11.703  1.00  0.00    -0.356 N 
ATOM     20  H1  FTA A   1       0.939  17.259  11.156  1.00  0.00     0.166 HD
BRANCH  19  21
ATOM     21  C24 FTA A   1       0.803  16.068  12.892  1.00  0.00     0.032 A 
ATOM     22  C26 FTA A   1       1.125  16.574  14.130  1.00  0.00     0.029 A 
ATOM     23  C28 FTA A   1       0.606  15.957  15.252  1.00  0.00     0.002 A 
ATOM     24  C30 FTA A   1      -0.249  14.871  15.175  1.00  0.00     0.000 A 
ATOM     25  C29 FTA A   1      -0.608  14.382  13.947  1.00  0.00     0.002 A 
ATOM     26  C27 FTA A   1      -0.081  15.002  12.809  1.00  0.00     0.029 A 
ENDBRANCH  19  21
ENDBRANCH  16  19
ENDBRANCH  11  13
ENDBRANCH   1  11
TORSDOF 5
ENDMDL
MODEL 9
REMARK VINA RESULT:    -5.502      1.634      2.478
REMARK INTER + INTRA:          -8.197
REMARK INTER:                  -7.110
REMARK INTRA:                  -1.086
REMARK UNBOUND:                -1.086
REMARK  5 active torsions:
REMARK  status: ('A' for Active; 'I' for Inactive)
REMARK    1  A    between atoms: N8_1  and  C24_2 
REMARK    2  A    between atoms: N8_1  and  C7_8 
REMARK    3  A    between atoms: C2_13  and  N1_14 
REMARK    4  A    between atoms: N1_14  and  C17_15 
REMARK    5  A    between atoms: C14_16  and  C13_19 
ROOT
ATOM      1  C17 FTA A   1       6.572  13.824  10.727  1.00  0.00     0.142 C 
ATOM      2  C14 FTA A   1       7.284  12.790  10.235  1.00  0.00     0.158 C 
ATOM      3  C18 FTA A   1       8.727  12.789  10.333  1.00  0.00     0.069 C 
ATOM      4  N21 FTA A   1       9.885  12.949  10.430  1.00  0.00    -0.197 NA
ENDROOT
BRANCH   2   5
ATOM      5  C13 FTA A   1       6.574  11.651   9.610  1.00  0.00     0.197 A 
ATOM      6  N15 FTA A   1       7.156  10.467   9.161  1.00  0.00    -0.093 NA
ATOM      7  N19 FTA A   1       6.148   9.692   8.602  1.00  0.00    -0.231 N 
ATOM      8  N20 FTA A   1       4.944  10.376   8.693  1.00  0.00    -0.017 NA
ATOM      9  H15 FTA A   1       6.273   8.758   8.186  1.00  0.00     0.200 HD
ATOM     10  N16 FTA A   1       5.205  11.587   9.327  1.00  0.00    -0.090 NA
ENDBRANCH   2   5
BRANCH   1  11
ATOM     11  N1  FTA A   1       5.682  14.442   9.927  1.00  0.00    -0.389 N 
ATOM     12  H11 FTA A   1       5.934  14.556   8.934  1.00  0.00     0.159 HD
BRANCH  11  13
ATOM     13  C2  FTA A   1       4.422  14.948  10.347  1.00  0.00     0.028 A 
ATOM     14  C4  FTA A   1       3.998  16.236  10.029  1.00  0.00     0.031 A 
ATOM     15  C6  FTA A   1       2.859  16.752  10.662  1.00  0.00     0.031 A 
ATOM     16  C7  FTA A   1       2.138  16.019  11.601  1.00  0.00     0.032 A 
ATOM     17  C5  FTA A   1       2.558  14.732  11.886  1.00  0.00     0.031 A 
ATOM     18  C3  FTA A   1       3.692  14.207  11.280  1.00  0.00     0.031 A 
BRANCH  16  19
ATOM     19  N8  FTA A   1       1.116  16.589  12.402  1.00  0.00    -0.356 N 
ATOM     20  H1  FTA A   1       0.229  16.829  11.936  1.00  0.00     0.166 HD
BRANCH  19  21
ATOM     21  C24 FTA A   1       1.214  16.856  13.801  1.00  0.00     0.032 A 
ATOM     22  C26 FTA A   1       0.205  16.519  14.672  1.00  0.00     0.029 A 
ATOM     23  C28 FTA A   1       0.285  16.958  15.980  1.00  0.00     0.002 A 
ATOM     24  C30 FTA A   1       1.358  17.696  16.452  1.00  0.00     0.000 A 
ATOM     25  C29 FTA A   1       2.388  18.005  15.604  1.00  0.00     0.002 A 
ATOM     26  C27 FTA A   1       2.308  17.565  14.278  1.00  0.00     0.029 A 
ENDBRANCH  19  21
ENDBRANCH  16  19
ENDBRANCH  11  13
ENDBRANCH   1  11
TORSDOF 5
ENDMDL
