REMARK  7 active torsions:
REMARK  status: ('A' for Active; 'I' for Inactive)
REMARK    1  A    between atoms: C_7  and  N_8 
REMARK    2  A    between atoms: C_14  and  C_15 
REMARK    3  A    between atoms: C_16  and  O_17 
REMARK    4  A    between atoms: C_19  and  O_20 
REMARK    5  A    between atoms: C_22  and  C_23 
REMARK       I    between atoms: C_23  and  N_25 
REMARK    6  A    between atoms: N_25  and  C_27 
REMARK    7  A    between atoms: C_27  and  C_28 
ROOT
HETATM    1  C   UNL     1       0.062  -1.295  -0.225  0.00  0.00     0.046 A 
HETATM    2  C   UNL     1      -1.166  -1.557  -0.869  0.00  0.00     0.082 A 
HETATM    3  C   UNL     1      -2.076  -0.541  -1.132  0.00  0.00     0.075 A 
HETATM    4  C   UNL     1      -1.773   0.770  -0.771  0.00  0.00     0.084 A 
HETATM    5  C   UNL     1       0.313   0.023   0.212  0.00  0.00     0.038 A 
HETATM    6  C   UNL     1      -0.568   1.085  -0.105  0.00  0.00     0.066 A 
ENDROOT
BRANCH   1   7
HETATM    7  C   UNL     1       1.042  -2.418  -0.111  0.00  0.00     0.172 A 
HETATM    8  N   UNL     1       2.402  -2.338   0.078  0.00  0.00    -0.244 N 
HETATM    9  C   UNL     1       2.839  -3.656   0.117  0.00  0.00     0.349 A 
HETATM   10  O   UNL     1       3.971  -4.109   0.185  0.00  0.00    -0.245 OA
HETATM   11  N   UNL     1       1.699  -4.431  -0.027  0.00  0.00    -0.226 N 
HETATM   12  H   UNL     1       1.696  -5.436  -0.148  0.00  0.00     0.194 HD
HETATM   13  N   UNL     1       0.604  -3.653  -0.182  0.00  0.00    -0.151 NA
BRANCH   8  14
HETATM   14  C   UNL     1       3.340  -1.281   0.028  0.00  0.00     0.051 A 
HETATM   15  C   UNL     1       3.391  -0.320  -1.001  0.00  0.00    -0.035 A 
HETATM   16  C   UNL     1       2.550  -0.388  -2.244  0.00  0.00     0.050 C 
HETATM   17  C   UNL     1       4.390   0.675  -0.954  0.00  0.00     0.009 A 
HETATM   18  C   UNL     1       5.365   0.678   0.044  0.00  0.00     0.001 A 
HETATM   19  C   UNL     1       5.361  -0.311   1.016  0.00  0.00     0.002 A 
HETATM   20  C   UNL     1       4.355  -1.278   1.011  0.00  0.00     0.031 A 
ENDBRANCH   8  14
ENDBRANCH   1   7
BRANCH   2  21
HETATM   21  O   UNL     1      -1.554  -2.796  -1.314  0.00  0.00    -0.360 OA
HETATM   22  H   UNL     1      -0.914  -3.461  -0.976  0.00  0.00     0.217 HD
ENDBRANCH   2  21
BRANCH   6  23
HETATM   23  C   UNL     1      -0.126   2.531  -0.051  0.00  0.00     0.256 C 
HETATM   24  O   UNL     1      -0.468   3.249  -0.995  0.00  0.00    -0.267 OA
HETATM   25  N   UNL     1       0.740   3.042   0.928  0.00  0.00    -0.347 N 
HETATM   26  C   UNL     1       1.183   2.357   2.129  0.00  0.00     0.153 C 
BRANCH  25  27
HETATM   27  C   UNL     1       1.432   4.302   0.615  0.00  0.00     0.171 C 
BRANCH  27  28
HETATM   28  C   UNL     1       0.849   5.501   1.315  0.00  0.00     0.000 A 
HETATM   29  S   UNL     1       1.787   6.352   2.480  0.00  0.00    -0.105 SA
HETATM   30  C   UNL     1       0.603   7.573   2.650  0.00  0.00     0.050 A 
HETATM   31  C   UNL     1      -0.493   7.343   1.855  0.00  0.00     0.008 A 
HETATM   32  C   UNL     1      -0.352   6.148   1.084  0.00  0.00     0.017 A 
ENDBRANCH  27  28
ENDBRANCH  25  27
ENDBRANCH   6  23
BRANCH   4  33
HETATM   33  O   UNL     1      -2.694   1.739  -1.085  0.00  0.00    -0.360 OA
HETATM   34  H   UNL     1      -3.230   1.436  -1.841  0.00  0.00     0.217 HD
ENDBRANCH   4  33
TORSDOF 7
