MODEL 1
REMARK VINA RESULT:    -8.513      0.000      0.000
REMARK INTER + INTRA:         -10.180
REMARK INTER:                  -9.641
REMARK INTRA:                  -0.540
REMARK UNBOUND:                -0.423
REMARK  3 active torsions:
REMARK  status: ('A' for Active; 'I' for Inactive)
REMARK    1  A    between atoms: O_2  and  C_3 
REMARK       I    between atoms: N_10  and  C_11 
REMARK    2  A    between atoms: C_11  and  C_13 
REMARK    3  A    between atoms: C_15  and  N_16 
ROOT
HETATM    1  C   UNL     1       7.533  12.551  21.947  0.00  0.00     0.140 A 
HETATM    2  N   UNL     1       8.867  12.670  21.745  0.00  0.00    -0.212 NA
HETATM    3  C   UNL     1       9.403  13.859  22.009  0.00  0.00     0.200 A 
HETATM    4  N   UNL     1       8.736  14.919  22.456  0.00  0.00    -0.218 NA
HETATM    5  C   UNL     1       7.420  14.802  22.651  0.00  0.00     0.073 A 
HETATM    6  C   UNL     1       6.740  15.884  23.198  0.00  0.00     0.033 A 
HETATM    7  C   UNL     1       5.373  15.834  23.486  0.00  0.00     0.009 A 
HETATM    8  C   UNL     1       4.643  14.700  23.155  0.00  0.00    -0.061 A 
HETATM    9  C   UNL     1       3.218  14.519  23.579  0.00  0.00     0.048 C 
HETATM   10  C   UNL     1       5.310  13.635  22.547  0.00  0.00     0.023 A 
HETATM   11  C   UNL     1       6.719  13.629  22.359  0.00  0.00     0.028 A 
ENDROOT
BRANCH   1  12
HETATM   12  C   UNL     1       6.954  11.145  21.827  0.00  0.00     0.274 C 
HETATM   13  N   UNL     1       6.320  10.691  20.679  0.00  0.00    -0.338 N 
HETATM   14  C   UNL     1       5.802   9.322  20.677  0.00  0.00     0.165 A 
HETATM   15  C   UNL     1       6.031  11.393  19.426  0.00  0.00     0.165 A 
HETATM   16  C   UNL     1       5.051   9.224  19.395  0.00  0.00    -0.030 A 
HETATM   17  C   UNL     1       5.153  10.421  18.687  0.00  0.00    -0.032 A 
HETATM   18  C   UNL     1       4.278   8.171  18.932  0.00  0.00     0.046 A 
HETATM   19  C   UNL     1       4.464  10.601  17.505  0.00  0.00     0.012 A 
HETATM   20  C   UNL     1       3.631   9.563  17.051  0.00  0.00     0.037 A 
HETATM   21  C   UNL     1       3.530   8.360  17.770  0.00  0.00     0.068 A 
HETATM   22  O   UNL     1       7.061  10.350  22.765  0.00  0.00    -0.266 OA
BRANCH  21  23
HETATM   23  O   UNL     1       2.737   7.303  17.407  0.00  0.00    -0.356 OA
HETATM   24  C   UNL     1       2.397   7.261  16.025  0.00  0.00     0.210 C 
ENDBRANCH  21  23
ENDBRANCH   1  12
BRANCH   3  25
HETATM   25  N   UNL     1      10.749  14.039  21.768  0.00  0.00    -0.271 NA
HETATM   26  H   UNL     1      10.893  14.785  21.104  0.00  0.00     0.127 HD
HETATM   27  H   UNL     1      11.236  14.117  22.653  0.00  0.00     0.127 HD
ENDBRANCH   3  25
TORSDOF 3
ENDMDL
MODEL 2
REMARK VINA RESULT:    -8.050      3.826      5.698
REMARK INTER + INTRA:          -9.650
REMARK INTER:                  -9.166
REMARK INTRA:                  -0.484
REMARK UNBOUND:                -0.423
REMARK  3 active torsions:
REMARK  status: ('A' for Active; 'I' for Inactive)
REMARK    1  A    between atoms: O_2  and  C_3 
REMARK       I    between atoms: N_10  and  C_11 
REMARK    2  A    between atoms: C_11  and  C_13 
REMARK    3  A    between atoms: C_15  and  N_16 
ROOT
HETATM    1  C   UNL     1       8.664  12.666  22.349  0.00  0.00     0.140 A 
HETATM    2  N   UNL     1       9.138  11.596  23.031  0.00  0.00    -0.212 NA
HETATM    3  C   UNL     1      10.313  11.752  23.637  0.00  0.00     0.200 A 
HETATM    4  N   UNL     1      11.039  12.866  23.627  0.00  0.00    -0.218 NA
HETATM    5  C   UNL     1      10.573  13.920  22.951  0.00  0.00     0.073 A 
HETATM    6  C   UNL     1      11.292  15.107  23.012  0.00  0.00     0.033 A 
HETATM    7  C   UNL     1      10.853  16.275  22.380  0.00  0.00     0.009 A 
HETATM    8  C   UNL     1       9.702  16.244  21.605  0.00  0.00    -0.061 A 
HETATM    9  C   UNL     1       9.093  17.488  21.035  0.00  0.00     0.048 C 
HETATM   10  C   UNL     1       9.012  15.036  21.488  0.00  0.00     0.023 A 
HETATM   11  C   UNL     1       9.382  13.876  22.222  0.00  0.00     0.028 A 
ENDROOT
BRANCH   1  12
HETATM   12  C   UNL     1       7.240  12.552  21.818  0.00  0.00     0.274 C 
HETATM   13  N   UNL     1       6.162  13.190  22.417  0.00  0.00    -0.338 N 
HETATM   14  C   UNL     1       4.839  13.008  21.819  0.00  0.00     0.165 A 
HETATM   15  C   UNL     1       6.114  14.018  23.624  0.00  0.00     0.165 A 
HETATM   16  C   UNL     1       3.915  13.666  22.785  0.00  0.00    -0.030 A 
HETATM   17  C   UNL     1       4.640  14.221  23.839  0.00  0.00    -0.032 A 
HETATM   18  C   UNL     1       2.530  13.703  22.758  0.00  0.00     0.046 A 
HETATM   19  C   UNL     1       3.992  14.808  24.907  0.00  0.00     0.012 A 
HETATM   20  C   UNL     1       2.587  14.803  24.921  0.00  0.00     0.037 A 
HETATM   21  C   UNL     1       1.861  14.241  23.858  0.00  0.00     0.068 A 
HETATM   22  O   UNL     1       7.010  11.891  20.800  0.00  0.00    -0.266 OA
BRANCH  21  23
HETATM   23  O   UNL     1       0.493  14.184  23.795  0.00  0.00    -0.356 OA
HETATM   24  C   UNL     1      -0.032  12.927  23.381  0.00  0.00     0.210 C 
ENDBRANCH  21  23
ENDBRANCH   1  12
BRANCH   3  25
HETATM   25  N   UNL     1      10.857  10.672  24.300  0.00  0.00    -0.271 NA
HETATM   26  H   UNL     1      11.817  10.535  24.023  0.00  0.00     0.127 HD
HETATM   27  H   UNL     1      10.678  10.768  25.292  0.00  0.00     0.127 HD
ENDBRANCH   3  25
TORSDOF 3
ENDMDL
MODEL 3
REMARK VINA RESULT:    -8.022      2.908      4.339
REMARK INTER + INTRA:          -9.618
REMARK INTER:                  -9.161
REMARK INTRA:                  -0.457
REMARK UNBOUND:                -0.423
REMARK  3 active torsions:
REMARK  status: ('A' for Active; 'I' for Inactive)
REMARK    1  A    between atoms: O_2  and  C_3 
REMARK       I    between atoms: N_10  and  C_11 
REMARK    2  A    between atoms: C_11  and  C_13 
REMARK    3  A    between atoms: C_15  and  N_16 
ROOT
HETATM    1  C   UNL     1       6.962  13.287  21.590  0.00  0.00     0.140 A 
HETATM    2  N   UNL     1       8.233  13.649  21.292  0.00  0.00    -0.212 NA
HETATM    3  C   UNL     1       8.657  14.801  21.807  0.00  0.00     0.200 A 
HETATM    4  N   UNL     1       7.938  15.605  22.585  0.00  0.00    -0.218 NA
HETATM    5  C   UNL     1       6.684  15.250  22.875  0.00  0.00     0.073 A 
HETATM    6  C   UNL     1       5.963  16.048  23.755  0.00  0.00     0.033 A 
HETATM    7  C   UNL     1       4.664  15.726  24.157  0.00  0.00     0.009 A 
HETATM    8  C   UNL     1       4.033  14.615  23.614  0.00  0.00    -0.061 A 
HETATM    9  C   UNL     1       2.710  14.125  24.116  0.00  0.00     0.048 C 
HETATM   10  C   UNL     1       4.730  13.846  22.680  0.00  0.00     0.023 A 
HETATM   11  C   UNL     1       6.092  14.096  22.355  0.00  0.00     0.028 A 
ENDROOT
BRANCH   1  12
HETATM   12  C   UNL     1       6.540  11.887  21.161  0.00  0.00     0.274 C 
HETATM   13  N   UNL     1       6.902  10.746  21.865  0.00  0.00    -0.338 N 
HETATM   14  C   UNL     1       6.440   9.453  21.360  0.00  0.00     0.165 A 
HETATM   15  C   UNL     1       7.741  10.605  23.058  0.00  0.00     0.165 A 
HETATM   16  C   UNL     1       7.135   8.460  22.226  0.00  0.00    -0.030 A 
HETATM   17  C   UNL     1       7.908   9.116  23.183  0.00  0.00    -0.032 A 
HETATM   18  C   UNL     1       7.131   7.078  22.120  0.00  0.00     0.046 A 
HETATM   19  C   UNL     1       8.716   8.404  24.046  0.00  0.00     0.012 A 
HETATM   20  C   UNL     1       8.765   7.005  23.914  0.00  0.00     0.037 A 
HETATM   21  C   UNL     1       7.986   6.349  22.946  0.00  0.00     0.068 A 
HETATM   22  O   UNL     1       5.826  11.733  20.166  0.00  0.00    -0.266 OA
BRANCH  21  23
HETATM   23  O   UNL     1       7.981   4.994  22.742  0.00  0.00    -0.356 OA
HETATM   24  C   UNL     1       8.768   4.250  23.667  0.00  0.00     0.210 C 
ENDBRANCH  21  23
ENDBRANCH   1  12
BRANCH   3  25
HETATM   25  N   UNL     1       9.927  15.232  21.487  0.00  0.00    -0.271 NA
HETATM   26  H   UNL     1      10.567  14.453  21.454  0.00  0.00     0.127 HD
HETATM   27  H   UNL     1       9.881  15.818  20.662  0.00  0.00     0.127 HD
ENDBRANCH   3  25
TORSDOF 3
ENDMDL
MODEL 4
REMARK VINA RESULT:    -7.881      3.336      5.364
REMARK INTER + INTRA:          -9.457
REMARK INTER:                  -8.921
REMARK INTRA:                  -0.536
REMARK UNBOUND:                -0.423
REMARK  3 active torsions:
REMARK  status: ('A' for Active; 'I' for Inactive)
REMARK    1  A    between atoms: O_2  and  C_3 
REMARK       I    between atoms: N_10  and  C_11 
REMARK    2  A    between atoms: C_11  and  C_13 
REMARK    3  A    between atoms: C_15  and  N_16 
ROOT
HETATM    1  C   UNL     1       3.539  12.644  22.291  0.00  0.00     0.140 A 
HETATM    2  N   UNL     1       2.211  12.502  22.517  0.00  0.00    -0.212 NA
HETATM    3  C   UNL     1       1.616  13.482  23.193  0.00  0.00     0.200 A 
HETATM    4  N   UNL     1       2.220  14.576  23.648  0.00  0.00    -0.218 NA
HETATM    5  C   UNL     1       3.530  14.714  23.428  0.00  0.00     0.073 A 
HETATM    6  C   UNL     1       4.142  15.896  23.830  0.00  0.00     0.033 A 
HETATM    7  C   UNL     1       5.496  16.149  23.593  0.00  0.00     0.009 A 
HETATM    8  C   UNL     1       6.284  15.171  23.003  0.00  0.00    -0.061 A 
HETATM    9  C   UNL     1       7.696  15.436  22.578  0.00  0.00     0.048 C 
HETATM   10  C   UNL     1       5.688  13.957  22.656  0.00  0.00     0.023 A 
HETATM   11  C   UNL     1       4.290  13.734  22.783  0.00  0.00     0.028 A 
ENDROOT
BRANCH   1  12
HETATM   12  C   UNL     1       4.178  11.621  21.359  0.00  0.00     0.274 C 
HETATM   13  N   UNL     1       4.859  10.505  21.825  0.00  0.00    -0.338 N 
HETATM   14  C   UNL     1       5.434   9.590  20.838  0.00  0.00     0.165 A 
HETATM   15  C   UNL     1       5.150  10.089  23.199  0.00  0.00     0.165 A 
HETATM   16  C   UNL     1       6.220   8.626  21.657  0.00  0.00    -0.030 A 
HETATM   17  C   UNL     1       6.085   8.926  23.012  0.00  0.00    -0.032 A 
HETATM   18  C   UNL     1       7.047   7.604  21.220  0.00  0.00     0.046 A 
HETATM   19  C   UNL     1       6.796   8.224  23.964  0.00  0.00     0.012 A 
HETATM   20  C   UNL     1       7.682   7.221  23.531  0.00  0.00     0.037 A 
HETATM   21  C   UNL     1       7.816   6.924  22.165  0.00  0.00     0.068 A 
HETATM   22  O   UNL     1       4.082  11.753  20.135  0.00  0.00    -0.266 OA
BRANCH  21  23
HETATM   23  O   UNL     1       8.661   5.972  21.656  0.00  0.00    -0.356 OA
HETATM   24  C   UNL     1       8.629   4.723  22.338  0.00  0.00     0.210 C 
ENDBRANCH  21  23
ENDBRANCH   1  12
BRANCH   3  25
HETATM   25  N   UNL     1       0.276  13.354  23.491  0.00  0.00    -0.271 NA
HETATM   26  H   UNL     1      -0.097  14.229  23.825  0.00  0.00     0.127 HD
HETATM   27  H   UNL     1      -0.199  12.928  22.704  0.00  0.00     0.127 HD
ENDBRANCH   3  25
TORSDOF 3
ENDMDL
MODEL 5
REMARK VINA RESULT:    -7.852      1.996      2.651
REMARK INTER + INTRA:          -9.423
REMARK INTER:                  -8.868
REMARK INTRA:                  -0.554
REMARK UNBOUND:                -0.423
REMARK  3 active torsions:
REMARK  status: ('A' for Active; 'I' for Inactive)
REMARK    1  A    between atoms: O_2  and  C_3 
REMARK       I    between atoms: N_10  and  C_11 
REMARK    2  A    between atoms: C_11  and  C_13 
REMARK    3  A    between atoms: C_15  and  N_16 
ROOT
HETATM    1  C   UNL     1       8.868  13.068  22.708  0.00  0.00     0.140 A 
HETATM    2  N   UNL     1       9.909  12.350  23.194  0.00  0.00    -0.212 NA
HETATM    3  C   UNL     1      10.159  12.475  24.495  0.00  0.00     0.200 A 
HETATM    4  N   UNL     1       9.468  13.235  25.340  0.00  0.00    -0.218 NA
HETATM    5  C   UNL     1       8.444  13.945  24.860  0.00  0.00     0.073 A 
HETATM    6  C   UNL     1       7.672  14.672  25.758  0.00  0.00     0.033 A 
HETATM    7  C   UNL     1       6.550  15.401  25.353  0.00  0.00     0.009 A 
HETATM    8  C   UNL     1       6.226  15.470  24.005  0.00  0.00    -0.061 A 
HETATM    9  C   UNL     1       4.954  16.097  23.523  0.00  0.00     0.048 C 
HETATM   10  C   UNL     1       7.037  14.794  23.092  0.00  0.00     0.023 A 
HETATM   11  C   UNL     1       8.107  13.953  23.504  0.00  0.00     0.028 A 
ENDROOT
BRANCH   1  12
HETATM   12  C   UNL     1       8.464  12.781  21.267  0.00  0.00     0.274 C 
HETATM   13  N   UNL     1       7.490  11.851  20.931  0.00  0.00    -0.338 N 
HETATM   14  C   UNL     1       7.185  11.658  19.513  0.00  0.00     0.165 A 
HETATM   15  C   UNL     1       6.709  10.958  21.791  0.00  0.00     0.165 A 
HETATM   16  C   UNL     1       6.250  10.499  19.501  0.00  0.00    -0.030 A 
HETATM   17  C   UNL     1       5.997  10.073  20.805  0.00  0.00    -0.032 A 
HETATM   18  C   UNL     1       5.723   9.833  18.406  0.00  0.00     0.046 A 
HETATM   19  C   UNL     1       5.227   8.953  21.044  0.00  0.00     0.012 A 
HETATM   20  C   UNL     1       4.732   8.235  19.941  0.00  0.00     0.037 A 
HETATM   21  C   UNL     1       4.991   8.666  18.630  0.00  0.00     0.068 A 
HETATM   22  O   UNL     1       8.991  13.405  20.341  0.00  0.00    -0.266 OA
BRANCH  21  23
HETATM   23  O   UNL     1       4.558   8.023  17.500  0.00  0.00    -0.356 OA
HETATM   24  C   UNL     1       4.276   8.880  16.398  0.00  0.00     0.210 C 
ENDBRANCH  21  23
ENDBRANCH   1  12
BRANCH   3  25
HETATM   25  N   UNL     1      11.242  11.803  25.022  0.00  0.00    -0.271 NA
HETATM   26  H   UNL     1      12.072  12.373  24.968  0.00  0.00     0.127 HD
HETATM   27  H   UNL     1      10.996  11.442  25.936  0.00  0.00     0.127 HD
ENDBRANCH   3  25
TORSDOF 3
ENDMDL
MODEL 6
REMARK VINA RESULT:    -7.838      4.218      5.737
REMARK INTER + INTRA:          -9.407
REMARK INTER:                  -8.873
REMARK INTRA:                  -0.534
REMARK UNBOUND:                -0.423
REMARK  3 active torsions:
REMARK  status: ('A' for Active; 'I' for Inactive)
REMARK    1  A    between atoms: O_2  and  C_3 
REMARK       I    between atoms: N_10  and  C_11 
REMARK    2  A    between atoms: C_11  and  C_13 
REMARK    3  A    between atoms: C_15  and  N_16 
ROOT
HETATM    1  C   UNL     1       9.024  14.223  24.872  0.00  0.00     0.140 A 
HETATM    2  N   UNL     1       9.587  13.333  25.725  0.00  0.00    -0.212 NA
HETATM    3  C   UNL     1      10.885  13.090  25.557  0.00  0.00     0.200 A 
HETATM    4  N   UNL     1      11.657  13.654  24.633  0.00  0.00    -0.218 NA
HETATM    5  C   UNL     1      11.102  14.527  23.789  0.00  0.00     0.073 A 
HETATM    6  C   UNL     1      11.927  15.176  22.879  0.00  0.00     0.033 A 
HETATM    7  C   UNL     1      11.443  16.144  21.995  0.00  0.00     0.009 A 
HETATM    8  C   UNL     1      10.083  16.425  21.963  0.00  0.00    -0.061 A 
HETATM    9  C   UNL     1       9.524  17.557  21.157  0.00  0.00     0.048 C 
HETATM   10  C   UNL     1       9.241  15.728  22.831  0.00  0.00     0.023 A 
HETATM   11  C   UNL     1       9.738  14.831  23.815  0.00  0.00     0.028 A 
ENDROOT
BRANCH   1  12
HETATM   12  C   UNL     1       7.592  14.643  25.181  0.00  0.00     0.274 C 
HETATM   13  N   UNL     1       6.498  14.135  24.494  0.00  0.00    -0.338 N 
HETATM   14  C   UNL     1       5.167  14.611  24.876  0.00  0.00     0.165 A 
HETATM   15  C   UNL     1       6.446  13.193  23.374  0.00  0.00     0.165 A 
HETATM   16  C   UNL     1       4.264  14.014  23.853  0.00  0.00    -0.030 A 
HETATM   17  C   UNL     1       4.998  13.224  22.969  0.00  0.00    -0.032 A 
HETATM   18  C   UNL     1       2.905  14.220  23.684  0.00  0.00     0.046 A 
HETATM   19  C   UNL     1       4.391  12.637  21.878  0.00  0.00     0.012 A 
HETATM   20  C   UNL     1       3.023  12.882  21.662  0.00  0.00     0.037 A 
HETATM   21  C   UNL     1       2.289  13.681  22.554  0.00  0.00     0.068 A 
HETATM   22  O   UNL     1       7.365  15.447  26.090  0.00  0.00    -0.266 OA
BRANCH  21  23
HETATM   23  O   UNL     1       0.959  13.980  22.414  0.00  0.00    -0.356 OA
HETATM   24  C   UNL     1       0.319  13.344  21.313  0.00  0.00     0.210 C 
ENDBRANCH  21  23
ENDBRANCH   1  12
BRANCH   3  25
HETATM   25  N   UNL     1      11.486  12.154  26.371  0.00  0.00    -0.271 NA
HETATM   26  H   UNL     1      10.807  11.732  26.987  0.00  0.00     0.127 HD
HETATM   27  H   UNL     1      12.036  11.523  25.801  0.00  0.00     0.127 HD
ENDBRANCH   3  25
TORSDOF 3
ENDMDL
MODEL 7
REMARK VINA RESULT:    -7.684      2.122      3.298
REMARK INTER + INTRA:          -9.231
REMARK INTER:                  -8.708
REMARK INTRA:                  -0.523
REMARK UNBOUND:                -0.423
REMARK  3 active torsions:
REMARK  status: ('A' for Active; 'I' for Inactive)
REMARK    1  A    between atoms: O_2  and  C_3 
REMARK       I    between atoms: N_10  and  C_11 
REMARK    2  A    between atoms: C_11  and  C_13 
REMARK    3  A    between atoms: C_15  and  N_16 
ROOT
HETATM    1  C   UNL     1       4.987  12.450  23.078  0.00  0.00     0.140 A 
HETATM    2  N   UNL     1       3.740  12.538  23.601  0.00  0.00    -0.212 NA
HETATM    3  C   UNL     1       3.355  13.744  24.014  0.00  0.00     0.200 A 
HETATM    4  N   UNL     1       4.090  14.850  23.944  0.00  0.00    -0.218 NA
HETATM    5  C   UNL     1       5.321  14.761  23.433  0.00  0.00     0.073 A 
HETATM    6  C   UNL     1       6.055  15.931  23.285  0.00  0.00     0.033 A 
HETATM    7  C   UNL     1       7.330  15.941  22.710  0.00  0.00     0.009 A 
HETATM    8  C   UNL     1       7.923  14.743  22.337  0.00  0.00    -0.061 A 
HETATM    9  C   UNL     1       9.212  14.697  21.575  0.00  0.00     0.048 C 
HETATM   10  C   UNL     1       7.215  13.558  22.544  0.00  0.00     0.023 A 
HETATM   11  C   UNL     1       5.874  13.547  23.016  0.00  0.00     0.028 A 
ENDROOT
BRANCH   1  12
HETATM   12  C   UNL     1       5.357  11.118  22.435  0.00  0.00     0.274 C 
HETATM   13  N   UNL     1       5.250  10.890  21.070  0.00  0.00    -0.338 N 
HETATM   14  C   UNL     1       5.633   9.571  20.563  0.00  0.00     0.165 A 
HETATM   15  C   UNL     1       4.759  11.769  20.006  0.00  0.00     0.165 A 
HETATM   16  C   UNL     1       5.241   9.610  19.127  0.00  0.00    -0.030 A 
HETATM   17  C   UNL     1       4.710  10.860  18.809  0.00  0.00    -0.032 A 
HETATM   18  C   UNL     1       5.291   8.585  18.196  0.00  0.00     0.046 A 
HETATM   19  C   UNL     1       4.192  11.107  17.554  0.00  0.00     0.012 A 
HETATM   20  C   UNL     1       4.184  10.060  16.616  0.00  0.00     0.037 A 
HETATM   21  C   UNL     1       4.719   8.802  16.942  0.00  0.00     0.068 A 
HETATM   22  O   UNL     1       5.794  10.196  23.129  0.00  0.00    -0.266 OA
BRANCH  21  23
HETATM   23  O   UNL     1       4.743   7.725  16.095  0.00  0.00    -0.356 OA
HETATM   24  C   UNL     1       3.494   7.057  15.946  0.00  0.00     0.210 C 
ENDBRANCH  21  23
ENDBRANCH   1  12
BRANCH   3  25
HETATM   25  N   UNL     1       2.113  13.869  24.599  0.00  0.00    -0.271 NA
HETATM   26  H   UNL     1       1.854  13.013  25.065  0.00  0.00     0.127 HD
HETATM   27  H   UNL     1       2.093  14.714  25.157  0.00  0.00     0.127 HD
ENDBRANCH   3  25
TORSDOF 3
ENDMDL
MODEL 8
REMARK VINA RESULT:    -7.596      4.422      5.754
REMARK INTER + INTRA:          -9.129
REMARK INTER:                  -8.706
REMARK INTRA:                  -0.423
REMARK UNBOUND:                -0.423
REMARK  3 active torsions:
REMARK  status: ('A' for Active; 'I' for Inactive)
REMARK    1  A    between atoms: O_2  and  C_3 
REMARK       I    between atoms: N_10  and  C_11 
REMARK    2  A    between atoms: C_11  and  C_13 
REMARK    3  A    between atoms: C_15  and  N_16 
ROOT
HETATM    1  C   UNL     1       4.567  12.213  22.117  0.00  0.00     0.140 A 
HETATM    2  N   UNL     1       5.258  11.402  21.280  0.00  0.00    -0.212 NA
HETATM    3  C   UNL     1       6.453  11.836  20.888  0.00  0.00     0.200 A 
HETATM    4  N   UNL     1       7.012  12.984  21.258  0.00  0.00    -0.218 NA
HETATM    5  C   UNL     1       6.329  13.785  22.079  0.00  0.00     0.073 A 
HETATM    6  C   UNL     1       6.948  14.944  22.531  0.00  0.00     0.033 A 
HETATM    7  C   UNL     1       6.330  15.814  23.434  0.00  0.00     0.009 A 
HETATM    8  C   UNL     1       5.028  15.563  23.847  0.00  0.00    -0.061 A 
HETATM    9  C   UNL     1       4.368  16.362  24.928  0.00  0.00     0.048 C 
HETATM   10  C   UNL     1       4.379  14.434  23.345  0.00  0.00     0.023 A 
HETATM   11  C   UNL     1       5.038  13.481  22.522  0.00  0.00     0.028 A 
ENDROOT
BRANCH   1  12
HETATM   12  C   UNL     1       3.288  11.636  22.713  0.00  0.00     0.274 C 
HETATM   13  N   UNL     1       3.295  10.676  23.716  0.00  0.00    -0.338 N 
HETATM   14  C   UNL     1       2.006  10.193  24.213  0.00  0.00     0.165 A 
HETATM   15  C   UNL     1       4.424  10.002  24.363  0.00  0.00     0.165 A 
HETATM   16  C   UNL     1       2.369   9.078  25.131  0.00  0.00    -0.030 A 
HETATM   17  C   UNL     1       3.756   8.944  25.197  0.00  0.00    -0.032 A 
HETATM   18  C   UNL     1       1.524   8.207  25.798  0.00  0.00     0.046 A 
HETATM   19  C   UNL     1       4.331   7.916  25.917  0.00  0.00     0.012 A 
HETATM   20  C   UNL     1       3.485   6.991  26.553  0.00  0.00     0.037 A 
HETATM   21  C   UNL     1       2.089   7.129  26.482  0.00  0.00     0.068 A 
HETATM   22  O   UNL     1       2.188  12.038  22.324  0.00  0.00    -0.266 OA
BRANCH  21  23
HETATM   23  O   UNL     1       1.193   6.270  27.062  0.00  0.00    -0.356 OA
HETATM   24  C   UNL     1      -0.138   6.769  27.150  0.00  0.00     0.210 C 
ENDBRANCH  21  23
ENDBRANCH   1  12
BRANCH   3  25
HETATM   25  N   UNL     1       7.169  11.065  19.996  0.00  0.00    -0.271 NA
HETATM   26  H   UNL     1       6.741  10.158  19.890  0.00  0.00     0.127 HD
HETATM   27  H   UNL     1       7.323  11.597  19.148  0.00  0.00     0.127 HD
ENDBRANCH   3  25
TORSDOF 3
ENDMDL
MODEL 9
REMARK VINA RESULT:    -7.497      3.283      5.593
REMARK INTER + INTRA:          -9.017
REMARK INTER:                  -8.643
REMARK INTRA:                  -0.373
REMARK UNBOUND:                -0.423
REMARK  3 active torsions:
REMARK  status: ('A' for Active; 'I' for Inactive)
REMARK    1  A    between atoms: O_2  and  C_3 
REMARK       I    between atoms: N_10  and  C_11 
REMARK    2  A    between atoms: C_11  and  C_13 
REMARK    3  A    between atoms: C_15  and  N_16 
ROOT
HETATM    1  C   UNL     1       7.882  12.581  21.922  0.00  0.00     0.140 A 
HETATM    2  N   UNL     1       8.373  13.792  21.565  0.00  0.00    -0.212 NA
HETATM    3  C   UNL     1       9.632  14.048  21.915  0.00  0.00     0.200 A 
HETATM    4  N   UNL     1      10.430  13.212  22.573  0.00  0.00    -0.218 NA
HETATM    5  C   UNL     1       9.944  12.020  22.928  0.00  0.00     0.073 A 
HETATM    6  C   UNL     1      10.805  11.117  23.540  0.00  0.00     0.033 A 
HETATM    7  C   UNL     1      10.398   9.829  23.898  0.00  0.00     0.009 A 
HETATM    8  C   UNL     1       9.076   9.449  23.708  0.00  0.00    -0.061 A 
HETATM    9  C   UNL     1       8.615   8.040  23.921  0.00  0.00     0.048 C 
HETATM   10  C   UNL     1       8.192  10.375  23.153  0.00  0.00     0.023 A 
HETATM   11  C   UNL     1       8.622  11.644  22.676  0.00  0.00     0.028 A 
ENDROOT
BRANCH   1  12
HETATM   12  C   UNL     1       6.513  12.215  21.360  0.00  0.00     0.274 C 
HETATM   13  N   UNL     1       5.339  12.810  21.800  0.00  0.00    -0.338 N 
HETATM   14  C   UNL     1       4.081  12.379  21.189  0.00  0.00     0.165 A 
HETATM   15  C   UNL     1       5.128  13.810  22.849  0.00  0.00     0.165 A 
HETATM   16  C   UNL     1       3.035  13.070  21.993  0.00  0.00    -0.030 A 
HETATM   17  C   UNL     1       3.631  13.869  22.968  0.00  0.00    -0.032 A 
HETATM   18  C   UNL     1       1.659  12.938  21.905  0.00  0.00     0.046 A 
HETATM   19  C   UNL     1       2.861  14.540  23.896  0.00  0.00     0.012 A 
HETATM   20  C   UNL     1       1.465  14.372  23.854  0.00  0.00     0.037 A 
HETATM   21  C   UNL     1       0.870  13.564  22.871  0.00  0.00     0.068 A 
HETATM   22  O   UNL     1       6.419  11.377  20.459  0.00  0.00    -0.266 OA
BRANCH  21  23
HETATM   23  O   UNL     1      -0.477  13.337  22.763  0.00  0.00    -0.356 OA
HETATM   24  C   UNL     1      -1.035  12.557  23.816  0.00  0.00     0.210 C 
ENDBRANCH  21  23
ENDBRANCH   1  12
BRANCH   3  25
HETATM   25  N   UNL     1      10.155  15.288  21.617  0.00  0.00    -0.271 NA
HETATM   26  H   UNL     1       9.511  15.816  21.047  0.00  0.00     0.127 HD
HETATM   27  H   UNL     1      10.473  15.729  22.471  0.00  0.00     0.127 HD
ENDBRANCH   3  25
TORSDOF 3
ENDMDL
