MODEL 1
REMARK VINA RESULT:    -8.359      0.000      0.000
REMARK INTER + INTRA:         -10.283
REMARK INTER:                 -10.467
REMARK INTRA:                   0.184
REMARK UNBOUND:                -0.458
REMARK  3 active torsions:
REMARK  status: ('A' for Active; 'I' for Inactive)
REMARK       I    between atoms: C_2  and  N_3 
REMARK    1  A    between atoms: C_2  and  C_26 
REMARK    2  A    between atoms: N_3  and  C_4 
REMARK    3  A    between atoms: C_16  and  C_17 
ROOT
HETATM    1  C   UNL     1      -0.814  16.102  22.665  0.00  0.00     0.153 A 
HETATM    2  C   UNL     1      -1.944  15.483  21.875  0.00  0.00    -0.020 A 
HETATM    3  C   UNL     1      -2.262  15.728  20.542  0.00  0.00     0.010 A 
HETATM    4  C   UNL     1      -3.385  15.107  20.006  0.00  0.00     0.001 A 
HETATM    5  C   UNL     1      -4.183  14.287  20.809  0.00  0.00     0.001 A 
HETATM    6  C   UNL     1      -3.857  14.060  22.153  0.00  0.00     0.013 A 
HETATM    7  C   UNL     1      -2.710  14.621  22.694  0.00  0.00    -0.016 A 
HETATM    8  C   UNL     1      -2.090  14.541  24.024  0.00  0.00    -0.003 A 
HETATM    9  C   UNL     1      -0.971  15.424  24.015  0.00  0.00    -0.019 A 
HETATM   10  C   UNL     1      -0.171  15.636  25.131  0.00  0.00     0.010 A 
HETATM   11  C   UNL     1      -0.474  14.941  26.293  0.00  0.00     0.002 A 
HETATM   12  C   UNL     1      -1.552  14.041  26.321  0.00  0.00     0.016 A 
HETATM   13  C   UNL     1      -2.378  13.813  25.192  0.00  0.00     0.022 A 
ENDROOT
BRANCH   1  14
HETATM   14  N   UNL     1       0.467  15.828  22.058  0.00  0.00    -0.344 N 
HETATM   15  C   UNL     1       1.539  16.668  22.252  0.00  0.00     0.252 C 
HETATM   16  O   UNL     1       1.485  17.694  22.921  0.00  0.00    -0.268 OA
HETATM   17  H   UNL     1       0.526  15.023  21.452  0.00  0.00     0.163 HD
BRANCH  15  18
HETATM   18  C   UNL     1       2.802  16.309  21.558  0.00  0.00     0.034 A 
HETATM   19  C   UNL     1       2.926  16.345  20.170  0.00  0.00     0.036 A 
HETATM   20  C   UNL     1       4.143  15.977  19.621  0.00  0.00     0.117 A 
HETATM   21  N   UNL     1       5.210  15.589  20.351  0.00  0.00    -0.273 NA
HETATM   22  C   UNL     1       5.055  15.548  21.692  0.00  0.00     0.117 A 
HETATM   23  C   UNL     1       3.882  15.890  22.336  0.00  0.00     0.036 A 
ENDBRANCH  15  18
ENDBRANCH   1  14
BRANCH  13  24
HETATM   24  C   UNL     1      -3.452  12.814  25.292  0.00  0.00     0.140 C 
HETATM   25  N   UNL     1      -4.134  12.291  24.208  0.00  0.00    -0.337 N 
HETATM   26  C   UNL     1      -4.984  11.311  24.652  0.00  0.00     0.080 A 
HETATM   27  H   UNL     1      -3.973  12.540  23.243  0.00  0.00     0.167 HD
HETATM   28  C   UNL     1      -5.849  10.438  24.017  0.00  0.00     0.148 A 
HETATM   29  C   UNL     1      -4.806  11.301  26.024  0.00  0.00     0.088 A 
HETATM   30  N   UNL     1      -6.499   9.515  24.771  0.00  0.00    -0.271 NA
HETATM   31  C   UNL     1      -6.289   9.483  26.110  0.00  0.00     0.118 A 
HETATM   32  C   UNL     1      -5.464  10.353  26.803  0.00  0.00     0.053 A 
HETATM   33  N   UNL     1      -3.931  12.284  26.401  0.00  0.00    -0.228 NA
ENDBRANCH  13  24
TORSDOF 3
ENDMDL
MODEL 2
REMARK VINA RESULT:    -8.263      4.344      6.329
REMARK INTER + INTRA:         -10.170
REMARK INTER:                  -9.297
REMARK INTRA:                  -0.873
REMARK UNBOUND:                -0.458
REMARK  3 active torsions:
REMARK  status: ('A' for Active; 'I' for Inactive)
REMARK       I    between atoms: C_2  and  N_3 
REMARK    1  A    between atoms: C_2  and  C_26 
REMARK    2  A    between atoms: N_3  and  C_4 
REMARK    3  A    between atoms: C_16  and  C_17 
ROOT
HETATM    1  C   UNL     1      -2.164  13.408  24.690  0.00  0.00     0.153 A 
HETATM    2  C   UNL     1      -2.983  12.412  25.479  0.00  0.00    -0.020 A 
HETATM    3  C   UNL     1      -4.321  12.533  25.841  0.00  0.00     0.010 A 
HETATM    4  C   UNL     1      -4.886  11.535  26.629  0.00  0.00     0.001 A 
HETATM    5  C   UNL     1      -4.105  10.461  27.065  0.00  0.00     0.001 A 
HETATM    6  C   UNL     1      -2.754  10.360  26.702  0.00  0.00     0.013 A 
HETATM    7  C   UNL     1      -2.186  11.312  25.870  0.00  0.00    -0.016 A 
HETATM    8  C   UNL     1      -0.841  11.459  25.293  0.00  0.00    -0.003 A 
HETATM    9  C   UNL     1      -0.821  12.705  24.600  0.00  0.00    -0.019 A 
HETATM   10  C   UNL     1       0.313  13.193  23.965  0.00  0.00     0.010 A 
HETATM   11  C   UNL     1       1.465  12.421  23.999  0.00  0.00     0.002 A 
HETATM   12  C   UNL     1       1.464  11.175  24.649  0.00  0.00     0.016 A 
HETATM   13  C   UNL     1       0.316  10.661  25.301  0.00  0.00     0.022 A 
ENDROOT
BRANCH   1  14
HETATM   14  N   UNL     1      -2.743  13.655  23.391  0.00  0.00    -0.344 N 
HETATM   15  C   UNL     1      -2.473  14.816  22.702  0.00  0.00     0.252 C 
HETATM   16  O   UNL     1      -1.755  15.710  23.135  0.00  0.00    -0.268 OA
HETATM   17  H   UNL     1      -3.387  12.964  23.035  0.00  0.00     0.163 HD
BRANCH  15  18
HETATM   18  C   UNL     1      -3.144  14.982  21.387  0.00  0.00     0.034 A 
HETATM   19  C   UNL     1      -3.005  16.139  20.622  0.00  0.00     0.036 A 
HETATM   20  C   UNL     1      -3.684  16.199  19.416  0.00  0.00     0.117 A 
HETATM   21  N   UNL     1      -4.466  15.206  18.943  0.00  0.00    -0.273 NA
HETATM   22  C   UNL     1      -4.594  14.104  19.714  0.00  0.00     0.117 A 
HETATM   23  C   UNL     1      -3.963  13.948  20.933  0.00  0.00     0.036 A 
ENDBRANCH  15  18
ENDBRANCH   1  14
BRANCH  13  24
HETATM   24  C   UNL     1       0.387   9.325  25.910  0.00  0.00     0.140 C 
HETATM   25  N   UNL     1      -0.161   8.184  25.352  0.00  0.00    -0.337 N 
HETATM   26  C   UNL     1       0.186   7.104  26.123  0.00  0.00     0.080 A 
HETATM   27  H   UNL     1      -0.668   8.148  24.480  0.00  0.00     0.167 HD
HETATM   28  C   UNL     1      -0.035   5.743  26.015  0.00  0.00     0.148 A 
HETATM   29  C   UNL     1       0.920   7.649  27.161  0.00  0.00     0.088 A 
HETATM   30  N   UNL     1       0.533   4.924  26.935  0.00  0.00    -0.271 NA
HETATM   31  C   UNL     1       1.286   5.460  27.928  0.00  0.00     0.118 A 
HETATM   32  C   UNL     1       1.511   6.815  28.107  0.00  0.00     0.053 A 
HETATM   33  N   UNL     1       0.957   9.014  27.058  0.00  0.00    -0.228 NA
ENDBRANCH  13  24
TORSDOF 3
ENDMDL
MODEL 3
REMARK VINA RESULT:    -8.221      4.103      5.646
REMARK INTER + INTRA:         -10.120
REMARK INTER:                  -9.253
REMARK INTRA:                  -0.867
REMARK UNBOUND:                -0.458
REMARK  3 active torsions:
REMARK  status: ('A' for Active; 'I' for Inactive)
REMARK       I    between atoms: C_2  and  N_3 
REMARK    1  A    between atoms: C_2  and  C_26 
REMARK    2  A    between atoms: N_3  and  C_4 
REMARK    3  A    between atoms: C_16  and  C_17 
ROOT
HETATM    1  C   UNL     1      -1.607  13.942  24.550  0.00  0.00     0.153 A 
HETATM    2  C   UNL     1      -2.575  12.862  24.977  0.00  0.00    -0.020 A 
HETATM    3  C   UNL     1      -3.955  12.984  25.107  0.00  0.00     0.010 A 
HETATM    4  C   UNL     1      -4.673  11.889  25.579  0.00  0.00     0.001 A 
HETATM    5  C   UNL     1      -4.005  10.716  25.940  0.00  0.00     0.001 A 
HETATM    6  C   UNL     1      -2.612  10.614  25.815  0.00  0.00     0.013 A 
HETATM    7  C   UNL     1      -1.882  11.671  25.293  0.00  0.00    -0.016 A 
HETATM    8  C   UNL     1      -0.452  11.852  25.006  0.00  0.00    -0.003 A 
HETATM    9  C   UNL     1      -0.282  13.200  24.574  0.00  0.00    -0.019 A 
HETATM   10  C   UNL     1       0.959  13.737  24.257  0.00  0.00     0.010 A 
HETATM   11  C   UNL     1       2.071  12.914  24.354  0.00  0.00     0.002 A 
HETATM   12  C   UNL     1       1.929  11.573  24.747  0.00  0.00     0.016 A 
HETATM   13  C   UNL     1       0.671  11.008  25.074  0.00  0.00     0.022 A 
ENDROOT
BRANCH   1  14
HETATM   14  N   UNL     1      -1.929  14.449  23.237  0.00  0.00    -0.344 N 
HETATM   15  C   UNL     1      -1.499  15.692  22.830  0.00  0.00     0.252 C 
HETATM   16  O   UNL     1      -0.844  16.448  23.539  0.00  0.00    -0.268 OA
HETATM   17  H   UNL     1      -2.519  13.875  22.653  0.00  0.00     0.163 HD
BRANCH  15  18
HETATM   18  C   UNL     1      -1.910  16.129  21.472  0.00  0.00     0.034 A 
HETATM   19  C   UNL     1      -1.113  16.955  20.682  0.00  0.00     0.036 A 
HETATM   20  C   UNL     1      -1.595  17.316  19.434  0.00  0.00     0.117 A 
HETATM   21  N   UNL     1      -2.786  16.913  18.944  0.00  0.00    -0.273 NA
HETATM   22  C   UNL     1      -3.544  16.126  19.738  0.00  0.00     0.117 A 
HETATM   23  C   UNL     1      -3.156  15.715  20.999  0.00  0.00     0.036 A 
ENDBRANCH  15  18
ENDBRANCH   1  14
BRANCH  13  24
HETATM   24  C   UNL     1       0.606   9.582  25.424  0.00  0.00     0.140 C 
HETATM   25  N   UNL     1       1.005   9.059  26.641  0.00  0.00    -0.337 N 
HETATM   26  C   UNL     1       0.705   7.722  26.667  0.00  0.00     0.080 A 
HETATM   27  H   UNL     1       1.385   9.594  27.408  0.00  0.00     0.167 HD
HETATM   28  C   UNL     1       0.829   6.733  27.627  0.00  0.00     0.148 A 
HETATM   29  C   UNL     1       0.153   7.472  25.423  0.00  0.00     0.088 A 
HETATM   30  N   UNL     1       0.346   5.498  27.344  0.00  0.00    -0.271 NA
HETATM   31  C   UNL     1      -0.231   5.269  26.138  0.00  0.00     0.118 A 
HETATM   32  C   UNL     1      -0.351   6.208  25.127  0.00  0.00     0.053 A 
HETATM   33  N   UNL     1       0.182   8.602  24.650  0.00  0.00    -0.228 NA
ENDBRANCH  13  24
TORSDOF 3
ENDMDL
MODEL 4
REMARK VINA RESULT:    -8.203      3.713      8.433
REMARK INTER + INTRA:         -10.099
REMARK INTER:                  -9.292
REMARK INTRA:                  -0.807
REMARK UNBOUND:                -0.458
REMARK  3 active torsions:
REMARK  status: ('A' for Active; 'I' for Inactive)
REMARK       I    between atoms: C_2  and  N_3 
REMARK    1  A    between atoms: C_2  and  C_26 
REMARK    2  A    between atoms: N_3  and  C_4 
REMARK    3  A    between atoms: C_16  and  C_17 
ROOT
HETATM    1  C   UNL     1      -2.364  11.715  25.318  0.00  0.00     0.153 A 
HETATM    2  C   UNL     1      -1.942  13.094  25.770  0.00  0.00    -0.020 A 
HETATM    3  C   UNL     1      -1.962  13.588  27.071  0.00  0.00     0.010 A 
HETATM    4  C   UNL     1      -1.595  14.913  27.281  0.00  0.00     0.001 A 
HETATM    5  C   UNL     1      -1.249  15.724  26.196  0.00  0.00     0.001 A 
HETATM    6  C   UNL     1      -1.246  15.215  24.889  0.00  0.00     0.013 A 
HETATM    7  C   UNL     1      -1.552  13.882  24.663  0.00  0.00    -0.016 A 
HETATM    8  C   UNL     1      -1.596  13.061  23.444  0.00  0.00    -0.003 A 
HETATM    9  C   UNL     1      -2.085  11.777  23.826  0.00  0.00    -0.019 A 
HETATM   10  C   UNL     1      -2.299  10.752  22.914  0.00  0.00     0.010 A 
HETATM   11  C   UNL     1      -2.005  10.993  21.580  0.00  0.00     0.002 A 
HETATM   12  C   UNL     1      -1.493  12.238  21.181  0.00  0.00     0.016 A 
HETATM   13  C   UNL     1      -1.269  13.295  22.098  0.00  0.00     0.022 A 
ENDROOT
BRANCH   1  14
HETATM   14  N   UNL     1      -1.595  10.685  25.978  0.00  0.00    -0.344 N 
HETATM   15  C   UNL     1      -2.003  10.153  27.179  0.00  0.00     0.252 C 
HETATM   16  O   UNL     1      -3.013  10.515  27.773  0.00  0.00    -0.268 OA
HETATM   17  H   UNL     1      -0.726  10.410  25.543  0.00  0.00     0.163 HD
BRANCH  15  18
HETATM   18  C   UNL     1      -1.124   9.121  27.785  0.00  0.00     0.034 A 
HETATM   19  C   UNL     1      -0.729   7.978  27.091  0.00  0.00     0.036 A 
HETATM   20  C   UNL     1       0.081   7.070  27.752  0.00  0.00     0.117 A 
HETATM   21  N   UNL     1       0.509   7.231  29.022  0.00  0.00    -0.273 NA
HETATM   22  C   UNL     1       0.098   8.339  29.674  0.00  0.00     0.117 A 
HETATM   23  C   UNL     1      -0.715   9.302  29.106  0.00  0.00     0.036 A 
ENDBRANCH  15  18
ENDBRANCH   1  14
BRANCH  13  24
HETATM   24  C   UNL     1      -0.679  14.548  21.603  0.00  0.00     0.140 C 
HETATM   25  N   UNL     1       0.673  14.838  21.633  0.00  0.00    -0.337 N 
HETATM   26  C   UNL     1       0.883  16.033  20.995  0.00  0.00     0.080 A 
HETATM   27  H   UNL     1       1.391  14.231  21.999  0.00  0.00     0.167 HD
HETATM   28  C   UNL     1       2.014  16.766  20.687  0.00  0.00     0.148 A 
HETATM   29  C   UNL     1      -0.384  16.448  20.622  0.00  0.00     0.088 A 
HETATM   30  N   UNL     1       1.868  17.899  19.955  0.00  0.00    -0.271 NA
HETATM   31  C   UNL     1       0.629  18.279  19.558  0.00  0.00     0.118 A 
HETATM   32  C   UNL     1      -0.542  17.606  19.866  0.00  0.00     0.053 A 
HETATM   33  N   UNL     1      -1.330  15.569  21.079  0.00  0.00    -0.228 NA
ENDBRANCH  13  24
TORSDOF 3
ENDMDL
MODEL 5
REMARK VINA RESULT:    -8.163      4.439      7.694
REMARK INTER + INTRA:         -10.053
REMARK INTER:                  -9.274
REMARK INTRA:                  -0.779
REMARK UNBOUND:                -0.458
REMARK  3 active torsions:
REMARK  status: ('A' for Active; 'I' for Inactive)
REMARK       I    between atoms: C_2  and  N_3 
REMARK    1  A    between atoms: C_2  and  C_26 
REMARK    2  A    between atoms: N_3  and  C_4 
REMARK    3  A    between atoms: C_16  and  C_17 
ROOT
HETATM    1  C   UNL     1      -0.659  11.040  26.035  0.00  0.00     0.153 A 
HETATM    2  C   UNL     1       0.056  11.812  24.951  0.00  0.00    -0.020 A 
HETATM    3  C   UNL     1       1.430  11.883  24.745  0.00  0.00     0.010 A 
HETATM    4  C   UNL     1       1.905  12.703  23.727  0.00  0.00     0.001 A 
HETATM    5  C   UNL     1       1.011  13.458  22.961  0.00  0.00     0.001 A 
HETATM    6  C   UNL     1      -0.371  13.385  23.189  0.00  0.00     0.013 A 
HETATM    7  C   UNL     1      -0.870  12.530  24.159  0.00  0.00    -0.016 A 
HETATM    8  C   UNL     1      -2.235  12.208  24.599  0.00  0.00    -0.003 A 
HETATM    9  C   UNL     1      -2.116  11.331  25.717  0.00  0.00    -0.019 A 
HETATM   10  C   UNL     1      -3.215  10.855  26.420  0.00  0.00     0.010 A 
HETATM   11  C   UNL     1      -4.478  11.241  25.997  0.00  0.00     0.002 A 
HETATM   12  C   UNL     1      -4.626  12.079  24.880  0.00  0.00     0.016 A 
HETATM   13  C   UNL     1      -3.516  12.575  24.151  0.00  0.00     0.022 A 
ENDROOT
BRANCH   1  14
HETATM   14  N   UNL     1      -0.354   9.630  25.968  0.00  0.00    -0.344 N 
HETATM   15  C   UNL     1      -0.278   8.864  27.109  0.00  0.00     0.252 C 
HETATM   16  O   UNL     1      -0.442   9.312  28.238  0.00  0.00    -0.268 OA
HETATM   17  H   UNL     1      -0.154   9.246  25.056  0.00  0.00     0.163 HD
BRANCH  15  18
HETATM   18  C   UNL     1       0.071   7.432  26.929  0.00  0.00     0.034 A 
HETATM   19  C   UNL     1       0.836   6.729  27.859  0.00  0.00     0.036 A 
HETATM   20  C   UNL     1       1.117   5.400  27.589  0.00  0.00     0.117 A 
HETATM   21  N   UNL     1       0.694   4.751  26.484  0.00  0.00    -0.273 NA
HETATM   22  C   UNL     1      -0.031   5.462  25.594  0.00  0.00     0.117 A 
HETATM   23  C   UNL     1      -0.361   6.793  25.767  0.00  0.00     0.036 A 
ENDBRANCH  15  18
ENDBRANCH   1  14
BRANCH  13  24
HETATM   24  C   UNL     1      -3.764  13.402  22.962  0.00  0.00     0.140 C 
HETATM   25  N   UNL     1      -3.292  14.693  22.798  0.00  0.00    -0.337 N 
HETATM   26  C   UNL     1      -3.613  15.124  21.536  0.00  0.00     0.080 A 
HETATM   27  H   UNL     1      -2.738  15.200  23.472  0.00  0.00     0.167 HD
HETATM   28  C   UNL     1      -3.352  16.283  20.828  0.00  0.00     0.148 A 
HETATM   29  C   UNL     1      -4.312  14.066  20.982  0.00  0.00     0.088 A 
HETATM   30  N   UNL     1      -3.758  16.351  19.535  0.00  0.00    -0.271 NA
HETATM   31  C   UNL     1      -4.407  15.296  18.985  0.00  0.00     0.118 A 
HETATM   32  C   UNL     1      -4.727  14.126  19.655  0.00  0.00     0.053 A 
HETATM   33  N   UNL     1      -4.467  13.061  21.900  0.00  0.00    -0.228 NA
ENDBRANCH  13  24
TORSDOF 3
ENDMDL
MODEL 6
REMARK VINA RESULT:    -8.017      3.916      8.591
REMARK INTER + INTRA:          -9.881
REMARK INTER:                  -9.136
REMARK INTRA:                  -0.745
REMARK UNBOUND:                -0.458
REMARK  3 active torsions:
REMARK  status: ('A' for Active; 'I' for Inactive)
REMARK       I    between atoms: C_2  and  N_3 
REMARK    1  A    between atoms: C_2  and  C_26 
REMARK    2  A    between atoms: N_3  and  C_4 
REMARK    3  A    between atoms: C_16  and  C_17 
ROOT
HETATM    1  C   UNL     1      -3.001  14.639  21.023  0.00  0.00     0.153 A 
HETATM    2  C   UNL     1      -2.159  13.440  21.392  0.00  0.00    -0.020 A 
HETATM    3  C   UNL     1      -2.610  12.143  21.620  0.00  0.00     0.010 A 
HETATM    4  C   UNL     1      -1.685  11.181  22.014  0.00  0.00     0.001 A 
HETATM    5  C   UNL     1      -0.346  11.534  22.205  0.00  0.00     0.001 A 
HETATM    6  C   UNL     1       0.091  12.848  21.983  0.00  0.00     0.013 A 
HETATM    7  C   UNL     1      -0.802  13.809  21.533  0.00  0.00    -0.016 A 
HETATM    8  C   UNL     1      -0.646  15.228  21.180  0.00  0.00    -0.003 A 
HETATM    9  C   UNL     1      -1.949  15.727  20.885  0.00  0.00    -0.019 A 
HETATM   10  C   UNL     1      -2.188  17.054  20.551  0.00  0.00     0.010 A 
HETATM   11  C   UNL     1      -1.105  17.917  20.489  0.00  0.00     0.002 A 
HETATM   12  C   UNL     1       0.194  17.445  20.745  0.00  0.00     0.016 A 
HETATM   13  C   UNL     1       0.456  16.095  21.086  0.00  0.00     0.022 A 
ENDROOT
BRANCH   1  14
HETATM   14  N   UNL     1      -3.727  14.418  19.795  0.00  0.00    -0.344 N 
HETATM   15  C   UNL     1      -5.035  13.991  19.810  0.00  0.00     0.252 C 
HETATM   16  O   UNL     1      -5.660  13.757  20.838  0.00  0.00    -0.268 OA
HETATM   17  H   UNL     1      -3.219  14.544  18.931  0.00  0.00     0.163 HD
BRANCH  15  18
HETATM   18  C   UNL     1      -5.678  13.767  18.490  0.00  0.00     0.034 A 
HETATM   19  C   UNL     1      -6.798  12.950  18.337  0.00  0.00     0.036 A 
HETATM   20  C   UNL     1      -7.313  12.796  17.060  0.00  0.00     0.117 A 
HETATM   21  N   UNL     1      -6.796  13.389  15.964  0.00  0.00    -0.273 NA
HETATM   22  C   UNL     1      -5.702  14.161  16.141  0.00  0.00     0.117 A 
HETATM   23  C   UNL     1      -5.109  14.375  17.371  0.00  0.00     0.036 A 
ENDBRANCH  15  18
ENDBRANCH   1  14
BRANCH  13  24
HETATM   24  C   UNL     1       1.850  15.674  21.284  0.00  0.00     0.140 C 
HETATM   25  N   UNL     1       2.844  15.792  20.328  0.00  0.00    -0.337 N 
HETATM   26  C   UNL     1       4.038  15.408  20.882  0.00  0.00     0.080 A 
HETATM   27  H   UNL     1       2.718  16.171  19.401  0.00  0.00     0.167 HD
HETATM   28  C   UNL     1       5.340  15.375  20.417  0.00  0.00     0.148 A 
HETATM   29  C   UNL     1       3.709  15.031  22.172  0.00  0.00     0.088 A 
HETATM   30  N   UNL     1       6.321  15.005  21.277  0.00  0.00    -0.271 NA
HETATM   31  C   UNL     1       5.999  14.676  22.552  0.00  0.00     0.118 A 
HETATM   32  C   UNL     1       4.712  14.656  23.063  0.00  0.00     0.053 A 
HETATM   33  N   UNL     1       2.357  15.119  22.368  0.00  0.00    -0.228 NA
ENDBRANCH  13  24
TORSDOF 3
ENDMDL
MODEL 7
REMARK VINA RESULT:    -7.900      4.713      8.166
REMARK INTER + INTRA:          -9.743
REMARK INTER:                  -8.777
REMARK INTRA:                  -0.966
REMARK UNBOUND:                -0.458
REMARK  3 active torsions:
REMARK  status: ('A' for Active; 'I' for Inactive)
REMARK       I    between atoms: C_2  and  N_3 
REMARK    1  A    between atoms: C_2  and  C_26 
REMARK    2  A    between atoms: N_3  and  C_4 
REMARK    3  A    between atoms: C_16  and  C_17 
ROOT
HETATM    1  C   UNL     1      -1.509   9.495  25.743  0.00  0.00     0.153 A 
HETATM    2  C   UNL     1      -2.622  10.508  25.880  0.00  0.00    -0.020 A 
HETATM    3  C   UNL     1      -3.588  10.554  26.881  0.00  0.00     0.010 A 
HETATM    4  C   UNL     1      -4.576  11.530  26.801  0.00  0.00     0.001 A 
HETATM    5  C   UNL     1      -4.602  12.413  25.717  0.00  0.00     0.001 A 
HETATM    6  C   UNL     1      -3.628  12.345  24.711  0.00  0.00     0.013 A 
HETATM    7  C   UNL     1      -2.601  11.419  24.800  0.00  0.00    -0.016 A 
HETATM    8  C   UNL     1      -1.437  11.133  23.948  0.00  0.00    -0.003 A 
HETATM    9  C   UNL     1      -0.791   9.987  24.499  0.00  0.00    -0.019 A 
HETATM   10  C   UNL     1       0.329   9.406  23.919  0.00  0.00     0.010 A 
HETATM   11  C   UNL     1       0.843   9.982  22.767  0.00  0.00     0.002 A 
HETATM   12  C   UNL     1       0.244  11.129  22.221  0.00  0.00     0.016 A 
HETATM   13  C   UNL     1      -0.899  11.736  22.798  0.00  0.00     0.022 A 
ENDROOT
BRANCH   1  14
HETATM   14  N   UNL     1      -0.652   9.491  26.905  0.00  0.00    -0.344 N 
HETATM   15  C   UNL     1      -0.372   8.324  27.579  0.00  0.00     0.252 C 
HETATM   16  O   UNL     1      -0.830   7.232  27.261  0.00  0.00    -0.268 OA
HETATM   17  H   UNL     1      -0.308  10.384  27.227  0.00  0.00     0.163 HD
BRANCH  15  18
HETATM   18  C   UNL     1       0.497   8.437  28.778  0.00  0.00     0.034 A 
HETATM   19  C   UNL     1       0.033   8.955  29.986  0.00  0.00     0.036 A 
HETATM   20  C   UNL     1       0.929   9.030  31.041  0.00  0.00     0.117 A 
HETATM   21  N   UNL     1       2.215   8.631  30.964  0.00  0.00    -0.273 NA
HETATM   22  C   UNL     1       2.640   8.149  29.777  0.00  0.00     0.117 A 
HETATM   23  C   UNL     1       1.828   8.037  28.664  0.00  0.00     0.036 A 
ENDBRANCH  15  18
ENDBRANCH   1  14
BRANCH  13  24
HETATM   24  C   UNL     1      -1.428  12.966  22.192  0.00  0.00     0.140 C 
HETATM   25  N   UNL     1      -0.847  14.215  22.328  0.00  0.00    -0.337 N 
HETATM   26  C   UNL     1      -1.534  15.109  21.547  0.00  0.00     0.080 A 
HETATM   27  H   UNL     1      -0.010  14.413  22.856  0.00  0.00     0.167 HD
HETATM   28  C   UNL     1      -1.368  16.452  21.262  0.00  0.00     0.148 A 
HETATM   29  C   UNL     1      -2.549  14.358  20.981  0.00  0.00     0.088 A 
HETATM   30  N   UNL     1      -2.203  17.026  20.360  0.00  0.00    -0.271 NA
HETATM   31  C   UNL     1      -3.170  16.275  19.777  0.00  0.00     0.118 A 
HETATM   32  C   UNL     1      -3.406  14.938  20.050  0.00  0.00     0.053 A 
HETATM   33  N   UNL     1      -2.517  13.073  21.456  0.00  0.00    -0.228 NA
ENDBRANCH  13  24
TORSDOF 3
ENDMDL
MODEL 8
REMARK VINA RESULT:    -7.854      5.805      7.146
REMARK INTER + INTRA:          -9.690
REMARK INTER:                  -8.679
REMARK INTRA:                  -1.011
REMARK UNBOUND:                -0.458
REMARK  3 active torsions:
REMARK  status: ('A' for Active; 'I' for Inactive)
REMARK       I    between atoms: C_2  and  N_3 
REMARK    1  A    between atoms: C_2  and  C_26 
REMARK    2  A    between atoms: N_3  and  C_4 
REMARK    3  A    between atoms: C_16  and  C_17 
ROOT
HETATM    1  C   UNL     1      -0.586   9.965  23.976  0.00  0.00     0.153 A 
HETATM    2  C   UNL     1       0.500   8.960  24.283  0.00  0.00    -0.020 A 
HETATM    3  C   UNL     1       1.424   8.430  23.386  0.00  0.00     0.010 A 
HETATM    4  C   UNL     1       2.311   7.462  23.846  0.00  0.00     0.001 A 
HETATM    5  C   UNL     1       2.240   7.019  25.170  0.00  0.00     0.001 A 
HETATM    6  C   UNL     1       1.295   7.554  26.058  0.00  0.00     0.013 A 
HETATM    7  C   UNL     1       0.440   8.561  25.638  0.00  0.00    -0.016 A 
HETATM    8  C   UNL     1      -0.606   9.333  26.324  0.00  0.00    -0.003 A 
HETATM    9  C   UNL     1      -1.223  10.161  25.341  0.00  0.00    -0.019 A 
HETATM   10  C   UNL     1      -2.291  11.000  25.628  0.00  0.00     0.010 A 
HETATM   11  C   UNL     1      -2.759  11.040  26.933  0.00  0.00     0.002 A 
HETATM   12  C   UNL     1      -2.149  10.258  27.929  0.00  0.00     0.016 A 
HETATM   13  C   UNL     1      -1.058   9.396  27.653  0.00  0.00     0.022 A 
ENDROOT
BRANCH   1  14
HETATM   14  N   UNL     1      -0.037  11.190  23.445  0.00  0.00    -0.344 N 
HETATM   15  C   UNL     1      -0.552  11.765  22.306  0.00  0.00     0.252 C 
HETATM   16  O   UNL     1      -1.479  11.285  21.664  0.00  0.00    -0.268 OA
HETATM   17  H   UNL     1       0.767  11.577  23.918  0.00  0.00     0.163 HD
BRANCH  15  18
HETATM   18  C   UNL     1       0.106  13.008  21.830  0.00  0.00     0.034 A 
HETATM   19  C   UNL     1       1.350  12.998  21.200  0.00  0.00     0.036 A 
HETATM   20  C   UNL     1       1.883  14.215  20.806  0.00  0.00     0.117 A 
HETATM   21  N   UNL     1       1.268  15.401  20.996  0.00  0.00    -0.273 NA
HETATM   22  C   UNL     1       0.073  15.381  21.623  0.00  0.00     0.117 A 
HETATM   23  C   UNL     1      -0.542  14.222  22.059  0.00  0.00     0.036 A 
ENDBRANCH  15  18
ENDBRANCH   1  14
BRANCH  13  24
HETATM   24  C   UNL     1      -0.445   8.654  28.765  0.00  0.00     0.140 C 
HETATM   25  N   UNL     1       0.512   9.176  29.616  0.00  0.00    -0.337 N 
HETATM   26  C   UNL     1       0.779   8.257  30.598  0.00  0.00     0.080 A 
HETATM   27  H   UNL     1       0.893  10.110  29.563  0.00  0.00     0.167 HD
HETATM   28  C   UNL     1       1.592   8.262  31.716  0.00  0.00     0.148 A 
HETATM   29  C   UNL     1      -0.021   7.174  30.277  0.00  0.00     0.088 A 
HETATM   30  N   UNL     1       1.558   7.187  32.542  0.00  0.00    -0.271 NA
HETATM   31  C   UNL     1       0.741   6.146  32.245  0.00  0.00     0.118 A 
HETATM   32  C   UNL     1      -0.066   6.069  31.123  0.00  0.00     0.053 A 
HETATM   33  N   UNL     1      -0.694   7.405  29.107  0.00  0.00    -0.228 NA
ENDBRANCH  13  24
TORSDOF 3
ENDMDL
MODEL 9
REMARK VINA RESULT:    -7.668      5.171      7.209
REMARK INTER + INTRA:          -9.470
REMARK INTER:                  -9.012
REMARK INTRA:                  -0.458
REMARK UNBOUND:                -0.458
REMARK  3 active torsions:
REMARK  status: ('A' for Active; 'I' for Inactive)
REMARK       I    between atoms: C_2  and  N_3 
REMARK    1  A    between atoms: C_2  and  C_26 
REMARK    2  A    between atoms: N_3  and  C_4 
REMARK    3  A    between atoms: C_16  and  C_17 
ROOT
HETATM    1  C   UNL     1       0.827  11.108  24.987  0.00  0.00     0.153 A 
HETATM    2  C   UNL     1       1.390  12.408  24.462  0.00  0.00    -0.020 A 
HETATM    3  C   UNL     1       2.666  12.917  24.689  0.00  0.00     0.010 A 
HETATM    4  C   UNL     1       2.980  14.169  24.172  0.00  0.00     0.001 A 
HETATM    5  C   UNL     1       2.015  14.900  23.472  0.00  0.00     0.001 A 
HETATM    6  C   UNL     1       0.730  14.379  23.262  0.00  0.00     0.013 A 
HETATM    7  C   UNL     1       0.413  13.109  23.718  0.00  0.00    -0.016 A 
HETATM    8  C   UNL     1      -0.803  12.289  23.623  0.00  0.00    -0.003 A 
HETATM    9  C   UNL     1      -0.566  11.104  24.381  0.00  0.00    -0.019 A 
HETATM   10  C   UNL     1      -1.526  10.115  24.548  0.00  0.00     0.010 A 
HETATM   11  C   UNL     1      -2.757  10.287  23.934  0.00  0.00     0.002 A 
HETATM   12  C   UNL     1      -3.007  11.430  23.155  0.00  0.00     0.016 A 
HETATM   13  C   UNL     1      -2.040  12.450  22.974  0.00  0.00     0.022 A 
ENDROOT
BRANCH   1  14
HETATM   14  N   UNL     1       1.616   9.978  24.555  0.00  0.00    -0.344 N 
HETATM   15  C   UNL     1       2.104   9.064  25.461  0.00  0.00     0.252 C 
HETATM   16  O   UNL     1       1.925   9.147  26.671  0.00  0.00    -0.268 OA
HETATM   17  H   UNL     1       1.831   9.917  23.571  0.00  0.00     0.163 HD
BRANCH  15  18
HETATM   18  C   UNL     1       2.928   7.957  24.913  0.00  0.00     0.034 A 
HETATM   19  C   UNL     1       2.588   7.287  23.739  0.00  0.00     0.036 A 
HETATM   20  C   UNL     1       3.418   6.258  23.321  0.00  0.00     0.117 A 
HETATM   21  N   UNL     1       4.529   5.874  23.983  0.00  0.00    -0.273 NA
HETATM   22  C   UNL     1       4.824   6.530  25.125  0.00  0.00     0.117 A 
HETATM   23  C   UNL     1       4.059   7.566  25.629  0.00  0.00     0.036 A 
ENDBRANCH  15  18
ENDBRANCH   1  14
BRANCH  13  24
HETATM   24  C   UNL     1      -2.366  13.585  22.099  0.00  0.00     0.140 C 
HETATM   25  N   UNL     1      -3.629  14.137  21.976  0.00  0.00    -0.337 N 
HETATM   26  C   UNL     1      -3.551  15.242  21.168  0.00  0.00     0.080 A 
HETATM   27  H   UNL     1      -4.453  13.819  22.464  0.00  0.00     0.167 HD
HETATM   28  C   UNL     1      -4.471  16.188  20.752  0.00  0.00     0.148 A 
HETATM   29  C   UNL     1      -2.220  15.300  20.796  0.00  0.00     0.088 A 
HETATM   30  N   UNL     1      -4.031  17.225  19.998  0.00  0.00    -0.271 NA
HETATM   31  C   UNL     1      -2.717  17.299  19.670  0.00  0.00     0.118 A 
HETATM   32  C   UNL     1      -1.759  16.365  20.026  0.00  0.00     0.053 A 
HETATM   33  N   UNL     1      -1.533  14.230  21.305  0.00  0.00    -0.228 NA
ENDBRANCH  13  24
TORSDOF 3
ENDMDL
