REMARK  3 active torsions:
REMARK  status: ('A' for Active; 'I' for Inactive)
REMARK       I    between atoms: C_2  and  N_3 
REMARK    1  A    between atoms: C_2  and  C_26 
REMARK    2  A    between atoms: N_3  and  C_4 
REMARK    3  A    between atoms: C_16  and  C_17 
ROOT
HETATM    1  C   UNL     1       2.247   1.187  -2.205  0.00  0.00     0.153 A 
HETATM    2  C   UNL     1       2.365   2.692  -2.134  0.00  0.00    -0.020 A 
HETATM    3  C   UNL     1       3.536   3.441  -2.208  0.00  0.00     0.010 A 
HETATM    4  C   UNL     1       3.448   4.821  -2.057  0.00  0.00     0.001 A 
HETATM    5  C   UNL     1       2.211   5.421  -1.804  0.00  0.00     0.001 A 
HETATM    6  C   UNL     1       1.042   4.651  -1.720  0.00  0.00     0.013 A 
HETATM    7  C   UNL     1       1.097   3.281  -1.925  0.00  0.00    -0.016 A 
HETATM    8  C   UNL     1       0.067   2.232  -1.942  0.00  0.00    -0.003 A 
HETATM    9  C   UNL     1       0.745   0.987  -2.099  0.00  0.00    -0.019 A 
HETATM   10  C   UNL     1       0.082  -0.233  -2.113  0.00  0.00     0.010 A 
HETATM   11  C   UNL     1      -1.299  -0.228  -1.985  0.00  0.00     0.002 A 
HETATM   12  C   UNL     1      -1.995   0.986  -1.860  0.00  0.00     0.016 A 
HETATM   13  C   UNL     1      -1.335   2.240  -1.844  0.00  0.00     0.022 A 
ENDROOT
BRANCH   1  14
HETATM   14  N   UNL     1       2.783   0.673  -3.443  0.00  0.00    -0.344 N 
HETATM   15  C   UNL     1       3.369  -0.571  -3.502  0.00  0.00     0.252 C 
HETATM   16  O   UNL     1       3.492  -1.309  -2.531  0.00  0.00    -0.268 OA
HETATM   17  H   UNL     1       2.751   1.283  -4.247  0.00  0.00     0.163 HD
BRANCH  15  18
HETATM   18  C   UNL     1       3.914  -0.990  -4.818  0.00  0.00     0.034 A 
HETATM   19  C   UNL     1       3.364  -0.557  -6.024  0.00  0.00     0.036 A 
HETATM   20  C   UNL     1       3.939  -1.018  -7.197  0.00  0.00     0.117 A 
HETATM   21  N   UNL     1       4.996  -1.856  -7.237  0.00  0.00    -0.273 NA
HETATM   22  C   UNL     1       5.497  -2.271  -6.054  0.00  0.00     0.117 A 
HETATM   23  C   UNL     1       4.993  -1.874  -4.830  0.00  0.00     0.036 A 
ENDBRANCH  15  18
ENDBRANCH   1  14
BRANCH  13  24
HETATM   24  C   UNL     1      -2.145   3.464  -1.764  0.00  0.00     0.140 C 
HETATM   25  N   UNL     1      -3.348   3.560  -1.087  0.00  0.00    -0.337 N 
HETATM   26  C   UNL     1      -3.773   4.863  -1.124  0.00  0.00     0.080 A 
HETATM   27  H   UNL     1      -3.796   2.807  -0.586  0.00  0.00     0.167 HD
HETATM   28  C   UNL     1      -4.856   5.530  -0.581  0.00  0.00     0.148 A 
HETATM   29  C   UNL     1      -2.806   5.516  -1.868  0.00  0.00     0.088 A 
HETATM   30  N   UNL     1      -4.934   6.874  -0.749  0.00  0.00    -0.271 NA
HETATM   31  C   UNL     1      -3.962   7.515  -1.444  0.00  0.00     0.118 A 
HETATM   32  C   UNL     1      -2.876   6.896  -2.040  0.00  0.00     0.053 A 
HETATM   33  N   UNL     1      -1.868   4.627  -2.321  0.00  0.00    -0.228 NA
ENDBRANCH  13  24
TORSDOF 3
