MODEL 1
REMARK VINA RESULT:    -8.042      0.000      0.000
REMARK INTER + INTRA:         -12.341
REMARK INTER:                  -9.846
REMARK INTRA:                  -2.494
REMARK UNBOUND:                -1.478
REMARK  7 active torsions:
REMARK  status: ('A' for Active; 'I' for Inactive)
REMARK    1  A    between atoms: C_2  and  N_4 
REMARK    2  A    between atoms: N_4  and  S_6 
REMARK    3  A    between atoms: S_6  and  C_9 
REMARK    4  A    between atoms: C_11  and  C_12 
REMARK    5  A    between atoms: N_17  and  C_18 
REMARK    6  A    between atoms: C_25  and  O_26 
REMARK    7  A    between atoms: C_28  and  O_29 
ROOT
HETATM    1  C   UNL     1       8.691  13.413  22.832  0.00  0.00     0.108 C 
HETATM    2  C   UNL     1       7.994  13.210  21.624  0.00  0.00     0.041 C 
HETATM    3  C   UNL     1       7.573  11.934  21.224  0.00  0.00     0.023 C 
HETATM    4  C   UNL     1       8.042  10.847  21.972  0.00  0.00     0.078 C 
HETATM    5  C   UNL     1       8.844  11.031  23.102  0.00  0.00     0.075 C 
HETATM    6  C   UNL     1       9.134  12.316  23.560  0.00  0.00     0.091 C 
ENDROOT
BRANCH   3   7
HETATM    7  C   UNL     1       6.473  11.799  20.182  0.00  0.00     0.277 C 
HETATM    8  N   UNL     1       7.014  11.088  18.995  0.00  0.00    -0.156 NA
HETATM    9  N   UNL     1       6.226  10.175  18.639  0.00  0.00    -0.093 NA
HETATM   10  C   UNL     1       5.133  10.143  19.485  0.00  0.00     0.369 C 
HETATM   11  O   UNL     1       4.145   9.454  19.284  0.00  0.00    -0.243 OA
HETATM   12  N   UNL     1       5.323  11.033  20.531  0.00  0.00    -0.264 N 
BRANCH  12  13
HETATM   13  C   UNL     1       4.398  11.325  21.564  0.00  0.00     0.080 A 
HETATM   14  C   UNL     1       3.676  12.525  21.555  0.00  0.00     0.033 A 
HETATM   15  C   UNL     1       2.761  12.837  22.570  0.00  0.00     0.002 A 
HETATM   16  C   UNL     1       2.551  11.944  23.614  0.00  0.00     0.003 A 
HETATM   17  C   UNL     1       3.247  10.738  23.638  0.00  0.00     0.044 A 
HETATM   18  C   UNL     1       4.157  10.438  22.625  0.00  0.00     0.143 A 
HETATM   19  F   UNL     1       4.844   9.288  22.731  0.00  0.00    -0.204 F 
ENDBRANCH  12  13
ENDBRANCH   3   7
BRANCH   4  20
HETATM   20  O   UNL     1       7.718   9.550  21.694  0.00  0.00    -0.360 OA
HETATM   21  H   UNL     1       7.350   9.114  22.481  0.00  0.00     0.217 HD
ENDBRANCH   4  20
BRANCH   1  22
HETATM   22  S   UNL     1       8.851  15.095  23.412  0.00  0.00     0.246 S 
HETATM   23  O   UNL     1       8.728  15.952  22.250  0.00  0.00    -0.206 OA
HETATM   24  O   UNL     1      10.024  15.216  24.249  0.00  0.00    -0.206 OA
BRANCH  22  25
HETATM   25  N   UNL     1       7.426  15.297  24.395  0.00  0.00    -0.207 NA
HETATM   26  C   UNL     1       7.687  14.980  25.829  0.00  0.00     0.130 C 
BRANCH  25  27
HETATM   27  C   UNL     1       6.112  14.737  23.890  0.00  0.00     0.065 C 
HETATM   28  C   UNL     1       5.591  13.615  24.802  0.00  0.00     0.027 C 
HETATM   29  C   UNL     1       4.987  15.775  23.828  0.00  0.00     0.027 C 
ENDBRANCH  25  27
ENDBRANCH  22  25
ENDBRANCH   1  22
BRANCH   6  30
HETATM   30  O   UNL     1       9.792  12.460  24.743  0.00  0.00    -0.359 OA
HETATM   31  H   UNL     1       9.257  12.985  25.362  0.00  0.00     0.217 HD
ENDBRANCH   6  30
TORSDOF 7
ENDMDL
MODEL 2
REMARK VINA RESULT:    -7.780      2.465      6.526
REMARK INTER + INTRA:         -11.986
REMARK INTER:                  -9.630
REMARK INTRA:                  -2.356
REMARK UNBOUND:                -1.478
REMARK  7 active torsions:
REMARK  status: ('A' for Active; 'I' for Inactive)
REMARK    1  A    between atoms: C_2  and  N_4 
REMARK    2  A    between atoms: N_4  and  S_6 
REMARK    3  A    between atoms: S_6  and  C_9 
REMARK    4  A    between atoms: C_11  and  C_12 
REMARK    5  A    between atoms: N_17  and  C_18 
REMARK    6  A    between atoms: C_25  and  O_26 
REMARK    7  A    between atoms: C_28  and  O_29 
ROOT
HETATM    1  C   UNL     1       5.625  12.151  20.650  0.00  0.00     0.108 C 
HETATM    2  C   UNL     1       6.913  12.664  20.906  0.00  0.00     0.041 C 
HETATM    3  C   UNL     1       7.219  13.311  22.112  0.00  0.00     0.023 C 
HETATM    4  C   UNL     1       6.148  13.602  22.966  0.00  0.00     0.078 C 
HETATM    5  C   UNL     1       4.842  13.209  22.660  0.00  0.00     0.075 C 
HETATM    6  C   UNL     1       4.584  12.445  21.521  0.00  0.00     0.091 C 
ENDROOT
BRANCH   3   7
HETATM    7  C   UNL     1       8.672  13.453  22.539  0.00  0.00     0.277 C 
HETATM    8  N   UNL     1       8.882  14.811  23.103  0.00  0.00    -0.156 NA
HETATM    9  N   UNL     1       9.504  14.737  24.192  0.00  0.00    -0.093 NA
HETATM   10  C   UNL     1       9.768  13.415  24.493  0.00  0.00     0.369 C 
HETATM   11  O   UNL     1      10.487  13.063  25.417  0.00  0.00    -0.243 OA
HETATM   12  N   UNL     1       9.144  12.590  23.571  0.00  0.00    -0.264 N 
BRANCH  12  13
HETATM   13  C   UNL     1       9.231  11.177  23.513  0.00  0.00     0.080 A 
HETATM   14  C   UNL     1      10.392  10.554  23.038  0.00  0.00     0.033 A 
HETATM   15  C   UNL     1      10.496   9.158  22.966  0.00  0.00     0.002 A 
HETATM   16  C   UNL     1       9.435   8.360  23.375  0.00  0.00     0.003 A 
HETATM   17  C   UNL     1       8.275   8.955  23.864  0.00  0.00     0.044 A 
HETATM   18  C   UNL     1       8.179  10.345  23.930  0.00  0.00     0.143 A 
HETATM   19  F   UNL     1       7.015  10.866  24.352  0.00  0.00    -0.204 F 
ENDBRANCH  12  13
ENDBRANCH   3   7
BRANCH   4  20
HETATM   20  O   UNL     1       6.298  14.232  24.169  0.00  0.00    -0.360 OA
HETATM   21  H   UNL     1       5.698  13.851  24.831  0.00  0.00     0.217 HD
ENDBRANCH   4  20
BRANCH   1  22
HETATM   22  S   UNL     1       5.448  11.040  19.262  0.00  0.00     0.246 S 
HETATM   23  O   UNL     1       6.741  10.974  18.611  0.00  0.00    -0.206 OA
HETATM   24  O   UNL     1       4.289  11.410  18.481  0.00  0.00    -0.206 OA
BRANCH  22  25
HETATM   25  N   UNL     1       5.147   9.508  20.036  0.00  0.00    -0.207 NA
HETATM   26  C   UNL     1       6.304   9.064  20.867  0.00  0.00     0.130 C 
BRANCH  25  27
HETATM   27  C   UNL     1       4.537   8.389  19.216  0.00  0.00     0.065 C 
HETATM   28  C   UNL     1       5.381   8.082  17.969  0.00  0.00     0.027 C 
HETATM   29  C   UNL     1       4.425   7.064  19.976  0.00  0.00     0.027 C 
ENDBRANCH  25  27
ENDBRANCH  22  25
ENDBRANCH   1  22
BRANCH   6  30
HETATM   30  O   UNL     1       3.329  11.956  21.328  0.00  0.00    -0.359 OA
HETATM   31  H   UNL     1       3.285  11.025  21.609  0.00  0.00     0.217 HD
ENDBRANCH   6  30
TORSDOF 7
ENDMDL
MODEL 3
REMARK VINA RESULT:    -7.756      2.529      6.187
REMARK INTER + INTRA:         -11.954
REMARK INTER:                  -9.781
REMARK INTRA:                  -2.174
REMARK UNBOUND:                -1.478
REMARK  7 active torsions:
REMARK  status: ('A' for Active; 'I' for Inactive)
REMARK    1  A    between atoms: C_2  and  N_4 
REMARK    2  A    between atoms: N_4  and  S_6 
REMARK    3  A    between atoms: S_6  and  C_9 
REMARK    4  A    between atoms: C_11  and  C_12 
REMARK    5  A    between atoms: N_17  and  C_18 
REMARK    6  A    between atoms: C_25  and  O_26 
REMARK    7  A    between atoms: C_28  and  O_29 
ROOT
HETATM    1  C   UNL     1       6.696  11.045  21.173  0.00  0.00     0.108 C 
HETATM    2  C   UNL     1       6.948  11.167  22.554  0.00  0.00     0.041 C 
HETATM    3  C   UNL     1       7.989  11.972  23.042  0.00  0.00     0.023 C 
HETATM    4  C   UNL     1       8.886  12.489  22.101  0.00  0.00     0.078 C 
HETATM    5  C   UNL     1       8.717  12.266  20.731  0.00  0.00     0.075 C 
HETATM    6  C   UNL     1       7.597  11.580  20.262  0.00  0.00     0.091 C 
ENDROOT
BRANCH   3   7
HETATM    7  C   UNL     1       7.965  12.430  24.492  0.00  0.00     0.277 C 
HETATM    8  N   UNL     1       9.343  12.373  25.042  0.00  0.00    -0.156 NA
HETATM    9  N   UNL     1       9.614  13.441  25.646  0.00  0.00    -0.093 NA
HETATM   10  C   UNL     1       8.537  14.304  25.580  0.00  0.00     0.369 C 
HETATM   11  O   UNL     1       8.472  15.351  26.205  0.00  0.00    -0.243 OA
HETATM   12  N   UNL     1       7.559  13.771  24.754  0.00  0.00    -0.264 N 
BRANCH  12  13
HETATM   13  C   UNL     1       6.287  14.334  24.487  0.00  0.00     0.080 A 
HETATM   14  C   UNL     1       6.177  15.558  23.814  0.00  0.00     0.033 A 
HETATM   15  C   UNL     1       4.928  16.136  23.546  0.00  0.00     0.002 A 
HETATM   16  C   UNL     1       3.764  15.492  23.948  0.00  0.00     0.003 A 
HETATM   17  C   UNL     1       3.847  14.269  24.607  0.00  0.00     0.044 A 
HETATM   18  C   UNL     1       5.093  13.702  24.871  0.00  0.00     0.143 A 
HETATM   19  F   UNL     1       5.116  12.551  25.564  0.00  0.00    -0.204 F 
ENDBRANCH  12  13
ENDBRANCH   3   7
BRANCH   4  20
HETATM   20  O   UNL     1       9.947  13.282  22.433  0.00  0.00    -0.360 OA
HETATM   21  H   UNL     1       9.640  14.155  22.732  0.00  0.00     0.217 HD
ENDBRANCH   4  20
BRANCH   1  22
HETATM   22  S   UNL     1       5.145  10.304  20.687  0.00  0.00     0.246 S 
HETATM   23  O   UNL     1       4.479  11.256  19.821  0.00  0.00    -0.206 OA
HETATM   24  O   UNL     1       4.447   9.814  21.855  0.00  0.00    -0.206 OA
BRANCH  22  25
HETATM   25  N   UNL     1       5.656   8.948  19.719  0.00  0.00    -0.207 NA
HETATM   26  C   UNL     1       5.020   8.952  18.370  0.00  0.00     0.130 C 
BRANCH  25  27
HETATM   27  C   UNL     1       5.691   7.574  20.358  0.00  0.00     0.065 C 
HETATM   28  C   UNL     1       5.662   6.461  19.298  0.00  0.00     0.027 C 
HETATM   29  C   UNL     1       6.949   7.318  21.193  0.00  0.00     0.027 C 
ENDBRANCH  25  27
ENDBRANCH  22  25
ENDBRANCH   1  22
BRANCH   6  30
HETATM   30  O   UNL     1       7.387  11.506  18.919  0.00  0.00    -0.359 OA
HETATM   31  H   UNL     1       8.235  11.544  18.443  0.00  0.00     0.217 HD
ENDBRANCH   6  30
TORSDOF 7
ENDMDL
MODEL 4
REMARK VINA RESULT:    -7.698      2.626      5.798
REMARK INTER + INTRA:         -11.876
REMARK INTER:                  -9.237
REMARK INTRA:                  -2.640
REMARK UNBOUND:                -1.478
REMARK  7 active torsions:
REMARK  status: ('A' for Active; 'I' for Inactive)
REMARK    1  A    between atoms: C_2  and  N_4 
REMARK    2  A    between atoms: N_4  and  S_6 
REMARK    3  A    between atoms: S_6  and  C_9 
REMARK    4  A    between atoms: C_11  and  C_12 
REMARK    5  A    between atoms: N_17  and  C_18 
REMARK    6  A    between atoms: C_25  and  O_26 
REMARK    7  A    between atoms: C_28  and  O_29 
ROOT
HETATM    1  C   UNL     1       6.807  11.041  21.334  0.00  0.00     0.108 C 
HETATM    2  C   UNL     1       7.264  11.215  22.656  0.00  0.00     0.041 C 
HETATM    3  C   UNL     1       8.384  12.008  22.947  0.00  0.00     0.023 C 
HETATM    4  C   UNL     1       9.144  12.458  21.860  0.00  0.00     0.078 C 
HETATM    5  C   UNL     1       8.767  12.180  20.542  0.00  0.00     0.075 C 
HETATM    6  C   UNL     1       7.575  11.508  20.275  0.00  0.00     0.091 C 
ENDROOT
BRANCH   3   7
HETATM    7  C   UNL     1       8.586  12.530  24.361  0.00  0.00     0.277 C 
HETATM    8  N   UNL     1       9.981  12.247  24.787  0.00  0.00    -0.156 NA
HETATM    9  N   UNL     1      10.496  13.275  25.296  0.00  0.00    -0.093 NA
HETATM   10  C   UNL     1       9.587  14.316  25.272  0.00  0.00     0.369 C 
HETATM   11  O   UNL     1       9.771  15.385  25.833  0.00  0.00    -0.243 OA
HETATM   12  N   UNL     1       8.453  13.933  24.572  0.00  0.00    -0.264 N 
BRANCH  12  13
HETATM   13  C   UNL     1       7.280  14.706  24.386  0.00  0.00     0.080 A 
HETATM   14  C   UNL     1       6.261  14.695  25.347  0.00  0.00     0.033 A 
HETATM   15  C   UNL     1       5.089  15.447  25.178  0.00  0.00     0.002 A 
HETATM   16  C   UNL     1       4.922  16.227  24.042  0.00  0.00     0.003 A 
HETATM   17  C   UNL     1       5.927  16.265  23.078  0.00  0.00     0.044 A 
HETATM   18  C   UNL     1       7.088  15.512  23.253  0.00  0.00     0.143 A 
HETATM   19  F   UNL     1       7.997  15.538  22.264  0.00  0.00    -0.204 F 
ENDBRANCH  12  13
ENDBRANCH   3   7
BRANCH   4  20
HETATM   20  O   UNL     1      10.260  13.232  21.994  0.00  0.00    -0.360 OA
HETATM   21  H   UNL     1      10.828  12.892  22.707  0.00  0.00     0.217 HD
ENDBRANCH   4  20
BRANCH   1  22
HETATM   22  S   UNL     1       5.184  10.326  21.118  0.00  0.00     0.246 S 
HETATM   23  O   UNL     1       5.361   8.888  21.081  0.00  0.00    -0.206 OA
HETATM   24  O   UNL     1       4.504  10.975  20.019  0.00  0.00    -0.206 OA
BRANCH  22  25
HETATM   25  N   UNL     1       4.382  10.741  22.608  0.00  0.00    -0.207 NA
HETATM   26  C   UNL     1       4.024   9.532  23.406  0.00  0.00     0.130 C 
BRANCH  25  27
HETATM   27  C   UNL     1       3.280  11.781  22.574  0.00  0.00     0.065 C 
HETATM   28  C   UNL     1       2.398  11.706  23.830  0.00  0.00     0.027 C 
HETATM   29  C   UNL     1       3.799  13.221  22.517  0.00  0.00     0.027 C 
ENDBRANCH  25  27
ENDBRANCH  22  25
ENDBRANCH   1  22
BRANCH   6  30
HETATM   30  O   UNL     1       7.165  11.383  18.983  0.00  0.00    -0.359 OA
HETATM   31  H   UNL     1       6.785  10.499  18.836  0.00  0.00     0.217 HD
ENDBRANCH   6  30
TORSDOF 7
ENDMDL
MODEL 5
REMARK VINA RESULT:    -7.533      2.010      3.017
REMARK INTER + INTRA:         -11.653
REMARK INTER:                  -9.858
REMARK INTRA:                  -1.795
REMARK UNBOUND:                -1.478
REMARK  7 active torsions:
REMARK  status: ('A' for Active; 'I' for Inactive)
REMARK    1  A    between atoms: C_2  and  N_4 
REMARK    2  A    between atoms: N_4  and  S_6 
REMARK    3  A    between atoms: S_6  and  C_9 
REMARK    4  A    between atoms: C_11  and  C_12 
REMARK    5  A    between atoms: N_17  and  C_18 
REMARK    6  A    between atoms: C_25  and  O_26 
REMARK    7  A    between atoms: C_28  and  O_29 
ROOT
HETATM    1  C   UNL     1       7.528  13.860  21.854  0.00  0.00     0.108 C 
HETATM    2  C   UNL     1       6.265  13.240  21.764  0.00  0.00     0.041 C 
HETATM    3  C   UNL     1       6.051  12.126  20.939  0.00  0.00     0.023 C 
HETATM    4  C   UNL     1       7.085  11.777  20.062  0.00  0.00     0.078 C 
HETATM    5  C   UNL     1       8.300  12.470  20.054  0.00  0.00     0.075 C 
HETATM    6  C   UNL     1       8.539  13.485  20.980  0.00  0.00     0.091 C 
ENDROOT
BRANCH   3   7
HETATM    7  C   UNL     1       4.848  11.229  21.187  0.00  0.00     0.277 C 
HETATM    8  N   UNL     1       5.301   9.816  21.253  0.00  0.00    -0.156 NA
HETATM    9  N   UNL     1       4.801   9.248  22.257  0.00  0.00    -0.093 NA
HETATM   10  C   UNL     1       4.011  10.139  22.957  0.00  0.00     0.369 C 
HETATM   11  O   UNL     1       3.291   9.815  23.889  0.00  0.00    -0.243 OA
HETATM   12  N   UNL     1       4.133  11.406  22.407  0.00  0.00    -0.264 N 
BRANCH  12  13
HETATM   13  C   UNL     1       3.432  12.569  22.812  0.00  0.00     0.080 A 
HETATM   14  C   UNL     1       2.358  13.053  22.055  0.00  0.00     0.033 A 
HETATM   15  C   UNL     1       1.656  14.205  22.434  0.00  0.00     0.002 A 
HETATM   16  C   UNL     1       2.018  14.892  23.586  0.00  0.00     0.003 A 
HETATM   17  C   UNL     1       3.074  14.423  24.364  0.00  0.00     0.044 A 
HETATM   18  C   UNL     1       3.768  13.277  23.977  0.00  0.00     0.143 A 
HETATM   19  F   UNL     1       4.816  12.905  24.731  0.00  0.00    -0.204 F 
ENDBRANCH  12  13
ENDBRANCH   3   7
BRANCH   4  20
HETATM   20  O   UNL     1       7.013  10.721  19.199  0.00  0.00    -0.360 OA
HETATM   21  H   UNL     1       6.113  10.633  18.843  0.00  0.00     0.217 HD
ENDBRANCH   4  20
BRANCH   1  22
HETATM   22  S   UNL     1       7.777  15.018  23.191  0.00  0.00     0.246 S 
HETATM   23  O   UNL     1       6.535  15.748  23.349  0.00  0.00    -0.206 OA
HETATM   24  O   UNL     1       9.000  15.758  22.978  0.00  0.00    -0.206 OA
BRANCH  22  25
HETATM   25  N   UNL     1       7.976  13.972  24.570  0.00  0.00    -0.207 NA
HETATM   26  C   UNL     1       7.987  14.734  25.853  0.00  0.00     0.130 C 
BRANCH  25  27
HETATM   27  C   UNL     1       9.035  12.889  24.512  0.00  0.00     0.065 C 
HETATM   28  C   UNL     1       9.998  12.978  25.706  0.00  0.00     0.027 C 
HETATM   29  C   UNL     1       8.461  11.469  24.549  0.00  0.00     0.027 C 
ENDBRANCH  25  27
ENDBRANCH  22  25
ENDBRANCH   1  22
BRANCH   6  30
HETATM   30  O   UNL     1       9.781  14.039  21.042  0.00  0.00    -0.359 OA
HETATM   31  H   UNL     1      10.390  13.564  20.449  0.00  0.00     0.217 HD
ENDBRANCH   6  30
TORSDOF 7
ENDMDL
MODEL 6
REMARK VINA RESULT:    -7.460      2.139      2.944
REMARK INTER + INTRA:         -11.554
REMARK INTER:                  -8.996
REMARK INTRA:                  -2.559
REMARK UNBOUND:                -1.478
REMARK  7 active torsions:
REMARK  status: ('A' for Active; 'I' for Inactive)
REMARK    1  A    between atoms: C_2  and  N_4 
REMARK    2  A    between atoms: N_4  and  S_6 
REMARK    3  A    between atoms: S_6  and  C_9 
REMARK    4  A    between atoms: C_11  and  C_12 
REMARK    5  A    between atoms: N_17  and  C_18 
REMARK    6  A    between atoms: C_25  and  O_26 
REMARK    7  A    between atoms: C_28  and  O_29 
ROOT
HETATM    1  C   UNL     1       7.078  13.676  22.859  0.00  0.00     0.108 C 
HETATM    2  C   UNL     1       6.189  13.033  21.974  0.00  0.00     0.041 C 
HETATM    3  C   UNL     1       6.652  12.312  20.863  0.00  0.00     0.023 C 
HETATM    4  C   UNL     1       8.015  12.421  20.558  0.00  0.00     0.078 C 
HETATM    5  C   UNL     1       8.885  13.164  21.361  0.00  0.00     0.075 C 
HETATM    6  C   UNL     1       8.426  13.758  22.537  0.00  0.00     0.091 C 
ENDROOT
BRANCH   3   7
HETATM    7  C   UNL     1       5.742  11.290  20.200  0.00  0.00     0.277 C 
HETATM    8  N   UNL     1       5.923  11.362  18.728  0.00  0.00    -0.156 NA
HETATM    9  N   UNL     1       6.072  10.208  18.252  0.00  0.00    -0.093 NA
HETATM   10  C   UNL     1       6.027   9.272  19.267  0.00  0.00     0.369 C 
HETATM   11  O   UNL     1       5.997   8.067  19.073  0.00  0.00    -0.243 OA
HETATM   12  N   UNL     1       5.970   9.914  20.495  0.00  0.00    -0.264 N 
BRANCH  12  13
HETATM   13  C   UNL     1       5.852   9.293  21.763  0.00  0.00     0.080 A 
HETATM   14  C   UNL     1       4.608   8.844  22.222  0.00  0.00     0.033 A 
HETATM   15  C   UNL     1       4.468   8.233  23.476  0.00  0.00     0.002 A 
HETATM   16  C   UNL     1       5.579   8.058  24.292  0.00  0.00     0.003 A 
HETATM   17  C   UNL     1       6.829   8.485  23.852  0.00  0.00     0.044 A 
HETATM   18  C   UNL     1       6.958   9.094  22.604  0.00  0.00     0.143 A 
HETATM   19  F   UNL     1       8.177   9.540  22.256  0.00  0.00    -0.204 F 
ENDBRANCH  12  13
ENDBRANCH   3   7
BRANCH   4  20
HETATM   20  O   UNL     1       8.601  11.780  19.505  0.00  0.00    -0.360 OA
HETATM   21  H   UNL     1       7.937  11.286  18.994  0.00  0.00     0.217 HD
ENDBRANCH   4  20
BRANCH   1  22
HETATM   22  S   UNL     1       6.413  14.242  24.418  0.00  0.00     0.246 S 
HETATM   23  O   UNL     1       7.010  15.536  24.682  0.00  0.00    -0.206 OA
HETATM   24  O   UNL     1       6.536  13.200  25.412  0.00  0.00    -0.206 OA
BRANCH  22  25
HETATM   25  N   UNL     1       4.727  14.481  24.049  0.00  0.00    -0.207 NA
HETATM   26  C   UNL     1       4.387  15.926  23.897  0.00  0.00     0.130 C 
BRANCH  25  27
HETATM   27  C   UNL     1       3.694  13.707  24.843  0.00  0.00     0.065 C 
HETATM   28  C   UNL     1       2.374  14.485  24.957  0.00  0.00     0.027 C 
HETATM   29  C   UNL     1       3.327  12.358  24.218  0.00  0.00     0.027 C 
ENDBRANCH  25  27
ENDBRANCH  22  25
ENDBRANCH   1  22
BRANCH   6  30
HETATM   30  O   UNL     1       9.327  14.349  23.370  0.00  0.00    -0.359 OA
HETATM   31  H   UNL     1      10.192  14.421  22.931  0.00  0.00     0.217 HD
ENDBRANCH   6  30
TORSDOF 7
ENDMDL
MODEL 7
REMARK VINA RESULT:    -7.381      2.919      5.482
REMARK INTER + INTRA:         -11.448
REMARK INTER:                  -8.869
REMARK INTRA:                  -2.578
REMARK UNBOUND:                -1.478
REMARK  7 active torsions:
REMARK  status: ('A' for Active; 'I' for Inactive)
REMARK    1  A    between atoms: C_2  and  N_4 
REMARK    2  A    between atoms: N_4  and  S_6 
REMARK    3  A    between atoms: S_6  and  C_9 
REMARK    4  A    between atoms: C_11  and  C_12 
REMARK    5  A    between atoms: N_17  and  C_18 
REMARK    6  A    between atoms: C_25  and  O_26 
REMARK    7  A    between atoms: C_28  and  O_29 
ROOT
HETATM    1  C   UNL     1       5.965   9.526  22.382  0.00  0.00     0.108 C 
HETATM    2  C   UNL     1       7.216  10.123  22.640  0.00  0.00     0.041 C 
HETATM    3  C   UNL     1       7.770  11.074  21.770  0.00  0.00     0.023 C 
HETATM    4  C   UNL     1       7.127  11.260  20.540  0.00  0.00     0.078 C 
HETATM    5  C   UNL     1       5.951  10.574  20.220  0.00  0.00     0.075 C 
HETATM    6  C   UNL     1       5.345   9.738  21.157  0.00  0.00     0.091 C 
ENDROOT
BRANCH   3   7
HETATM    7  C   UNL     1       8.864  12.002  22.273  0.00  0.00     0.277 C 
HETATM    8  N   UNL     1      10.061  11.857  21.405  0.00  0.00    -0.156 NA
HETATM    9  N   UNL     1      10.496  12.988  21.073  0.00  0.00    -0.093 NA
HETATM   10  C   UNL     1       9.702  13.976  21.622  0.00  0.00     0.369 C 
HETATM   11  O   UNL     1       9.979  15.165  21.583  0.00  0.00    -0.243 OA
HETATM   12  N   UNL     1       8.604  13.403  22.247  0.00  0.00    -0.264 N 
BRANCH  12  13
HETATM   13  C   UNL     1       7.600  14.088  22.975  0.00  0.00     0.080 A 
HETATM   14  C   UNL     1       6.361  14.371  22.384  0.00  0.00     0.033 A 
HETATM   15  C   UNL     1       5.356  15.054  23.083  0.00  0.00     0.002 A 
HETATM   16  C   UNL     1       5.576  15.462  24.393  0.00  0.00     0.003 A 
HETATM   17  C   UNL     1       6.794  15.181  25.007  0.00  0.00     0.044 A 
HETATM   18  C   UNL     1       7.788  14.503  24.302  0.00  0.00     0.143 A 
HETATM   19  F   UNL     1       8.965  14.313  24.923  0.00  0.00    -0.204 F 
ENDBRANCH  12  13
ENDBRANCH   3   7
BRANCH   4  20
HETATM   20  O   UNL     1       7.558  12.147  19.596  0.00  0.00    -0.360 OA
HETATM   21  H   UNL     1       7.595  13.046  19.964  0.00  0.00     0.217 HD
ENDBRANCH   4  20
BRANCH   1  22
HETATM   22  S   UNL     1       5.198   8.622  23.718  0.00  0.00     0.246 S 
HETATM   23  O   UNL     1       6.263   8.211  24.610  0.00  0.00    -0.206 OA
HETATM   24  O   UNL     1       4.307   7.617  23.183  0.00  0.00    -0.206 OA
BRANCH  22  25
HETATM   25  N   UNL     1       4.256   9.850  24.518  0.00  0.00    -0.207 NA
HETATM   26  C   UNL     1       2.793   9.568  24.446  0.00  0.00     0.130 C 
BRANCH  25  27
HETATM   27  C   UNL     1       4.596  11.305  24.264  0.00  0.00     0.065 C 
HETATM   28  C   UNL     1       3.403  12.064  23.662  0.00  0.00     0.027 C 
HETATM   29  C   UNL     1       4.979  12.075  25.532  0.00  0.00     0.027 C 
ENDBRANCH  25  27
ENDBRANCH  22  25
ENDBRANCH   1  22
BRANCH   6  30
HETATM   30  O   UNL     1       4.127   9.202  20.869  0.00  0.00    -0.359 OA
HETATM   31  H   UNL     1       3.630   9.039  21.689  0.00  0.00     0.217 HD
ENDBRANCH   6  30
TORSDOF 7
ENDMDL
MODEL 8
REMARK VINA RESULT:    -7.341      2.882      5.107
REMARK INTER + INTRA:         -11.394
REMARK INTER:                  -9.772
REMARK INTRA:                  -1.622
REMARK UNBOUND:                -1.478
REMARK  7 active torsions:
REMARK  status: ('A' for Active; 'I' for Inactive)
REMARK    1  A    between atoms: C_2  and  N_4 
REMARK    2  A    between atoms: N_4  and  S_6 
REMARK    3  A    between atoms: S_6  and  C_9 
REMARK    4  A    between atoms: C_11  and  C_12 
REMARK    5  A    between atoms: N_17  and  C_18 
REMARK    6  A    between atoms: C_25  and  O_26 
REMARK    7  A    between atoms: C_28  and  O_29 
ROOT
HETATM    1  C   UNL     1       6.404   9.697  23.452  0.00  0.00     0.108 C 
HETATM    2  C   UNL     1       7.225  10.843  23.491  0.00  0.00     0.041 C 
HETATM    3  C   UNL     1       8.621  10.744  23.582  0.00  0.00     0.023 C 
HETATM    4  C   UNL     1       9.153   9.472  23.830  0.00  0.00     0.078 C 
HETATM    5  C   UNL     1       8.333   8.343  23.921  0.00  0.00     0.075 C 
HETATM    6  C   UNL     1       6.961   8.447  23.689  0.00  0.00     0.091 C 
ENDROOT
BRANCH   3   7
HETATM    7  C   UNL     1       9.484  11.931  23.185  0.00  0.00     0.277 C 
HETATM    8  N   UNL     1      10.401  11.520  22.091  0.00  0.00    -0.156 NA
HETATM    9  N   UNL     1      10.381  12.370  21.165  0.00  0.00    -0.093 NA
HETATM   10  C   UNL     1       9.502  13.388  21.482  0.00  0.00     0.369 C 
HETATM   11  O   UNL     1       9.397  14.416  20.830  0.00  0.00    -0.243 OA
HETATM   12  N   UNL     1       8.825  13.077  22.651  0.00  0.00    -0.264 N 
BRANCH  12  13
HETATM   13  C   UNL     1       7.889  13.900  23.324  0.00  0.00     0.080 A 
HETATM   14  C   UNL     1       8.158  14.378  24.612  0.00  0.00     0.033 A 
HETATM   15  C   UNL     1       7.241  15.188  25.298  0.00  0.00     0.002 A 
HETATM   16  C   UNL     1       6.038  15.536  24.699  0.00  0.00     0.003 A 
HETATM   17  C   UNL     1       5.752  15.084  23.413  0.00  0.00     0.044 A 
HETATM   18  C   UNL     1       6.669  14.277  22.740  0.00  0.00     0.143 A 
HETATM   19  F   UNL     1       6.316  13.819  21.526  0.00  0.00    -0.204 F 
ENDBRANCH  12  13
ENDBRANCH   3   7
BRANCH   4  20
HETATM   20  O   UNL     1      10.491   9.229  23.947  0.00  0.00    -0.360 OA
HETATM   21  H   UNL     1      10.728   8.398  23.502  0.00  0.00     0.217 HD
ENDBRANCH   4  20
BRANCH   1  22
HETATM   22  S   UNL     1       4.699   9.927  22.971  0.00  0.00     0.246 S 
HETATM   23  O   UNL     1       3.915   8.986  23.745  0.00  0.00    -0.206 OA
HETATM   24  O   UNL     1       4.589   9.910  21.529  0.00  0.00    -0.206 OA
BRANCH  22  25
HETATM   25  N   UNL     1       4.354  11.534  23.549  0.00  0.00    -0.207 NA
HETATM   26  C   UNL     1       4.674  11.689  24.998  0.00  0.00     0.130 C 
BRANCH  25  27
HETATM   27  C   UNL     1       3.039  12.179  23.157  0.00  0.00     0.065 C 
HETATM   28  C   UNL     1       2.612  13.248  24.174  0.00  0.00     0.027 C 
HETATM   29  C   UNL     1       3.086  12.892  21.802  0.00  0.00     0.027 C 
ENDBRANCH  25  27
ENDBRANCH  22  25
ENDBRANCH   1  22
BRANCH   6  30
HETATM   30  O   UNL     1       6.215   7.309  23.641  0.00  0.00    -0.359 OA
HETATM   31  H   UNL     1       6.161   6.906  24.525  0.00  0.00     0.217 HD
ENDBRANCH   6  30
TORSDOF 7
ENDMDL
MODEL 9
REMARK VINA RESULT:    -6.962      2.721      5.838
REMARK INTER + INTRA:         -10.882
REMARK INTER:                  -9.404
REMARK INTRA:                  -1.478
REMARK UNBOUND:                -1.478
REMARK  7 active torsions:
REMARK  status: ('A' for Active; 'I' for Inactive)
REMARK    1  A    between atoms: C_2  and  N_4 
REMARK    2  A    between atoms: N_4  and  S_6 
REMARK    3  A    between atoms: S_6  and  C_9 
REMARK    4  A    between atoms: C_11  and  C_12 
REMARK    5  A    between atoms: N_17  and  C_18 
REMARK    6  A    between atoms: C_25  and  O_26 
REMARK    7  A    between atoms: C_28  and  O_29 
ROOT
HETATM    1  C   UNL     1       6.742   9.662  22.298  0.00  0.00     0.108 C 
HETATM    2  C   UNL     1       7.393  10.887  22.548  0.00  0.00     0.041 C 
HETATM    3  C   UNL     1       8.693  10.935  23.071  0.00  0.00     0.023 C 
HETATM    4  C   UNL     1       9.242   9.727  23.520  0.00  0.00     0.078 C 
HETATM    5  C   UNL     1       8.549   8.519  23.393  0.00  0.00     0.075 C 
HETATM    6  C   UNL     1       7.315   8.478  22.743  0.00  0.00     0.091 C 
ENDROOT
BRANCH   3   7
HETATM    7  C   UNL     1       9.517  12.204  22.918  0.00  0.00     0.277 C 
HETATM    8  N   UNL     1      10.496  12.017  21.817  0.00  0.00    -0.156 NA
HETATM    9  N   UNL     1      10.475  13.009  21.045  0.00  0.00    -0.093 NA
HETATM   10  C   UNL     1       9.539  13.925  21.484  0.00  0.00     0.369 C 
HETATM   11  O   UNL     1       9.414  15.043  21.007  0.00  0.00    -0.243 OA
HETATM   12  N   UNL     1       8.830  13.397  22.552  0.00  0.00    -0.264 N 
BRANCH  12  13
HETATM   13  C   UNL     1       7.831  14.060  23.306  0.00  0.00     0.080 A 
HETATM   14  C   UNL     1       8.103  14.516  24.603  0.00  0.00     0.033 A 
HETATM   15  C   UNL     1       7.126  15.167  25.369  0.00  0.00     0.002 A 
HETATM   16  C   UNL     1       5.857  15.377  24.845  0.00  0.00     0.003 A 
HETATM   17  C   UNL     1       5.566  14.944  23.553  0.00  0.00     0.044 A 
HETATM   18  C   UNL     1       6.543  14.295  22.799  0.00  0.00     0.143 A 
HETATM   19  F   UNL     1       6.189  13.845  21.583  0.00  0.00    -0.204 F 
ENDBRANCH  12  13
ENDBRANCH   3   7
BRANCH   4  20
HETATM   20  O   UNL     1      10.493   9.625  24.056  0.00  0.00    -0.360 OA
HETATM   21  H   UNL     1      11.028  10.403  23.825  0.00  0.00     0.217 HD
ENDBRANCH   4  20
BRANCH   1  22
HETATM   22  S   UNL     1       5.259   9.711  21.303  0.00  0.00     0.246 S 
HETATM   23  O   UNL     1       4.620  10.984  21.567  0.00  0.00    -0.206 OA
HETATM   24  O   UNL     1       4.500   8.495  21.491  0.00  0.00    -0.206 OA
BRANCH  22  25
HETATM   25  N   UNL     1       5.891   9.743  19.679  0.00  0.00    -0.207 NA
HETATM   26  C   UNL     1       6.588  11.026  19.374  0.00  0.00     0.130 C 
BRANCH  25  27
HETATM   27  C   UNL     1       5.004   9.263  18.547  0.00  0.00     0.065 C 
HETATM   28  C   UNL     1       4.505  10.435  17.688  0.00  0.00     0.027 C 
HETATM   29  C   UNL     1       5.711   8.311  17.577  0.00  0.00     0.027 C 
ENDBRANCH  25  27
ENDBRANCH  22  25
ENDBRANCH   1  22
BRANCH   6  30
HETATM   30  O   UNL     1       6.736   7.269  22.508  0.00  0.00    -0.359 OA
HETATM   31  H   UNL     1       7.357   6.552  22.724  0.00  0.00     0.217 HD
ENDBRANCH   6  30
TORSDOF 7
ENDMDL
