REMARK  7 active torsions:
REMARK  status: ('A' for Active; 'I' for Inactive)
REMARK    1  A    between atoms: C_2  and  N_4 
REMARK    2  A    between atoms: N_4  and  S_6 
REMARK    3  A    between atoms: S_6  and  C_9 
REMARK    4  A    between atoms: C_11  and  C_12 
REMARK    5  A    between atoms: N_17  and  C_18 
REMARK    6  A    between atoms: C_25  and  O_26 
REMARK    7  A    between atoms: C_28  and  O_29 
ROOT
HETATM    1  C   UNL     1       5.399   2.477  -2.018  0.00  0.00     0.108 C 
HETATM    2  C   UNL     1       5.325   3.824  -1.609  0.00  0.00     0.041 C 
HETATM    3  C   UNL     1       5.404   4.877  -2.532  0.00  0.00     0.023 C 
HETATM    4  C   UNL     1       5.756   4.545  -3.846  0.00  0.00     0.078 C 
HETATM    5  C   UNL     1       5.958   3.217  -4.234  0.00  0.00     0.075 C 
HETATM    6  C   UNL     1       5.738   2.177  -3.331  0.00  0.00     0.091 C 
ENDROOT
BRANCH   3   7
HETATM    7  C   UNL     1       4.891   6.255  -2.143  0.00  0.00     0.277 C 
HETATM    8  N   UNL     1       3.406   6.232  -2.123  0.00  0.00    -0.156 NA
HETATM    9  N   UNL     1       2.978   6.761  -1.066  0.00  0.00    -0.093 NA
HETATM   10  C   UNL     1       4.040   7.171  -0.283  0.00  0.00     0.369 C 
HETATM   11  O   UNL     1       3.913   7.846   0.727  0.00  0.00    -0.243 OA
HETATM   12  N   UNL     1       5.232   6.745  -0.849  0.00  0.00    -0.264 N 
BRANCH  12  13
HETATM   13  C   UNL     1       6.536   7.024  -0.370  0.00  0.00     0.080 A 
HETATM   14  C   UNL     1       6.749   7.322   0.982  0.00  0.00     0.033 A 
HETATM   15  C   UNL     1       8.030   7.608   1.475  0.00  0.00     0.002 A 
HETATM   16  C   UNL     1       9.123   7.596   0.618  0.00  0.00     0.003 A 
HETATM   17  C   UNL     1       8.939   7.290  -0.728  0.00  0.00     0.044 A 
HETATM   18  C   UNL     1       7.661   7.009  -1.210  0.00  0.00     0.143 A 
HETATM   19  F   UNL     1       7.533   6.780  -2.528  0.00  0.00    -0.204 F 
ENDBRANCH  12  13
ENDBRANCH   3   7
BRANCH   4  20
HETATM   20  O   UNL     1       5.875   5.467  -4.846  0.00  0.00    -0.360 OA
HETATM   21  H   UNL     1       6.155   6.326  -4.487  0.00  0.00     0.217 HD
ENDBRANCH   4  20
BRANCH   1  22
HETATM   22  S   UNL     1       4.924   1.233  -0.827  0.00  0.00     0.246 S 
HETATM   23  O   UNL     1       5.149   1.803   0.486  0.00  0.00    -0.206 OA
HETATM   24  O   UNL     1       5.549  -0.028  -1.158  0.00  0.00    -0.206 OA
BRANCH  22  25
HETATM   25  N   UNL     1       3.205   1.100  -1.079  0.00  0.00    -0.207 NA
HETATM   26  C   UNL     1       2.878   0.294  -2.291  0.00  0.00     0.130 C 
BRANCH  25  27
HETATM   27  C   UNL     1       2.354   2.347  -0.945  0.00  0.00     0.065 C 
HETATM   28  C   UNL     1       0.856   2.019  -1.049  0.00  0.00     0.027 C 
HETATM   29  C   UNL     1       2.528   3.066   0.396  0.00  0.00     0.027 C 
ENDBRANCH  25  27
ENDBRANCH  22  25
ENDBRANCH   1  22
BRANCH   6  30
HETATM   30  O   UNL     1       5.801   0.893  -3.779  0.00  0.00    -0.359 OA
HETATM   31  H   UNL     1       6.155   0.871  -4.685  0.00  0.00     0.217 HD
ENDBRANCH   6  30
TORSDOF 7
