MODEL 1
REMARK VINA RESULT:    -7.684      0.000      0.000
REMARK INTER + INTRA:          -9.291
REMARK INTER:                  -8.873
REMARK INTRA:                  -0.418
REMARK UNBOUND:                -0.484
REMARK  3 active torsions:
REMARK  status: ('A' for Active; 'I' for Inactive)
REMARK    1  A    between atoms: O_2  and  C_3 
REMARK       I    between atoms: N_10  and  C_11 
REMARK    2  A    between atoms: C_11  and  C_13 
REMARK    3  A    between atoms: C_15  and  N_16 
ROOT
HETATM    1  C   UNL     1       4.497   8.058  19.559  0.00  0.00     0.140 A 
HETATM    2  N   UNL     1       5.575   8.568  18.915  0.00  0.00    -0.212 NA
HETATM    3  C   UNL     1       6.763   8.320  19.460  0.00  0.00     0.200 A 
HETATM    4  N   UNL     1       6.967   7.614  20.568  0.00  0.00    -0.218 NA
HETATM    5  C   UNL     1       5.905   7.115  21.205  0.00  0.00     0.073 A 
HETATM    6  C   UNL     1       6.125   6.308  22.314  0.00  0.00     0.033 A 
HETATM    7  C   UNL     1       5.076   5.700  23.011  0.00  0.00     0.009 A 
HETATM    8  C   UNL     1       3.764   5.959  22.639  0.00  0.00    -0.061 A 
HETATM    9  C   UNL     1       2.607   5.220  23.237  0.00  0.00     0.048 C 
HETATM   10  C   UNL     1       3.536   6.821  21.565  0.00  0.00     0.023 A 
HETATM   11  C   UNL     1       4.595   7.348  20.776  0.00  0.00     0.028 A 
ENDROOT
BRANCH   1  12
HETATM   12  C   UNL     1       3.159   8.179  18.839  0.00  0.00     0.274 C 
HETATM   13  N   UNL     1       2.525   7.094  18.250  0.00  0.00    -0.338 N 
HETATM   14  C   UNL     1       1.242   7.328  17.584  0.00  0.00     0.165 A 
HETATM   15  C   UNL     1       2.957   5.699  18.139  0.00  0.00     0.165 A 
HETATM   16  C   UNL     1       0.934   6.026  16.930  0.00  0.00    -0.030 A 
HETATM   17  C   UNL     1       1.932   5.096  17.220  0.00  0.00    -0.032 A 
HETATM   18  C   UNL     1      -0.119   5.720  16.083  0.00  0.00     0.046 A 
HETATM   19  C   UNL     1       1.911   3.840  16.649  0.00  0.00     0.012 A 
HETATM   20  C   UNL     1       0.880   3.533  15.745  0.00  0.00     0.037 A 
HETATM   21  C   UNL     1      -0.122   4.475  15.454  0.00  0.00     0.068 A 
HETATM   22  O   UNL     1       2.583   9.269  18.782  0.00  0.00    -0.266 OA
BRANCH  21  23
HETATM   23  O   UNL     1      -1.156   4.264  14.579  0.00  0.00    -0.356 OA
HETATM   24  C   UNL     1      -1.544   2.902  14.434  0.00  0.00     0.210 C 
ENDBRANCH  21  23
ENDBRANCH   1  12
BRANCH   3  25
HETATM   25  N   UNL     1       7.882   8.863  18.865  0.00  0.00    -0.271 NA
HETATM   26  H   UNL     1       8.677   8.800  19.483  0.00  0.00     0.127 HD
HETATM   27  H   UNL     1       7.993   8.465  17.940  0.00  0.00     0.127 HD
ENDBRANCH   3  25
TORSDOF 3
ENDMDL
MODEL 2
REMARK VINA RESULT:    -7.392      3.691      7.753
REMARK INTER + INTRA:          -8.956
REMARK INTER:                  -8.427
REMARK INTRA:                  -0.529
REMARK UNBOUND:                -0.484
REMARK  3 active torsions:
REMARK  status: ('A' for Active; 'I' for Inactive)
REMARK    1  A    between atoms: O_2  and  C_3 
REMARK       I    between atoms: N_10  and  C_11 
REMARK    2  A    between atoms: C_11  and  C_13 
REMARK    3  A    between atoms: C_15  and  N_16 
ROOT
HETATM    1  C   UNL     1       4.942   6.603  20.793  0.00  0.00     0.140 A 
HETATM    2  N   UNL     1       6.088   7.301  20.603  0.00  0.00    -0.212 NA
HETATM    3  C   UNL     1       6.171   8.011  19.480  0.00  0.00     0.200 A 
HETATM    4  N   UNL     1       5.223   8.089  18.550  0.00  0.00    -0.218 NA
HETATM    5  C   UNL     1       4.096   7.397  18.735  0.00  0.00     0.073 A 
HETATM    6  C   UNL     1       3.075   7.545  17.804  0.00  0.00     0.033 A 
HETATM    7  C   UNL     1       1.842   6.902  17.945  0.00  0.00     0.009 A 
HETATM    8  C   UNL     1       1.641   6.028  19.005  0.00  0.00    -0.061 A 
HETATM    9  C   UNL     1       0.298   5.433  19.301  0.00  0.00     0.048 C 
HETATM   10  C   UNL     1       2.686   5.826  19.907  0.00  0.00     0.023 A 
HETATM   11  C   UNL     1       3.900   6.565  19.841  0.00  0.00     0.028 A 
ENDROOT
BRANCH   1  12
HETATM   12  C   UNL     1       4.769   5.946  22.157  0.00  0.00     0.274 C 
HETATM   13  N   UNL     1       4.065   6.545  23.193  0.00  0.00    -0.338 N 
HETATM   14  C   UNL     1       3.964   5.821  24.462  0.00  0.00     0.165 A 
HETATM   15  C   UNL     1       3.411   7.854  23.251  0.00  0.00     0.165 A 
HETATM   16  C   UNL     1       3.314   6.796  25.381  0.00  0.00    -0.030 A 
HETATM   17  C   UNL     1       3.022   7.977  24.698  0.00  0.00    -0.032 A 
HETATM   18  C   UNL     1       3.067   6.663  26.737  0.00  0.00     0.046 A 
HETATM   19  C   UNL     1       2.496   9.064  25.365  0.00  0.00     0.012 A 
HETATM   20  C   UNL     1       2.292   8.963  26.753  0.00  0.00     0.037 A 
HETATM   21  C   UNL     1       2.590   7.772  27.436  0.00  0.00     0.068 A 
HETATM   22  O   UNL     1       5.243   4.827  22.370  0.00  0.00    -0.266 OA
BRANCH  21  23
HETATM   23  O   UNL     1       2.432   7.590  28.785  0.00  0.00    -0.356 OA
HETATM   24  C   UNL     1       2.343   8.794  29.541  0.00  0.00     0.210 C 
ENDBRANCH  21  23
ENDBRANCH   1  12
BRANCH   3  25
HETATM   25  N   UNL     1       7.339   8.696  19.223  0.00  0.00    -0.271 NA
HETATM   26  H   UNL     1       7.366   9.000  18.262  0.00  0.00     0.127 HD
HETATM   27  H   UNL     1       7.467   9.410  19.930  0.00  0.00     0.127 HD
ENDBRANCH   3  25
TORSDOF 3
ENDMDL
MODEL 3
REMARK VINA RESULT:    -7.283      6.576      9.309
REMARK INTER + INTRA:          -8.832
REMARK INTER:                  -8.324
REMARK INTRA:                  -0.508
REMARK UNBOUND:                -0.484
REMARK  3 active torsions:
REMARK  status: ('A' for Active; 'I' for Inactive)
REMARK    1  A    between atoms: O_2  and  C_3 
REMARK       I    between atoms: N_10  and  C_11 
REMARK    2  A    between atoms: C_11  and  C_13 
REMARK    3  A    between atoms: C_15  and  N_16 
ROOT
HETATM    1  C   UNL     1       0.364   8.032  27.500  0.00  0.00     0.140 A 
HETATM    2  N   UNL     1      -0.690   8.847  27.255  0.00  0.00    -0.212 NA
HETATM    3  C   UNL     1      -1.127   9.575  28.280  0.00  0.00     0.200 A 
HETATM    4  N   UNL     1      -0.608   9.566  29.504  0.00  0.00    -0.218 NA
HETATM    5  C   UNL     1       0.428   8.759  29.747  0.00  0.00     0.073 A 
HETATM    6  C   UNL     1       1.021   8.813  31.002  0.00  0.00     0.033 A 
HETATM    7  C   UNL     1       2.143   8.044  31.328  0.00  0.00     0.009 A 
HETATM    8  C   UNL     1       2.648   7.141  30.402  0.00  0.00    -0.061 A 
HETATM    9  C   UNL     1       3.934   6.408  30.626  0.00  0.00     0.048 C 
HETATM   10  C   UNL     1       2.015   7.038  29.162  0.00  0.00     0.023 A 
HETATM   11  C   UNL     1       0.950   7.898  28.778  0.00  0.00     0.028 A 
ENDROOT
BRANCH   1  12
HETATM   12  C   UNL     1       0.982   7.344  26.288  0.00  0.00     0.274 C 
HETATM   13  N   UNL     1       1.912   7.967  25.466  0.00  0.00    -0.338 N 
HETATM   14  C   UNL     1       2.438   7.209  24.330  0.00  0.00     0.165 A 
HETATM   15  C   UNL     1       2.450   9.328  25.519  0.00  0.00     0.165 A 
HETATM   16  C   UNL     1       3.253   8.206  23.580  0.00  0.00    -0.030 A 
HETATM   17  C   UNL     1       3.238   9.433  24.243  0.00  0.00    -0.032 A 
HETATM   18  C   UNL     1       3.898   8.046  22.365  0.00  0.00     0.046 A 
HETATM   19  C   UNL     1       3.851  10.539  23.691  0.00  0.00     0.012 A 
HETATM   20  C   UNL     1       4.462  10.406  22.432  0.00  0.00     0.037 A 
HETATM   21  C   UNL     1       4.473   9.168  21.768  0.00  0.00     0.068 A 
HETATM   22  O   UNL     1       0.680   6.179  26.018  0.00  0.00    -0.266 OA
BRANCH  21  23
HETATM   23  O   UNL     1       5.035   8.952  20.537  0.00  0.00    -0.356 OA
HETATM   24  C   UNL     1       4.210   8.235  19.624  0.00  0.00     0.210 C 
ENDBRANCH  21  23
ENDBRANCH   1  12
BRANCH   3  25
HETATM   25  N   UNL     1      -2.230  10.380  28.088  0.00  0.00    -0.271 NA
HETATM   26  H   UNL     1      -3.049   9.962  28.502  0.00  0.00     0.127 HD
HETATM   27  H   UNL     1      -2.006  11.324  28.378  0.00  0.00     0.127 HD
ENDBRANCH   3  25
TORSDOF 3
ENDMDL
MODEL 4
REMARK VINA RESULT:    -7.138      2.843      4.165
REMARK INTER + INTRA:          -8.665
REMARK INTER:                  -8.131
REMARK INTRA:                  -0.535
REMARK UNBOUND:                -0.484
REMARK  3 active torsions:
REMARK  status: ('A' for Active; 'I' for Inactive)
REMARK    1  A    between atoms: O_2  and  C_3 
REMARK       I    between atoms: N_10  and  C_11 
REMARK    2  A    between atoms: C_11  and  C_13 
REMARK    3  A    between atoms: C_15  and  N_16 
ROOT
HETATM    1  C   UNL     1       1.891   7.034  17.571  0.00  0.00     0.140 A 
HETATM    2  N   UNL     1       1.401   8.235  17.181  0.00  0.00    -0.212 NA
HETATM    3  C   UNL     1       1.878   9.304  17.815  0.00  0.00     0.200 A 
HETATM    4  N   UNL     1       2.790   9.279  18.782  0.00  0.00    -0.218 NA
HETATM    5  C   UNL     1       3.269   8.094  19.170  0.00  0.00     0.073 A 
HETATM    6  C   UNL     1       4.282   8.076  20.121  0.00  0.00     0.033 A 
HETATM    7  C   UNL     1       4.880   6.887  20.548  0.00  0.00     0.009 A 
HETATM    8  C   UNL     1       4.410   5.672  20.068  0.00  0.00    -0.061 A 
HETATM    9  C   UNL     1       5.106   4.378  20.359  0.00  0.00     0.048 C 
HETATM   10  C   UNL     1       3.349   5.682  19.161  0.00  0.00     0.023 A 
HETATM   11  C   UNL     1       2.814   6.888  18.631  0.00  0.00     0.028 A 
ENDROOT
BRANCH   1  12
HETATM   12  C   UNL     1       1.490   5.833  16.723  0.00  0.00     0.274 C 
HETATM   13  N   UNL     1       0.496   4.943  17.107  0.00  0.00    -0.338 N 
HETATM   14  C   UNL     1       0.195   3.823  16.212  0.00  0.00     0.165 A 
HETATM   15  C   UNL     1      -0.311   4.905  18.329  0.00  0.00     0.165 A 
HETATM   16  C   UNL     1      -0.767   2.992  16.988  0.00  0.00    -0.030 A 
HETATM   17  C   UNL     1      -1.037   3.593  18.217  0.00  0.00    -0.032 A 
HETATM   18  C   UNL     1      -1.302   1.760  16.651  0.00  0.00     0.046 A 
HETATM   19  C   UNL     1      -1.835   2.962  19.150  0.00  0.00     0.012 A 
HETATM   20  C   UNL     1      -2.340   1.687  18.844  0.00  0.00     0.037 A 
HETATM   21  C   UNL     1      -2.063   1.084  17.605  0.00  0.00     0.068 A 
HETATM   22  O   UNL     1       2.037   5.633  15.635  0.00  0.00    -0.266 OA
BRANCH  21  23
HETATM   23  O   UNL     1      -2.504  -0.157  17.229  0.00  0.00    -0.356 OA
HETATM   24  C   UNL     1      -3.780  -0.517  17.749  0.00  0.00     0.210 C 
ENDBRANCH  21  23
ENDBRANCH   1  12
BRANCH   3  25
HETATM   25  N   UNL     1       1.370  10.542  17.484  0.00  0.00    -0.271 NA
HETATM   26  H   UNL     1       2.095  11.133  17.107  0.00  0.00     0.127 HD
HETATM   27  H   UNL     1       0.542  10.419  16.914  0.00  0.00     0.127 HD
ENDBRANCH   3  25
TORSDOF 3
ENDMDL
MODEL 5
REMARK VINA RESULT:    -7.107      3.463      7.592
REMARK INTER + INTRA:          -8.630
REMARK INTER:                  -8.075
REMARK INTRA:                  -0.555
REMARK UNBOUND:                -0.484
REMARK  3 active torsions:
REMARK  status: ('A' for Active; 'I' for Inactive)
REMARK    1  A    between atoms: O_2  and  C_3 
REMARK       I    between atoms: N_10  and  C_11 
REMARK    2  A    between atoms: C_11  and  C_13 
REMARK    3  A    between atoms: C_15  and  N_16 
ROOT
HETATM    1  C   UNL     1       4.813   7.595  21.003  0.00  0.00     0.140 A 
HETATM    2  N   UNL     1       5.905   8.284  20.594  0.00  0.00    -0.212 NA
HETATM    3  C   UNL     1       6.217   8.187  19.303  0.00  0.00     0.200 A 
HETATM    4  N   UNL     1       5.542   7.482  18.401  0.00  0.00    -0.218 NA
HETATM    5  C   UNL     1       4.468   6.799  18.806  0.00  0.00     0.073 A 
HETATM    6  C   UNL     1       3.716   6.131  17.848  0.00  0.00     0.033 A 
HETATM    7  C   UNL     1       2.547   5.435  18.172  0.00  0.00     0.009 A 
HETATM    8  C   UNL     1       2.151   5.340  19.499  0.00  0.00    -0.061 A 
HETATM    9  C   UNL     1       0.833   4.749  19.896  0.00  0.00     0.048 C 
HETATM   10  C   UNL     1       2.939   5.956  20.473  0.00  0.00     0.023 A 
HETATM   11  C   UNL     1       4.061   6.764  20.143  0.00  0.00     0.028 A 
ENDROOT
BRANCH   1  12
HETATM   12  C   UNL     1       4.347   7.854  22.431  0.00  0.00     0.274 C 
HETATM   13  N   UNL     1       4.691   7.030  23.493  0.00  0.00    -0.338 N 
HETATM   14  C   UNL     1       4.185   7.376  24.823  0.00  0.00     0.165 A 
HETATM   15  C   UNL     1       5.476   5.793  23.506  0.00  0.00     0.165 A 
HETATM   16  C   UNL     1       4.586   6.220  25.672  0.00  0.00    -0.030 A 
HETATM   17  C   UNL     1       5.301   5.293  24.914  0.00  0.00    -0.032 A 
HETATM   18  C   UNL     1       4.275   5.984  27.001  0.00  0.00     0.046 A 
HETATM   19  C   UNL     1       5.703   4.093  25.464  0.00  0.00     0.012 A 
HETATM   20  C   UNL     1       5.345   3.814  26.795  0.00  0.00     0.037 A 
HETATM   21  C   UNL     1       4.623   4.751  27.554  0.00  0.00     0.068 A 
HETATM   22  O   UNL     1       3.654   8.844  22.686  0.00  0.00    -0.266 OA
BRANCH  21  23
HETATM   23  O   UNL     1       4.225   4.558  28.851  0.00  0.00    -0.356 OA
HETATM   24  C   UNL     1       2.886   4.957  29.128  0.00  0.00     0.210 C 
ENDBRANCH  21  23
ENDBRANCH   1  12
BRANCH   3  25
HETATM   25  N   UNL     1       7.351   8.832  18.854  0.00  0.00    -0.271 NA
HETATM   26  H   UNL     1       7.676   8.416  17.994  0.00  0.00     0.127 HD
HETATM   27  H   UNL     1       7.181   9.830  18.841  0.00  0.00     0.127 HD
ENDBRANCH   3  25
TORSDOF 3
ENDMDL
MODEL 6
REMARK VINA RESULT:    -7.037      2.884      7.392
REMARK INTER + INTRA:          -8.549
REMARK INTER:                  -8.095
REMARK INTRA:                  -0.455
REMARK UNBOUND:                -0.484
REMARK  3 active torsions:
REMARK  status: ('A' for Active; 'I' for Inactive)
REMARK    1  A    between atoms: O_2  and  C_3 
REMARK       I    between atoms: N_10  and  C_11 
REMARK    2  A    between atoms: C_11  and  C_13 
REMARK    3  A    between atoms: C_15  and  N_16 
ROOT
HETATM    1  C   UNL     1       3.595   7.768  19.122  0.00  0.00     0.140 A 
HETATM    2  N   UNL     1       3.019   8.955  18.815  0.00  0.00    -0.212 NA
HETATM    3  C   UNL     1       2.049   8.925  17.903  0.00  0.00     0.200 A 
HETATM    4  N   UNL     1       1.608   7.832  17.288  0.00  0.00    -0.218 NA
HETATM    5  C   UNL     1       2.180   6.663  17.587  0.00  0.00     0.073 A 
HETATM    6  C   UNL     1       1.661   5.512  17.006  0.00  0.00     0.033 A 
HETATM    7  C   UNL     1       2.161   4.240  17.302  0.00  0.00     0.009 A 
HETATM    8  C   UNL     1       3.255   4.112  18.147  0.00  0.00    -0.061 A 
HETATM    9  C   UNL     1       3.737   2.778  18.629  0.00  0.00     0.048 C 
HETATM   10  C   UNL     1       3.820   5.271  18.682  0.00  0.00     0.023 A 
HETATM   11  C   UNL     1       3.247   6.557  18.483  0.00  0.00     0.028 A 
ENDROOT
BRANCH   1  12
HETATM   12  C   UNL     1       4.567   7.773  20.296  0.00  0.00     0.274 C 
HETATM   13  N   UNL     1       4.240   7.257  21.542  0.00  0.00    -0.338 N 
HETATM   14  C   UNL     1       5.254   7.315  22.596  0.00  0.00     0.165 A 
HETATM   15  C   UNL     1       2.982   6.675  22.017  0.00  0.00     0.165 A 
HETATM   16  C   UNL     1       4.533   6.851  23.814  0.00  0.00    -0.030 A 
HETATM   17  C   UNL     1       3.219   6.511  23.493  0.00  0.00    -0.032 A 
HETATM   18  C   UNL     1       4.996   6.803  25.119  0.00  0.00     0.046 A 
HETATM   19  C   UNL     1       2.328   6.136  24.478  0.00  0.00     0.012 A 
HETATM   20  C   UNL     1       2.767   6.137  25.813  0.00  0.00     0.037 A 
HETATM   21  C   UNL     1       4.091   6.483  26.131  0.00  0.00     0.068 A 
HETATM   22  O   UNL     1       5.707   8.225  20.153  0.00  0.00    -0.266 OA
BRANCH  21  23
HETATM   23  O   UNL     1       4.600   6.521  27.403  0.00  0.00    -0.356 OA
HETATM   24  C   UNL     1       3.863   7.330  28.315  0.00  0.00     0.210 C 
ENDBRANCH  21  23
ENDBRANCH   1  12
BRANCH   3  25
HETATM   25  N   UNL     1       1.471  10.118  17.523  0.00  0.00    -0.271 NA
HETATM   26  H   UNL     1       1.863  10.440  16.652  0.00  0.00     0.127 HD
HETATM   27  H   UNL     1       0.463  10.024  17.561  0.00  0.00     0.127 HD
ENDBRANCH   3  25
TORSDOF 3
ENDMDL
MODEL 7
REMARK VINA RESULT:    -7.027      6.177      8.825
REMARK INTER + INTRA:          -8.538
REMARK INTER:                  -8.176
REMARK INTRA:                  -0.361
REMARK UNBOUND:                -0.484
REMARK  3 active torsions:
REMARK  status: ('A' for Active; 'I' for Inactive)
REMARK    1  A    between atoms: O_2  and  C_3 
REMARK       I    between atoms: N_10  and  C_11 
REMARK    2  A    between atoms: C_11  and  C_13 
REMARK    3  A    between atoms: C_15  and  N_16 
ROOT
HETATM    1  C   UNL     1       1.220   7.651  27.413  0.00  0.00     0.140 A 
HETATM    2  N   UNL     1       1.739   7.208  28.584  0.00  0.00    -0.212 NA
HETATM    3  C   UNL     1       1.323   7.824  29.688  0.00  0.00     0.200 A 
HETATM    4  N   UNL     1       0.444   8.821  29.725  0.00  0.00    -0.218 NA
HETATM    5  C   UNL     1      -0.064   9.260  28.570  0.00  0.00     0.073 A 
HETATM    6  C   UNL     1      -1.044  10.245  28.618  0.00  0.00     0.033 A 
HETATM    7  C   UNL     1      -1.670  10.727  27.465  0.00  0.00     0.009 A 
HETATM    8  C   UNL     1      -1.260  10.269  26.220  0.00  0.00    -0.061 A 
HETATM    9  C   UNL     1      -1.992  10.623  24.961  0.00  0.00     0.048 C 
HETATM   10  C   UNL     1      -0.231   9.328  26.164  0.00  0.00     0.023 A 
HETATM   11  C   UNL     1       0.329   8.744  27.333  0.00  0.00     0.028 A 
ENDROOT
BRANCH   1  12
HETATM   12  C   UNL     1       1.548   6.827  26.174  0.00  0.00     0.274 C 
HETATM   13  N   UNL     1       2.352   7.304  25.148  0.00  0.00    -0.338 N 
HETATM   14  C   UNL     1       2.600   6.425  24.004  0.00  0.00     0.165 A 
HETATM   15  C   UNL     1       2.991   8.613  24.987  0.00  0.00     0.165 A 
HETATM   16  C   UNL     1       3.333   7.289  23.038  0.00  0.00    -0.030 A 
HETATM   17  C   UNL     1       3.533   8.557  23.585  0.00  0.00    -0.032 A 
HETATM   18  C   UNL     1       3.727   6.988  21.745  0.00  0.00     0.046 A 
HETATM   19  C   UNL     1       4.114   9.562  22.840  0.00  0.00     0.012 A 
HETATM   20  C   UNL     1       4.469   9.287  21.507  0.00  0.00     0.037 A 
HETATM   21  C   UNL     1       4.262   8.009  20.960  0.00  0.00     0.068 A 
HETATM   22  O   UNL     1       1.115   5.676  26.062  0.00  0.00    -0.266 OA
BRANCH  21  23
HETATM   23  O   UNL     1       4.568   7.658  19.671  0.00  0.00    -0.356 OA
HETATM   24  C   UNL     1       5.940   7.809  19.322  0.00  0.00     0.210 C 
ENDBRANCH  21  23
ENDBRANCH   1  12
BRANCH   3  25
HETATM   25  N   UNL     1       1.864   7.439  30.896  0.00  0.00    -0.271 NA
HETATM   26  H   UNL     1       1.500   6.540  31.176  0.00  0.00     0.127 HD
HETATM   27  H   UNL     1       2.872   7.528  30.851  0.00  0.00     0.127 HD
ENDBRANCH   3  25
TORSDOF 3
ENDMDL
MODEL 8
REMARK VINA RESULT:    -7.015      3.543      7.739
REMARK INTER + INTRA:          -8.524
REMARK INTER:                  -8.036
REMARK INTRA:                  -0.488
REMARK UNBOUND:                -0.484
REMARK  3 active torsions:
REMARK  status: ('A' for Active; 'I' for Inactive)
REMARK    1  A    between atoms: O_2  and  C_3 
REMARK       I    between atoms: N_10  and  C_11 
REMARK    2  A    between atoms: C_11  and  C_13 
REMARK    3  A    between atoms: C_15  and  N_16 
ROOT
HETATM    1  C   UNL     1       4.808   6.006  20.092  0.00  0.00     0.140 A 
HETATM    2  N   UNL     1       5.933   6.751  19.976  0.00  0.00    -0.212 NA
HETATM    3  C   UNL     1       5.867   7.802  19.163  0.00  0.00     0.200 A 
HETATM    4  N   UNL     1       4.792   8.172  18.473  0.00  0.00    -0.218 NA
HETATM    5  C   UNL     1       3.684   7.435  18.584  0.00  0.00     0.073 A 
HETATM    6  C   UNL     1       2.538   7.870  17.929  0.00  0.00     0.033 A 
HETATM    7  C   UNL     1       1.320   7.192  18.031  0.00  0.00     0.009 A 
HETATM    8  C   UNL     1       1.254   6.005  18.749  0.00  0.00    -0.061 A 
HETATM    9  C   UNL     1      -0.046   5.317  19.030  0.00  0.00     0.048 C 
HETATM   10  C   UNL     1       2.418   5.530  19.355  0.00  0.00     0.023 A 
HETATM   11  C   UNL     1       3.631   6.272  19.357  0.00  0.00     0.028 A 
ENDROOT
BRANCH   1  12
HETATM   12  C   UNL     1       4.823   4.920  21.162  0.00  0.00     0.274 C 
HETATM   13  N   UNL     1       4.571   5.183  22.501  0.00  0.00    -0.338 N 
HETATM   14  C   UNL     1       4.613   4.062  23.441  0.00  0.00     0.165 A 
HETATM   15  C   UNL     1       4.298   6.456  23.173  0.00  0.00     0.165 A 
HETATM   16  C   UNL     1       4.475   4.706  24.776  0.00  0.00    -0.030 A 
HETATM   17  C   UNL     1       4.325   6.085  24.630  0.00  0.00    -0.032 A 
HETATM   18  C   UNL     1       4.549   4.114  26.026  0.00  0.00     0.046 A 
HETATM   19  C   UNL     1       4.268   6.909  25.735  0.00  0.00     0.012 A 
HETATM   20  C   UNL     1       4.398   6.328  27.009  0.00  0.00     0.037 A 
HETATM   21  C   UNL     1       4.552   4.939  27.151  0.00  0.00     0.068 A 
HETATM   22  O   UNL     1       5.042   3.746  20.849  0.00  0.00    -0.266 OA
BRANCH  21  23
HETATM   23  O   UNL     1       4.696   4.292  28.351  0.00  0.00    -0.356 OA
HETATM   24  C   UNL     1       4.987   5.144  29.454  0.00  0.00     0.210 C 
ENDBRANCH  21  23
ENDBRANCH   1  12
BRANCH   3  25
HETATM   25  N   UNL     1       7.005   8.558  18.976  0.00  0.00    -0.271 NA
HETATM   26  H   UNL     1       7.809   7.962  18.853  0.00  0.00     0.127 HD
HETATM   27  H   UNL     1       6.832   9.244  18.252  0.00  0.00     0.127 HD
ENDBRANCH   3  25
TORSDOF 3
ENDMDL
MODEL 9
REMARK VINA RESULT:    -6.888      7.944      9.112
REMARK INTER + INTRA:          -8.378
REMARK INTER:                  -7.894
REMARK INTRA:                  -0.484
REMARK UNBOUND:                -0.484
REMARK  3 active torsions:
REMARK  status: ('A' for Active; 'I' for Inactive)
REMARK    1  A    between atoms: O_2  and  C_3 
REMARK       I    between atoms: N_10  and  C_11 
REMARK    2  A    between atoms: C_11  and  C_13 
REMARK    3  A    between atoms: C_15  and  N_16 
ROOT
HETATM    1  C   UNL     1       2.158   7.392  26.791  0.00  0.00     0.140 A 
HETATM    2  N   UNL     1       3.087   6.857  25.963  0.00  0.00    -0.212 NA
HETATM    3  C   UNL     1       4.230   6.472  26.526  0.00  0.00     0.200 A 
HETATM    4  N   UNL     1       4.518   6.566  27.821  0.00  0.00    -0.218 NA
HETATM    5  C   UNL     1       3.603   7.098  28.636  0.00  0.00     0.073 A 
HETATM    6  C   UNL     1       3.872   7.118  29.999  0.00  0.00     0.033 A 
HETATM    7  C   UNL     1       2.952   7.607  30.931  0.00  0.00     0.009 A 
HETATM    8  C   UNL     1       1.757   8.158  30.490  0.00  0.00    -0.061 A 
HETATM    9  C   UNL     1       0.665   8.551  31.438  0.00  0.00     0.048 C 
HETATM   10  C   UNL     1       1.510   8.198  29.117  0.00  0.00     0.023 A 
HETATM   11  C   UNL     1       2.384   7.597  28.170  0.00  0.00     0.028 A 
ENDROOT
BRANCH   1  12
HETATM   12  C   UNL     1       0.785   7.658  26.184  0.00  0.00     0.274 C 
HETATM   13  N   UNL     1       0.492   8.810  25.468  0.00  0.00    -0.338 N 
HETATM   14  C   UNL     1      -0.862   8.959  24.931  0.00  0.00     0.165 A 
HETATM   15  C   UNL     1       1.331   9.976  25.180  0.00  0.00     0.165 A 
HETATM   16  C   UNL     1      -0.883  10.345  24.387  0.00  0.00    -0.030 A 
HETATM   17  C   UNL     1       0.366  10.945  24.555  0.00  0.00    -0.032 A 
HETATM   18  C   UNL     1      -1.953  11.039  23.848  0.00  0.00     0.046 A 
HETATM   19  C   UNL     1       0.565  12.265  24.208  0.00  0.00     0.012 A 
HETATM   20  C   UNL     1      -0.527  12.999  23.712  0.00  0.00     0.037 A 
HETATM   21  C   UNL     1      -1.783  12.391  23.547  0.00  0.00     0.068 A 
HETATM   22  O   UNL     1      -0.115   6.820  26.298  0.00  0.00    -0.266 OA
BRANCH  21  23
HETATM   23  O   UNL     1      -2.901  13.032  23.081  0.00  0.00    -0.356 OA
HETATM   24  C   UNL     1      -3.046  13.022  21.665  0.00  0.00     0.210 C 
ENDBRANCH  21  23
ENDBRANCH   1  12
BRANCH   3  25
HETATM   25  N   UNL     1       5.223   5.968  25.712  0.00  0.00    -0.271 NA
HETATM   26  H   UNL     1       5.695   5.201  26.165  0.00  0.00     0.127 HD
HETATM   27  H   UNL     1       4.838   5.786  24.793  0.00  0.00     0.127 HD
ENDBRANCH   3  25
TORSDOF 3
ENDMDL
