MODEL 1
REMARK minimizedAffinity -8.19430351
REMARK minimizedRMSD -1
REMARK  4 active torsions:
REMARK  status: ('A' for Active; 'I' for Inactive)
REMARK    1  A    between atoms: N_1  and  C_2 
REMARK    2  A    between atoms: C_7  and  C_9 
REMARK       I    between atoms: C_9  and  N_11 
REMARK    3  A    between atoms: N_11  and  C_12 
REMARK    4  A    between atoms: C_24  and  C_25 
ROOT
HETATM    1  C   UNL     1       3.307  10.986  23.081  0.00  0.00     0.153 C 
HETATM    2  C   UNL     1       1.908  10.969  23.668  0.00  0.00    -0.020 A 
HETATM    3  C   UNL     1       0.963  11.991  23.653  0.00  0.00     0.010 A 
HETATM    4  C   UNL     1      -0.342  11.701  24.050  0.00  0.00     0.001 A 
HETATM    5  C   UNL     1      -0.693  10.401  24.417  0.00  0.00     0.001 A 
HETATM    6  C   UNL     1       0.266   9.380  24.430  0.00  0.00     0.013 A 
HETATM    7  C   UNL     1       1.585   9.656  24.096  0.00  0.00    -0.016 A 
HETATM    8  C   UNL     1       2.790   8.813  24.039  0.00  0.00    -0.003 A 
HETATM    9  C   UNL     1       3.842   9.629  23.508  0.00  0.00    -0.019 A 
HETATM   10  C   UNL     1       5.125   9.149  23.295  0.00  0.00     0.010 A 
HETATM   11  C   UNL     1       5.387   7.826  23.622  0.00  0.00     0.002 A 
HETATM   12  C   UNL     1       4.374   7.005  24.148  0.00  0.00     0.016 A 
HETATM   13  C   UNL     1       3.055   7.472  24.372  0.00  0.00     0.022 A 
ENDROOT
BRANCH   1  14
HETATM   14  N   UNL     1       4.134  12.137  23.391  0.00  0.00    -0.343 N 
HETATM   15  C   UNL     1       4.533  12.319  24.709  0.00  0.00     0.273 C 
HETATM   16  O   UNL     1       4.296  11.457  25.552  0.00  0.00    -0.266 OA
HETATM   17  H   UNL     1       4.329  12.849  22.693  0.00  0.00     0.163 HD
BRANCH  15  18
HETATM   18  C   UNL     1       5.248  13.587  25.096  0.00  0.00     0.150 A 
HETATM   19  C   UNL     1       4.537  14.748  25.374  0.00  0.00     0.086 A 
HETATM   20  C   UNL     1       5.308  15.823  25.743  0.00  0.00     0.146 A 
HETATM   21 CL   UNL     1       2.838  14.992  25.286  0.00  0.00    -0.080 Cl
HETATM   22  N   UNL     1       6.653  15.794  25.810  0.00  0.00    -0.229 NA
HETATM   23  C   UNL     1       7.251  14.646  25.481  0.00  0.00     0.199 A 
HETATM   24  N   UNL     1       6.612  13.516  25.145  0.00  0.00    -0.211 NA
BRANCH  23  25
HETATM   25  N   UNL     1       8.625  14.659  25.522  0.00  0.00    -0.271 NA
HETATM   26  H   UNL     1       8.944  15.428  26.098  0.00  0.00     0.127 HD
HETATM   27  H   UNL     1       9.013  13.746  25.702  0.00  0.00     0.127 HD
ENDBRANCH  23  25
ENDBRANCH  15  18
ENDBRANCH   1  14
BRANCH  13  28
HETATM   28  C   UNL     1       2.071   6.542  24.950  0.00  0.00     0.140 A 
HETATM   29  N   UNL     1       1.252   6.786  25.957  0.00  0.00    -0.227 NA
HETATM   30  C   UNL     1       0.464   5.673  26.116  0.00  0.00     0.103 A 
HETATM   31  C   UNL     1      -0.621   5.443  26.965  0.00  0.00     0.150 A 
HETATM   32  C   UNL     1       0.874   4.663  25.259  0.00  0.00     0.065 A 
HETATM   33  N   UNL     1      -1.240   4.232  26.971  0.00  0.00    -0.271 NA
HETATM   34  C   UNL     1      -0.779   3.263  26.144  0.00  0.00     0.118 A 
HETATM   35  C   UNL     1       0.277   3.405  25.248  0.00  0.00     0.051 A 
HETATM   36  N   UNL     1       1.890   5.234  24.530  0.00  0.00    -0.338 N 
HETATM   37  H   UNL     1       2.392   4.791  23.777  0.00  0.00     0.167 HD
ENDBRANCH  13  28
TORSDOF 4
ENDMDL
MODEL 2
REMARK minimizedAffinity -7.814785
REMARK minimizedRMSD -1
REMARK  4 active torsions:
REMARK  status: ('A' for Active; 'I' for Inactive)
REMARK    1  A    between atoms: N_1  and  C_2 
REMARK    2  A    between atoms: C_7  and  C_9 
REMARK       I    between atoms: C_9  and  N_11 
REMARK    3  A    between atoms: N_11  and  C_12 
REMARK    4  A    between atoms: C_24  and  C_25 
ROOT
HETATM    1  C   UNL     1       2.861   9.091  22.905  0.00  0.00     0.153 C 
HETATM    2  C   UNL     1       4.320   8.928  23.285  0.00  0.00    -0.020 A 
HETATM    3  C   UNL     1       5.153   7.842  23.034  0.00  0.00     0.010 A 
HETATM    4  C   UNL     1       6.521   7.978  23.268  0.00  0.00     0.001 A 
HETATM    5  C   UNL     1       7.040   9.195  23.713  0.00  0.00     0.001 A 
HETATM    6  C   UNL     1       6.193  10.281  23.966  0.00  0.00     0.013 A 
HETATM    7  C   UNL     1       4.821  10.153  23.796  0.00  0.00    -0.016 A 
HETATM    8  C   UNL     1       3.705  11.091  23.996  0.00  0.00    -0.003 A 
HETATM    9  C   UNL     1       2.520  10.429  23.539  0.00  0.00    -0.019 A 
HETATM   10  C   UNL     1       1.272  11.032  23.560  0.00  0.00     0.010 A 
HETATM   11  C   UNL     1       1.183  12.326  24.054  0.00  0.00     0.002 A 
HETATM   12  C   UNL     1       2.330  12.997  24.512  0.00  0.00     0.016 A 
HETATM   13  C   UNL     1       3.616  12.402  24.498  0.00  0.00     0.022 A 
ENDROOT
BRANCH   1  14
HETATM   14  N   UNL     1       1.976   7.982  23.210  0.00  0.00    -0.343 N 
HETATM   15  C   UNL     1       1.999   7.464  24.498  0.00  0.00     0.273 C 
HETATM   16  O   UNL     1       2.656   8.017  25.376  0.00  0.00    -0.266 OA
HETATM   17  H   UNL     1       1.434   7.526  22.482  0.00  0.00     0.163 HD
BRANCH  15  18
HETATM   18  C   UNL     1       1.221   6.210  24.804  0.00  0.00     0.150 A 
HETATM   19  C   UNL     1       1.495   5.022  24.137  0.00  0.00     0.086 A 
HETATM   20  C   UNL     1       0.732   3.950  24.532  0.00  0.00     0.146 A 
HETATM   21 CL   UNL     1       2.638   4.756  22.883  0.00  0.00    -0.080 Cl
HETATM   22  N   UNL     1      -0.233   4.020  25.468  0.00  0.00    -0.229 NA
HETATM   23  C   UNL     1      -0.454   5.215  26.022  0.00  0.00     0.199 A 
HETATM   24  N   UNL     1       0.245   6.327  25.755  0.00  0.00    -0.211 NA
BRANCH  23  25
HETATM   25  N   UNL     1      -1.472   5.262  26.946  0.00  0.00    -0.271 NA
HETATM   26  H   UNL     1      -1.668   4.330  27.288  0.00  0.00     0.127 HD
HETATM   27  H   UNL     1      -1.337   5.993  27.628  0.00  0.00     0.127 HD
ENDBRANCH  23  25
ENDBRANCH  15  18
ENDBRANCH   1  14
BRANCH  13  28
HETATM   28  C   UNL     1       4.752  13.179  25.023  0.00  0.00     0.140 A 
HETATM   29  N   UNL     1       4.761  13.922  26.115  0.00  0.00    -0.227 NA
HETATM   30  C   UNL     1       6.038  14.404  26.265  0.00  0.00     0.103 A 
HETATM   31  C   UNL     1       6.610  15.152  27.296  0.00  0.00     0.150 A 
HETATM   32  C   UNL     1       6.823  14.043  25.180  0.00  0.00     0.065 A 
HETATM   33  N   UNL     1       7.908  15.549  27.214  0.00  0.00    -0.271 NA
HETATM   34  C   UNL     1       8.624  15.205  26.116  0.00  0.00     0.118 A 
HETATM   35  C   UNL     1       8.150  14.444  25.052  0.00  0.00     0.051 A 
HETATM   36  N   UNL     1       5.990  13.267  24.408  0.00  0.00    -0.338 N 
HETATM   37  H   UNL     1       6.250  12.798  23.555  0.00  0.00     0.167 HD
ENDBRANCH  13  28
TORSDOF 4
ENDMDL
MODEL 3
REMARK minimizedAffinity -7.14163876
REMARK minimizedRMSD -1
REMARK  4 active torsions:
REMARK  status: ('A' for Active; 'I' for Inactive)
REMARK    1  A    between atoms: N_1  and  C_2 
REMARK    2  A    between atoms: C_7  and  C_9 
REMARK       I    between atoms: C_9  and  N_11 
REMARK    3  A    between atoms: N_11  and  C_12 
REMARK    4  A    between atoms: C_24  and  C_25 
ROOT
HETATM    1  C   UNL     1       2.923   6.465  26.444  0.00  0.00     0.153 C 
HETATM    2  C   UNL     1       3.248   6.937  25.040  0.00  0.00    -0.020 A 
HETATM    3  C   UNL     1       4.139   6.372  24.132  0.00  0.00     0.010 A 
HETATM    4  C   UNL     1       4.130   6.825  22.813  0.00  0.00     0.001 A 
HETATM    5  C   UNL     1       3.217   7.802  22.413  0.00  0.00     0.001 A 
HETATM    6  C   UNL     1       2.326   8.367  23.334  0.00  0.00     0.013 A 
HETATM    7  C   UNL     1       2.355   7.974  24.666  0.00  0.00    -0.016 A 
HETATM    8  C   UNL     1       1.574   8.393  25.840  0.00  0.00    -0.003 A 
HETATM    9  C   UNL     1       1.970   7.546  26.925  0.00  0.00    -0.019 A 
HETATM   10  C   UNL     1       1.415   7.646  28.192  0.00  0.00     0.010 A 
HETATM   11  C   UNL     1       0.446   8.617  28.403  0.00  0.00     0.002 A 
HETATM   12  C   UNL     1       0.042   9.463  27.356  0.00  0.00     0.016 A 
HETATM   13  C   UNL     1       0.592   9.378  26.053  0.00  0.00     0.022 A 
ENDROOT
BRANCH   1  14
HETATM   14  N   UNL     1       4.047   6.157  27.309  0.00  0.00    -0.343 N 
HETATM   15  C   UNL     1       3.864   5.206  28.304  0.00  0.00     0.273 C 
HETATM   16  O   UNL     1       2.820   4.561  28.359  0.00  0.00    -0.266 OA
HETATM   17  H   UNL     1       4.909   6.692  27.262  0.00  0.00     0.163 HD
BRANCH  15  18
HETATM   18  C   UNL     1       4.952   4.985  29.323  0.00  0.00     0.150 A 
HETATM   19  C   UNL     1       6.042   4.173  29.035  0.00  0.00     0.086 A 
HETATM   20  C   UNL     1       6.974   4.081  30.040  0.00  0.00     0.146 A 
HETATM   21 CL   UNL     1       6.337   3.271  27.602  0.00  0.00    -0.080 Cl
HETATM   22  N   UNL     1       6.855   4.692  31.233  0.00  0.00    -0.229 NA
HETATM   23  C   UNL     1       5.749   5.416  31.435  0.00  0.00     0.199 A 
HETATM   24  N   UNL     1       4.787   5.619  30.523  0.00  0.00    -0.211 NA
BRANCH  23  25
HETATM   25  N   UNL     1       5.638   5.997  32.676  0.00  0.00    -0.271 NA
HETATM   26  H   UNL     1       6.550   6.047  33.114  0.00  0.00     0.127 HD
HETATM   27  H   UNL     1       5.079   6.836  32.658  0.00  0.00     0.127 HD
ENDBRANCH  23  25
ENDBRANCH  15  18
ENDBRANCH   1  14
BRANCH  13  28
HETATM   28  C   UNL     1       0.120  10.327  25.031  0.00  0.00     0.140 A 
HETATM   29  N   UNL     1       0.867  11.142  24.307  0.00  0.00    -0.227 NA
HETATM   30  C   UNL     1       0.028  11.791  23.434  0.00  0.00     0.103 A 
HETATM   31  C   UNL     1       0.312  12.677  22.393  0.00  0.00     0.150 A 
HETATM   32  C   UNL     1      -1.292  11.455  23.692  0.00  0.00     0.065 A 
HETATM   33  N   UNL     1      -0.699  13.228  21.669  0.00  0.00    -0.271 NA
HETATM   34  C   UNL     1      -1.975  12.900  21.984  0.00  0.00     0.118 A 
HETATM   35  C   UNL     1      -2.355  12.011  22.984  0.00  0.00     0.051 A 
HETATM   36  N   UNL     1      -1.211  10.528  24.704  0.00  0.00    -0.338 N 
HETATM   37  H   UNL     1      -1.990  10.035  25.111  0.00  0.00     0.167 HD
ENDBRANCH  13  28
TORSDOF 4
ENDMDL
MODEL 4
REMARK minimizedAffinity -7.13980913
REMARK minimizedRMSD -1
REMARK  4 active torsions:
REMARK  status: ('A' for Active; 'I' for Inactive)
REMARK    1  A    between atoms: N_1  and  C_2 
REMARK    2  A    between atoms: C_7  and  C_9 
REMARK       I    between atoms: C_9  and  N_11 
REMARK    3  A    between atoms: N_11  and  C_12 
REMARK    4  A    between atoms: C_24  and  C_25 
ROOT
HETATM    1  C   UNL     1       3.054   6.651  26.892  0.00  0.00     0.153 C 
HETATM    2  C   UNL     1       3.464   7.151  25.520  0.00  0.00    -0.020 A 
HETATM    3  C   UNL     1       4.464   6.652  24.692  0.00  0.00     0.010 A 
HETATM    4  C   UNL     1       4.536   7.109  23.377  0.00  0.00     0.001 A 
HETATM    5  C   UNL     1       3.596   8.023  22.899  0.00  0.00     0.001 A 
HETATM    6  C   UNL     1       2.594   8.522  23.741  0.00  0.00     0.013 A 
HETATM    7  C   UNL     1       2.537   8.126  25.071  0.00  0.00    -0.016 A 
HETATM    8  C   UNL     1       1.633   8.486  26.174  0.00  0.00    -0.003 A 
HETATM    9  C   UNL     1       1.992   7.663  27.290  0.00  0.00    -0.019 A 
HETATM   10  C   UNL     1       1.327   7.719  28.506  0.00  0.00     0.010 A 
HETATM   11  C   UNL     1       0.280   8.621  28.633  0.00  0.00     0.002 A 
HETATM   12  C   UNL     1      -0.091   9.443  27.554  0.00  0.00     0.016 A 
HETATM   13  C   UNL     1       0.572   9.401  26.302  0.00  0.00     0.022 A 
ENDROOT
BRANCH   1  14
HETATM   14  N   UNL     1       4.120   6.417  27.850  0.00  0.00    -0.343 N 
HETATM   15  C   UNL     1       3.936   5.423  28.802  0.00  0.00     0.273 C 
HETATM   16  O   UNL     1       2.954   4.686  28.746  0.00  0.00    -0.266 OA
HETATM   17  H   UNL     1       4.931   7.027  27.895  0.00  0.00     0.163 HD
BRANCH  15  18
HETATM   18  C   UNL     1       4.944   5.267  29.911  0.00  0.00     0.150 A 
HETATM   19  C   UNL     1       4.585   5.488  31.235  0.00  0.00     0.086 A 
HETATM   20  C   UNL     1       5.591   5.283  32.147  0.00  0.00     0.146 A 
HETATM   21 CL   UNL     1       3.064   6.006  31.844  0.00  0.00    -0.080 Cl
HETATM   22  N   UNL     1       6.845   4.922  31.813  0.00  0.00    -0.229 NA
HETATM   23  C   UNL     1       7.107   4.776  30.511  0.00  0.00     0.199 A 
HETATM   24  N   UNL     1       6.206   4.907  29.527  0.00  0.00    -0.211 NA
BRANCH  23  25
HETATM   25  N   UNL     1       8.404   4.445  30.200  0.00  0.00    -0.271 NA
HETATM   26  H   UNL     1       8.864   4.056  31.014  0.00  0.00     0.127 HD
HETATM   27  H   UNL     1       8.473   3.934  29.334  0.00  0.00     0.127 HD
ENDBRANCH  23  25
ENDBRANCH  15  18
ENDBRANCH   1  14
BRANCH  13  28
HETATM   28  C   UNL     1       0.124  10.320  25.243  0.00  0.00     0.140 A 
HETATM   29  N   UNL     1       0.884  11.137  24.535  0.00  0.00    -0.227 NA
HETATM   30  C   UNL     1       0.070  11.751  23.615  0.00  0.00     0.103 A 
HETATM   31  C   UNL     1       0.379  12.623  22.570  0.00  0.00     0.150 A 
HETATM   32  C   UNL     1      -1.253  11.392  23.824  0.00  0.00     0.065 A 
HETATM   33  N   UNL     1      -0.611  13.139  21.793  0.00  0.00    -0.271 NA
HETATM   34  C   UNL     1      -1.893  12.790  22.060  0.00  0.00     0.118 A 
HETATM   35  C   UNL     1      -2.297  11.912  23.062  0.00  0.00     0.051 A 
HETATM   36  N   UNL     1      -1.196  10.486  24.856  0.00  0.00    -0.338 N 
HETATM   37  H   UNL     1      -1.981   9.985  25.241  0.00  0.00     0.167 HD
ENDBRANCH  13  28
TORSDOF 4
ENDMDL
MODEL 5
REMARK minimizedAffinity -6.98366356
REMARK minimizedRMSD -1
REMARK  4 active torsions:
REMARK  status: ('A' for Active; 'I' for Inactive)
REMARK    1  A    between atoms: N_1  and  C_2 
REMARK    2  A    between atoms: C_7  and  C_9 
REMARK       I    between atoms: C_9  and  N_11 
REMARK    3  A    between atoms: N_11  and  C_12 
REMARK    4  A    between atoms: C_24  and  C_25 
ROOT
HETATM    1  C   UNL     1       1.650   7.707  26.997  0.00  0.00     0.153 C 
HETATM    2  C   UNL     1       1.730   7.675  28.512  0.00  0.00    -0.020 A 
HETATM    3  C   UNL     1       0.796   8.152  29.427  0.00  0.00     0.010 A 
HETATM    4  C   UNL     1       0.953   7.827  30.774  0.00  0.00     0.001 A 
HETATM    5  C   UNL     1       2.008   7.010  31.182  0.00  0.00     0.001 A 
HETATM    6  C   UNL     1       2.943   6.536  30.253  0.00  0.00     0.013 A 
HETATM    7  C   UNL     1       2.842   6.893  28.915  0.00  0.00    -0.016 A 
HETATM    8  C   UNL     1       3.668   6.574  27.740  0.00  0.00    -0.003 A 
HETATM    9  C   UNL     1       2.998   7.129  26.601  0.00  0.00    -0.019 A 
HETATM   10  C   UNL     1       3.487   6.999  25.310  0.00  0.00     0.010 A 
HETATM   11  C   UNL     1       4.678   6.308  25.132  0.00  0.00     0.002 A 
HETATM   12  C   UNL     1       5.356   5.756  26.232  0.00  0.00     0.016 A 
HETATM   13  C   UNL     1       4.875   5.874  27.560  0.00  0.00     0.022 A 
ENDROOT
BRANCH   1  14
HETATM   14  N   UNL     1       1.280   8.971  26.387  0.00  0.00    -0.343 N 
HETATM   15  C   UNL     1       0.449   8.941  25.275  0.00  0.00     0.273 C 
HETATM   16  O   UNL     1      -0.054   7.881  24.907  0.00  0.00    -0.266 OA
HETATM   17  H   UNL     1       1.697   9.846  26.693  0.00  0.00     0.163 HD
BRANCH  15  18
HETATM   18  C   UNL     1       0.181  10.216  24.518  0.00  0.00     0.150 A 
HETATM   19  C   UNL     1       1.228  10.972  24.006  0.00  0.00     0.086 A 
HETATM   20  C   UNL     1       0.844  12.094  23.313  0.00  0.00     0.146 A 
HETATM   21 CL   UNL     1       2.914  10.682  24.161  0.00  0.00    -0.080 Cl
HETATM   22  N   UNL     1      -0.438  12.473  23.150  0.00  0.00    -0.229 NA
HETATM   23  C   UNL     1      -1.373  11.706  23.716  0.00  0.00     0.199 A 
HETATM   24  N   UNL     1      -1.133  10.567  24.383  0.00  0.00    -0.211 NA
BRANCH  23  25
HETATM   25  N   UNL     1      -2.669  12.140  23.565  0.00  0.00    -0.271 NA
HETATM   26  H   UNL     1      -2.726  12.785  22.786  0.00  0.00     0.127 HD
HETATM   27  H   UNL     1      -3.334  11.383  23.597  0.00  0.00     0.127 HD
ENDBRANCH  23  25
ENDBRANCH  15  18
ENDBRANCH   1  14
BRANCH  13  28
HETATM   28  C   UNL     1       5.671   5.283  28.648  0.00  0.00     0.140 A 
HETATM   29  N   UNL     1       6.965   5.446  28.857  0.00  0.00    -0.227 NA
HETATM   30  C   UNL     1       7.275   4.779  30.016  0.00  0.00     0.103 A 
HETATM   31  C   UNL     1       8.472   4.714  30.733  0.00  0.00     0.150 A 
HETATM   32  C   UNL     1       6.169   4.088  30.488  0.00  0.00     0.065 A 
HETATM   33  N   UNL     1       8.555   3.952  31.856  0.00  0.00    -0.271 NA
HETATM   34  C   UNL     1       7.460   3.263  32.257  0.00  0.00     0.118 A 
HETATM   35  C   UNL     1       6.220   3.285  31.624  0.00  0.00     0.051 A 
HETATM   36  N   UNL     1       5.166   4.422  29.609  0.00  0.00    -0.338 N 
HETATM   37  H   UNL     1       4.205   4.128  29.677  0.00  0.00     0.167 HD
ENDBRANCH  13  28
TORSDOF 4
ENDMDL
MODEL 6
REMARK minimizedAffinity -6.47461653
REMARK minimizedRMSD -1
REMARK  4 active torsions:
REMARK  status: ('A' for Active; 'I' for Inactive)
REMARK    1  A    between atoms: N_1  and  C_2 
REMARK    2  A    between atoms: C_7  and  C_9 
REMARK       I    between atoms: C_9  and  N_11 
REMARK    3  A    between atoms: N_11  and  C_12 
REMARK    4  A    between atoms: C_24  and  C_25 
ROOT
HETATM    1  C   UNL     1       1.488   7.207  24.289  0.00  0.00     0.153 C 
HETATM    2  C   UNL     1       1.051   6.894  25.707  0.00  0.00    -0.020 A 
HETATM    3  C   UNL     1      -0.238   6.934  26.233  0.00  0.00     0.010 A 
HETATM    4  C   UNL     1      -0.461   6.396  27.500  0.00  0.00     0.001 A 
HETATM    5  C   UNL     1       0.586   5.800  28.204  0.00  0.00     0.001 A 
HETATM    6  C   UNL     1       1.879   5.768  27.668  0.00  0.00     0.013 A 
HETATM    7  C   UNL     1       2.139   6.348  26.434  0.00  0.00    -0.016 A 
HETATM    8  C   UNL     1       3.372   6.484  25.642  0.00  0.00    -0.003 A 
HETATM    9  C   UNL     1       2.998   7.072  24.390  0.00  0.00    -0.019 A 
HETATM   10  C   UNL     1       3.914   7.327  23.381  0.00  0.00     0.010 A 
HETATM   11  C   UNL     1       5.244   7.002  23.612  0.00  0.00     0.002 A 
HETATM   12  C   UNL     1       5.638   6.427  24.833  0.00  0.00     0.016 A 
HETATM   13  C   UNL     1       4.720   6.155  25.877  0.00  0.00     0.022 A 
ENDROOT
BRANCH   1  14
HETATM   14  N   UNL     1       0.984   8.436  23.703  0.00  0.00    -0.343 N 
HETATM   15  C   UNL     1       1.134   9.613  24.424  0.00  0.00     0.273 C 
HETATM   16  O   UNL     1       1.788   9.623  25.465  0.00  0.00    -0.266 OA
HETATM   17  H   UNL     1       0.442   8.426  22.844  0.00  0.00     0.163 HD
BRANCH  15  18
HETATM   18  C   UNL     1       0.476  10.874  23.926  0.00  0.00     0.150 A 
HETATM   19  C   UNL     1       1.226  12.014  23.667  0.00  0.00     0.086 A 
HETATM   20  C   UNL     1       0.507  13.082  23.190  0.00  0.00     0.146 A 
HETATM   21 CL   UNL     1       2.914  12.240  23.895  0.00  0.00    -0.080 Cl
HETATM   22  N   UNL     1      -0.827  13.067  23.006  0.00  0.00    -0.229 NA
HETATM   23  C   UNL     1      -1.469  11.940  23.325  0.00  0.00     0.199 A 
HETATM   24  N   UNL     1      -0.880  10.816  23.760  0.00  0.00    -0.211 NA
BRANCH  23  25
HETATM   25  N   UNL     1      -2.834  11.968  23.163  0.00  0.00    -0.271 NA
HETATM   26  H   UNL     1      -3.089  12.716  22.531  0.00  0.00     0.127 HD
HETATM   27  H   UNL     1      -3.219  11.053  22.984  0.00  0.00     0.127 HD
ENDBRANCH  23  25
ENDBRANCH  15  18
ENDBRANCH   1  14
BRANCH  13  28
HETATM   28  C   UNL     1       5.235   5.574  27.128  0.00  0.00     0.140 A 
HETATM   29  N   UNL     1       5.767   4.375  27.281  0.00  0.00    -0.227 NA
HETATM   30  C   UNL     1       6.175   4.277  28.588  0.00  0.00     0.103 A 
HETATM   31  C   UNL     1       6.881   3.266  29.244  0.00  0.00     0.150 A 
HETATM   32  C   UNL     1       5.792   5.402  29.301  0.00  0.00     0.065 A 
HETATM   33  N   UNL     1       7.153   3.373  30.572  0.00  0.00    -0.271 NA
HETATM   34  C   UNL     1       6.723   4.473  31.236  0.00  0.00     0.118 A 
HETATM   35  C   UNL     1       6.036   5.541  30.665  0.00  0.00     0.051 A 
HETATM   36  N   UNL     1       5.200   6.210  28.359  0.00  0.00    -0.338 N 
HETATM   37  H   UNL     1       4.841   7.137  28.524  0.00  0.00     0.167 HD
ENDBRANCH  13  28
TORSDOF 4
ENDMDL
MODEL 7
REMARK minimizedAffinity -6.45627403
REMARK minimizedRMSD -1
REMARK  4 active torsions:
REMARK  status: ('A' for Active; 'I' for Inactive)
REMARK    1  A    between atoms: N_1  and  C_2 
REMARK    2  A    between atoms: C_7  and  C_9 
REMARK       I    between atoms: C_9  and  N_11 
REMARK    3  A    between atoms: N_11  and  C_12 
REMARK    4  A    between atoms: C_24  and  C_25 
ROOT
HETATM    1  C   UNL     1       1.091   6.308  26.830  0.00  0.00     0.153 C 
HETATM    2  C   UNL     1       1.509   6.487  25.384  0.00  0.00    -0.020 A 
HETATM    3  C   UNL     1       2.186   5.582  24.571  0.00  0.00     0.010 A 
HETATM    4  C   UNL     1       2.281   5.848  23.206  0.00  0.00     0.001 A 
HETATM    5  C   UNL     1       1.675   6.984  22.668  0.00  0.00     0.001 A 
HETATM    6  C   UNL     1       0.998   7.890  23.494  0.00  0.00     0.013 A 
HETATM    7  C   UNL     1       0.940   7.678  24.865  0.00  0.00    -0.016 A 
HETATM    8  C   UNL     1       0.332   8.447  25.962  0.00  0.00    -0.003 A 
HETATM    9  C   UNL     1       0.492   7.667  27.153  0.00  0.00    -0.019 A 
HETATM   10  C   UNL     1       0.013   8.081  28.387  0.00  0.00     0.010 A 
HETATM   11  C   UNL     1      -0.637   9.305  28.455  0.00  0.00     0.002 A 
HETATM   12  C   UNL     1      -0.805  10.091  27.302  0.00  0.00     0.016 A 
HETATM   13  C   UNL     1      -0.326   9.688  26.031  0.00  0.00     0.022 A 
ENDROOT
BRANCH   1  14
HETATM   14  N   UNL     1       2.098   5.808  27.747  0.00  0.00    -0.343 N 
HETATM   15  C   UNL     1       3.180   6.627  28.040  0.00  0.00     0.273 C 
HETATM   16  O   UNL     1       3.208   7.786  27.631  0.00  0.00    -0.266 OA
HETATM   17  H   UNL     1       2.074   4.850  28.084  0.00  0.00     0.163 HD
BRANCH  15  18
HETATM   18  C   UNL     1       4.325   6.078  28.851  0.00  0.00     0.150 A 
HETATM   19  C   UNL     1       5.354   5.371  28.242  0.00  0.00     0.086 A 
HETATM   20  C   UNL     1       6.348   4.952  29.092  0.00  0.00     0.146 A 
HETATM   21 CL   UNL     1       5.506   4.948  26.584  0.00  0.00    -0.080 Cl
HETATM   22  N   UNL     1       6.340   5.169  30.421  0.00  0.00    -0.229 NA
HETATM   23  C   UNL     1       5.286   5.819  30.922  0.00  0.00     0.199 A 
HETATM   24  N   UNL     1       4.273   6.315  30.197  0.00  0.00    -0.211 NA
BRANCH  23  25
HETATM   25  N   UNL     1       5.289   5.992  32.286  0.00  0.00    -0.271 NA
HETATM   26  H   UNL     1       6.230   5.884  32.644  0.00  0.00     0.127 HD
HETATM   27  H   UNL     1       4.769   6.807  32.571  0.00  0.00     0.127 HD
ENDBRANCH  23  25
ENDBRANCH  15  18
ENDBRANCH   1  14
BRANCH  13  28
HETATM   28  C   UNL     1      -0.529  10.594  24.888  0.00  0.00     0.140 A 
HETATM   29  N   UNL     1       0.401  11.289  24.257  0.00  0.00    -0.227 NA
HETATM   30  C   UNL     1      -0.215  11.937  23.215  0.00  0.00     0.103 A 
HETATM   31  C   UNL     1       0.320  12.717  22.188  0.00  0.00     0.150 A 
HETATM   32  C   UNL     1      -1.586  11.732  23.260  0.00  0.00     0.065 A 
HETATM   33  N   UNL     1      -0.499  13.294  21.269  0.00  0.00    -0.271 NA
HETATM   34  C   UNL     1      -1.835  13.097  21.376  0.00  0.00     0.118 A 
HETATM   35  C   UNL     1      -2.459  12.319  22.347  0.00  0.00     0.051 A 
HETATM   36  N   UNL     1      -1.762  10.879  24.323  0.00  0.00    -0.338 N 
HETATM   37  H   UNL     1      -2.641  10.484  24.619  0.00  0.00     0.167 HD
ENDBRANCH  13  28
TORSDOF 4
ENDMDL
MODEL 8
REMARK minimizedAffinity -6.33746719
REMARK minimizedRMSD -1
REMARK  4 active torsions:
REMARK  status: ('A' for Active; 'I' for Inactive)
REMARK    1  A    between atoms: N_1  and  C_2 
REMARK    2  A    between atoms: C_7  and  C_9 
REMARK       I    between atoms: C_9  and  N_11 
REMARK    3  A    between atoms: N_11  and  C_12 
REMARK    4  A    between atoms: C_24  and  C_25 
ROOT
HETATM    1  C   UNL     1       1.222  10.918  24.319  0.00  0.00     0.153 C 
HETATM    2  C   UNL     1       2.717  10.929  24.062  0.00  0.00    -0.020 A 
HETATM    3  C   UNL     1       3.543  12.033  23.867  0.00  0.00     0.010 A 
HETATM    4  C   UNL     1       4.924  11.845  23.868  0.00  0.00     0.001 A 
HETATM    5  C   UNL     1       5.460  10.577  24.097  0.00  0.00     0.001 A 
HETATM    6  C   UNL     1       4.621   9.472  24.290  0.00  0.00     0.013 A 
HETATM    7  C   UNL     1       3.242   9.623  24.235  0.00  0.00    -0.016 A 
HETATM    8  C   UNL     1       2.134   8.666  24.377  0.00  0.00    -0.003 A 
HETATM    9  C   UNL     1       0.921   9.429  24.346  0.00  0.00    -0.019 A 
HETATM   10  C   UNL     1      -0.331   8.847  24.476  0.00  0.00     0.010 A 
HETATM   11  C   UNL     1      -0.395   7.470  24.633  0.00  0.00     0.002 A 
HETATM   12  C   UNL     1       0.779   6.698  24.664  0.00  0.00     0.016 A 
HETATM   13  C   UNL     1       2.069   7.270  24.535  0.00  0.00     0.022 A 
ENDROOT
BRANCH   1  14
HETATM   14  N   UNL     1       0.401  11.731  23.442  0.00  0.00    -0.343 N 
HETATM   15  C   UNL     1      -0.839  12.149  23.910  0.00  0.00     0.273 C 
HETATM   16  O   UNL     1      -1.163  11.938  25.076  0.00  0.00    -0.266 OA
HETATM   17  H   UNL     1       0.670  11.904  22.478  0.00  0.00     0.163 HD
BRANCH  15  18
HETATM   18  C   UNL     1      -1.785  12.850  22.970  0.00  0.00     0.150 A 
HETATM   19  C   UNL     1      -1.424  13.100  21.652  0.00  0.00     0.086 A 
HETATM   20  C   UNL     1      -2.391  13.718  20.897  0.00  0.00     0.146 A 
HETATM   21 CL   UNL     1       0.073  12.753  20.884  0.00  0.00    -0.080 Cl
HETATM   22  N   UNL     1      -3.592  14.092  21.375  0.00  0.00    -0.229 NA
HETATM   23  C   UNL     1      -3.832  13.849  22.667  0.00  0.00     0.199 A 
HETATM   24  N   UNL     1      -2.991  13.218  23.499  0.00  0.00    -0.211 NA
BRANCH  23  25
HETATM   25  N   UNL     1      -5.052  14.277  23.135  0.00  0.00    -0.271 NA
HETATM   26  H   UNL     1      -5.689  14.412  22.359  0.00  0.00     0.127 HD
HETATM   27  H   UNL     1      -5.376  13.730  23.917  0.00  0.00     0.127 HD
ENDBRANCH  23  25
ENDBRANCH  15  18
ENDBRANCH   1  14
BRANCH  13  28
HETATM   28  C   UNL     1       3.237   6.373  24.554  0.00  0.00     0.140 A 
HETATM   29  N   UNL     1       3.862   5.914  25.624  0.00  0.00    -0.227 NA
HETATM   30  C   UNL     1       4.842   5.060  25.184  0.00  0.00     0.103 A 
HETATM   31  C   UNL     1       5.718   4.239  25.898  0.00  0.00     0.150 A 
HETATM   32  C   UNL     1       4.906   5.067  23.798  0.00  0.00     0.065 A 
HETATM   33  N   UNL     1       6.641   3.488  25.240  0.00  0.00    -0.271 NA
HETATM   34  C   UNL     1       6.692   3.559  23.888  0.00  0.00     0.118 A 
HETATM   35  C   UNL     1       5.849   4.326  23.090  0.00  0.00     0.051 A 
HETATM   36  N   UNL     1       3.882   5.903  23.421  0.00  0.00    -0.338 N 
HETATM   37  H   UNL     1       3.609   6.106  22.472  0.00  0.00     0.167 HD
ENDBRANCH  13  28
TORSDOF 4
ENDMDL
MODEL 9
REMARK minimizedAffinity -6.17976522
REMARK minimizedRMSD -1
REMARK  4 active torsions:
REMARK  status: ('A' for Active; 'I' for Inactive)
REMARK    1  A    between atoms: N_1  and  C_2 
REMARK    2  A    between atoms: C_7  and  C_9 
REMARK       I    between atoms: C_9  and  N_11 
REMARK    3  A    between atoms: N_11  and  C_12 
REMARK    4  A    between atoms: C_24  and  C_25 
ROOT
HETATM    1  C   UNL     1       0.516   7.437  25.452  0.00  0.00     0.153 C 
HETATM    2  C   UNL     1       0.845   7.783  26.891  0.00  0.00    -0.020 A 
HETATM    3  C   UNL     1       0.086   8.535  27.784  0.00  0.00     0.010 A 
HETATM    4  C   UNL     1       0.458   8.552  29.128  0.00  0.00     0.001 A 
HETATM    5  C   UNL     1       1.548   7.799  29.566  0.00  0.00     0.001 A 
HETATM    6  C   UNL     1       2.306   7.048  28.659  0.00  0.00     0.013 A 
HETATM    7  C   UNL     1       1.992   7.061  27.306  0.00  0.00    -0.016 A 
HETATM    8  C   UNL     1       2.604   6.403  26.141  0.00  0.00    -0.003 A 
HETATM    9  C   UNL     1       1.767   6.694  25.015  0.00  0.00    -0.019 A 
HETATM   10  C   UNL     1       2.032   6.210  23.742  0.00  0.00     0.010 A 
HETATM   11  C   UNL     1       3.162   5.423  23.568  0.00  0.00     0.002 A 
HETATM   12  C   UNL     1       4.001   5.126  24.655  0.00  0.00     0.016 A 
HETATM   13  C   UNL     1       3.750   5.607  25.964  0.00  0.00     0.022 A 
ENDROOT
BRANCH   1  14
HETATM   14  N   UNL     1       0.075   8.526  24.599  0.00  0.00    -0.343 N 
HETATM   15  C   UNL     1       0.790   9.716  24.639  0.00  0.00     0.273 C 
HETATM   16  O   UNL     1       1.834   9.790  25.282  0.00  0.00    -0.266 OA
HETATM   17  H   UNL     1      -0.788   8.463  24.068  0.00  0.00     0.163 HD
BRANCH  15  18
HETATM   18  C   UNL     1       0.265  10.918  23.898  0.00  0.00     0.150 A 
HETATM   19  C   UNL     1       1.133  11.877  23.392  0.00  0.00     0.086 A 
HETATM   20  C   UNL     1       0.525  12.905  22.713  0.00  0.00     0.146 A 
HETATM   21 CL   UNL     1       2.844  11.935  23.540  0.00  0.00    -0.080 Cl
HETATM   22  N   UNL     1      -0.807  13.018  22.558  0.00  0.00    -0.229 NA
HETATM   23  C   UNL     1      -1.565  12.070  23.118  0.00  0.00     0.199 A 
HETATM   24  N   UNL     1      -1.094  10.996  23.770  0.00  0.00    -0.211 NA
BRANCH  23  25
HETATM   25  N   UNL     1      -2.922  12.233  22.975  0.00  0.00    -0.271 NA
HETATM   26  H   UNL     1      -3.113  12.860  22.204  0.00  0.00     0.127 HD
HETATM   27  H   UNL     1      -3.419  11.356  22.999  0.00  0.00     0.127 HD
ENDBRANCH  23  25
ENDBRANCH  15  18
ENDBRANCH   1  14
BRANCH  13  28
HETATM   28  C   UNL     1       4.703   5.261  27.032  0.00  0.00     0.140 A 
HETATM   29  N   UNL     1       5.157   4.055  27.324  0.00  0.00    -0.227 NA
HETATM   30  C   UNL     1       6.074   4.202  28.335  0.00  0.00     0.103 A 
HETATM   31  C   UNL     1       6.913   3.265  28.941  0.00  0.00     0.150 A 
HETATM   32  C   UNL     1       6.117   5.521  28.762  0.00  0.00     0.065 A 
HETATM   33  N   UNL     1       7.732   3.639  29.961  0.00  0.00    -0.271 NA
HETATM   34  C   UNL     1       7.710   4.930  30.370  0.00  0.00     0.118 A 
HETATM   35  C   UNL     1       6.929   5.939  29.813  0.00  0.00     0.051 A 
HETATM   36  N   UNL     1       5.244   6.172  27.924  0.00  0.00    -0.338 N 
HETATM   37  H   UNL     1       5.061   7.164  27.924  0.00  0.00     0.167 HD
ENDBRANCH  13  28
TORSDOF 4
ENDMDL
