MODEL 1
REMARK VINA RESULT:    -6.044      0.000      0.000
REMARK INTER + INTRA:          -8.761
REMARK INTER:                  -7.865
REMARK INTRA:                  -0.896
REMARK UNBOUND:                -0.949
REMARK  5 active torsions:
REMARK  status: ('A' for Active; 'I' for Inactive)
REMARK    1  A    between atoms: N8_1  and  C24_2 
REMARK    2  A    between atoms: N8_1  and  C7_8 
REMARK    3  A    between atoms: C2_13  and  N1_14 
REMARK    4  A    between atoms: N1_14  and  C17_15 
REMARK    5  A    between atoms: C14_16  and  C13_19 
ROOT
ATOM      1  C17 FTA A   1       2.419  15.098  11.155  1.00  0.00     0.142 C 
ATOM      2  C14 FTA A   1       1.905  15.520  12.328  1.00  0.00     0.158 C 
ATOM      3  C18 FTA A   1       2.514  16.627  13.032  1.00  0.00     0.069 C 
ATOM      4  N21 FTA A   1       3.142  17.491  13.516  1.00  0.00    -0.197 NA
ENDROOT
BRANCH   2   5
ATOM      5  C13 FTA A   1       0.703  14.852  12.879  1.00  0.00     0.197 A 
ATOM      6  N15 FTA A   1       0.311  14.838  14.216  1.00  0.00    -0.093 NA
ATOM      7  N19 FTA A   1      -0.839  14.065  14.305  1.00  0.00    -0.231 N 
ATOM      8  N20 FTA A   1      -1.170  13.592  13.043  1.00  0.00    -0.017 NA
ATOM      9  H15 FTA A   1      -1.363  13.872  15.171  1.00  0.00     0.200 HD
ATOM     10  N16 FTA A   1      -0.220  14.089  12.156  1.00  0.00    -0.090 NA
ENDBRANCH   2   5
BRANCH   1  11
ATOM     11  N1  FTA A   1       2.720  13.793  11.009  1.00  0.00    -0.389 N 
ATOM     12  H11 FTA A   1       1.943  13.118  11.049  1.00  0.00     0.159 HD
BRANCH  11  13
ATOM     13  C2  FTA A   1       4.029  13.277  10.802  1.00  0.00     0.028 A 
ATOM     14  C4  FTA A   1       4.324  12.403   9.760  1.00  0.00     0.031 A 
ATOM     15  C6  FTA A   1       5.567  11.754   9.748  1.00  0.00     0.031 A 
ATOM     16  C7  FTA A   1       6.515  11.954  10.748  1.00  0.00     0.032 A 
ATOM     17  C5  FTA A   1       6.216  12.845  11.763  1.00  0.00     0.031 A 
ATOM     18  C3  FTA A   1       4.985  13.488  11.800  1.00  0.00     0.031 A 
BRANCH  16  19
ATOM     19  N8  FTA A   1       7.683  11.158  10.870  1.00  0.00    -0.356 N 
ATOM     20  H1  FTA A   1       7.587  10.248  11.343  1.00  0.00     0.166 HD
BRANCH  19  21
ATOM     21  C24 FTA A   1       8.981  11.516  10.393  1.00  0.00     0.032 A 
ATOM     22  C26 FTA A   1       9.733  10.649   9.636  1.00  0.00     0.029 A 
ATOM     23  C28 FTA A   1      11.043  10.985   9.352  1.00  0.00     0.002 A 
ATOM     24  C30 FTA A   1      11.614  12.173   9.774  1.00  0.00     0.000 A 
ATOM     25  C29 FTA A   1      10.863  13.062  10.496  1.00  0.00     0.002 A 
ATOM     26  C27 FTA A   1       9.537  12.723  10.788  1.00  0.00     0.029 A 
ENDBRANCH  19  21
ENDBRANCH  16  19
ENDBRANCH  11  13
ENDBRANCH   1  11
TORSDOF 5
ENDMDL
MODEL 2
REMARK VINA RESULT:    -6.028      2.256      8.352
REMARK INTER + INTRA:          -8.739
REMARK INTER:                  -7.552
REMARK INTRA:                  -1.187
REMARK UNBOUND:                -0.949
REMARK  5 active torsions:
REMARK  status: ('A' for Active; 'I' for Inactive)
REMARK    1  A    between atoms: N8_1  and  C24_2 
REMARK    2  A    between atoms: N8_1  and  C7_8 
REMARK    3  A    between atoms: C2_13  and  N1_14 
REMARK    4  A    between atoms: N1_14  and  C17_15 
REMARK    5  A    between atoms: C14_16  and  C13_19 
ROOT
ATOM      1  C17 FTA A   1       8.173  12.311  11.697  1.00  0.00     0.142 C 
ATOM      2  C14 FTA A   1       8.415  12.317  10.371  1.00  0.00     0.158 C 
ATOM      3  C18 FTA A   1       9.243  13.351   9.787  1.00  0.00     0.069 C 
ATOM      4  N21 FTA A   1       9.879  14.276   9.447  1.00  0.00    -0.197 NA
ENDROOT
BRANCH   2   5
ATOM      5  C13 FTA A   1       7.841  11.249   9.521  1.00  0.00     0.197 A 
ATOM      6  N15 FTA A   1       7.238  10.076   9.970  1.00  0.00    -0.093 NA
ATOM      7  N19 FTA A   1       6.882   9.334   8.851  1.00  0.00    -0.231 N 
ATOM      8  N20 FTA A   1       7.256  10.027   7.708  1.00  0.00    -0.017 NA
ATOM      9  H15 FTA A   1       6.415   8.416   8.867  1.00  0.00     0.200 HD
ATOM     10  N16 FTA A   1       7.841  11.219   8.121  1.00  0.00    -0.090 NA
ENDBRANCH   2   5
BRANCH   1  11
ATOM     11  N1  FTA A   1       6.897  12.255  12.125  1.00  0.00    -0.389 N 
ATOM     12  H11 FTA A   1       6.638  11.475  12.746  1.00  0.00     0.159 HD
BRANCH  11  13
ATOM     13  C2  FTA A   1       5.882  13.191  11.787  1.00  0.00     0.028 A 
ATOM     14  C4  FTA A   1       5.837  14.468  12.341  1.00  0.00     0.031 A 
ATOM     15  C6  FTA A   1       4.692  15.253  12.147  1.00  0.00     0.031 A 
ATOM     16  C7  FTA A   1       3.596  14.797  11.420  1.00  0.00     0.032 A 
ATOM     17  C5  FTA A   1       3.667  13.536  10.855  1.00  0.00     0.031 A 
ATOM     18  C3  FTA A   1       4.787  12.737  11.047  1.00  0.00     0.031 A 
BRANCH  16  19
ATOM     19  N8  FTA A   1       2.355  15.483  11.386  1.00  0.00    -0.356 N 
ATOM     20  H1  FTA A   1       2.258  16.251  10.707  1.00  0.00     0.166 HD
BRANCH  19  21
ATOM     21  C24 FTA A   1       1.230  15.196  12.216  1.00  0.00     0.032 A 
ATOM     22  C26 FTA A   1       1.212  15.535  13.549  1.00  0.00     0.029 A 
ATOM     23  C28 FTA A   1       0.171  15.078  14.335  1.00  0.00     0.002 A 
ATOM     24  C30 FTA A   1      -0.868  14.320  13.823  1.00  0.00     0.000 A 
ATOM     25  C29 FTA A   1      -0.882  14.008  12.490  1.00  0.00     0.002 A 
ATOM     26  C27 FTA A   1       0.173  14.466  11.692  1.00  0.00     0.029 A 
ENDBRANCH  19  21
ENDBRANCH  16  19
ENDBRANCH  11  13
ENDBRANCH   1  11
TORSDOF 5
ENDMDL
MODEL 3
REMARK VINA RESULT:    -5.926      1.203      1.775
REMARK INTER + INTRA:          -8.608
REMARK INTER:                  -7.678
REMARK INTRA:                  -0.930
REMARK UNBOUND:                -0.949
REMARK  5 active torsions:
REMARK  status: ('A' for Active; 'I' for Inactive)
REMARK    1  A    between atoms: N8_1  and  C24_2 
REMARK    2  A    between atoms: N8_1  and  C7_8 
REMARK    3  A    between atoms: C2_13  and  N1_14 
REMARK    4  A    between atoms: N1_14  and  C17_15 
REMARK    5  A    between atoms: C14_16  and  C13_19 
ROOT
ATOM      1  C17 FTA A   1       1.568  15.377  11.474  1.00  0.00     0.142 C 
ATOM      2  C14 FTA A   1       0.624  15.184  12.416  1.00  0.00     0.158 C 
ATOM      3  C18 FTA A   1       0.844  15.643  13.770  1.00  0.00     0.069 C 
ATOM      4  N21 FTA A   1       1.181  16.013  14.831  1.00  0.00    -0.197 NA
ENDROOT
BRANCH   2   5
ATOM      5  C13 FTA A   1      -0.645  14.514  12.049  1.00  0.00     0.197 A 
ATOM      6  N15 FTA A   1      -1.320  14.638  10.837  1.00  0.00    -0.093 NA
ATOM      7  N19 FTA A   1      -2.482  13.884  10.927  1.00  0.00    -0.231 N 
ATOM      8  N20 FTA A   1      -2.544  13.291  12.179  1.00  0.00    -0.017 NA
ATOM      9  H15 FTA A   1      -3.187  13.780  10.182  1.00  0.00     0.200 HD
ATOM     10  N16 FTA A   1      -1.400  13.671  12.873  1.00  0.00    -0.090 NA
ENDBRANCH   2   5
BRANCH   1  11
ATOM     11  N1  FTA A   1       1.996  14.321  10.755  1.00  0.00    -0.389 N 
ATOM     12  H11 FTA A   1       1.310  13.847  10.150  1.00  0.00     0.159 HD
BRANCH  11  13
ATOM     13  C2  FTA A   1       3.323  13.810  10.767  1.00  0.00     0.028 A 
ATOM     14  C4  FTA A   1       3.682  12.663  10.064  1.00  0.00     0.031 A 
ATOM     15  C6  FTA A   1       4.937  12.085  10.301  1.00  0.00     0.031 A 
ATOM     16  C7  FTA A   1       5.837  12.621  11.219  1.00  0.00     0.032 A 
ATOM     17  C5  FTA A   1       5.475  13.775  11.891  1.00  0.00     0.031 A 
ATOM     18  C3  FTA A   1       4.230  14.355  11.680  1.00  0.00     0.031 A 
BRANCH  16  19
ATOM     19  N8  FTA A   1       7.014  11.944  11.627  1.00  0.00    -0.356 N 
ATOM     20  H1  FTA A   1       7.096  11.697  12.624  1.00  0.00     0.166 HD
BRANCH  19  21
ATOM     21  C24 FTA A   1       8.095  11.576  10.770  1.00  0.00     0.032 A 
ATOM     22  C26 FTA A   1       8.091  10.392  10.073  1.00  0.00     0.029 A 
ATOM     23  C28 FTA A   1       9.238  10.016   9.399  1.00  0.00     0.002 A 
ATOM     24  C30 FTA A   1      10.377  10.802   9.375  1.00  0.00     0.000 A 
ATOM     25  C29 FTA A   1      10.381  12.003  10.035  1.00  0.00     0.002 A 
ATOM     26  C27 FTA A   1       9.222  12.384  10.720  1.00  0.00     0.029 A 
ENDBRANCH  19  21
ENDBRANCH  16  19
ENDBRANCH  11  13
ENDBRANCH   1  11
TORSDOF 5
ENDMDL
MODEL 4
REMARK VINA RESULT:    -5.924      3.876      7.671
REMARK INTER + INTRA:          -8.605
REMARK INTER:                  -7.564
REMARK INTRA:                  -1.042
REMARK UNBOUND:                -0.949
REMARK  5 active torsions:
REMARK  status: ('A' for Active; 'I' for Inactive)
REMARK    1  A    between atoms: N8_1  and  C24_2 
REMARK    2  A    between atoms: N8_1  and  C7_8 
REMARK    3  A    between atoms: C2_13  and  N1_14 
REMARK    4  A    between atoms: N1_14  and  C17_15 
REMARK    5  A    between atoms: C14_16  and  C13_19 
ROOT
ATOM      1  C17 FTA A   1       8.488  12.170  10.638  1.00  0.00     0.142 C 
ATOM      2  C14 FTA A   1       8.262  11.059   9.910  1.00  0.00     0.158 C 
ATOM      3  C18 FTA A   1       9.363  10.194   9.542  1.00  0.00     0.069 C 
ATOM      4  N21 FTA A   1      10.350   9.623   9.271  1.00  0.00    -0.197 NA
ENDROOT
BRANCH   2   5
ATOM      5  C13 FTA A   1       6.878  10.723   9.504  1.00  0.00     0.197 A 
ATOM      6  N15 FTA A   1       5.721  11.393   9.895  1.00  0.00    -0.093 NA
ATOM      7  N19 FTA A   1       4.641  10.728   9.329  1.00  0.00    -0.231 N 
ATOM      8  N20 FTA A   1       5.107   9.650   8.591  1.00  0.00    -0.017 NA
ATOM      9  H15 FTA A   1       3.652  10.993   9.439  1.00  0.00     0.200 HD
ATOM     10  N16 FTA A   1       6.495   9.651   8.689  1.00  0.00    -0.090 NA
ENDBRANCH   2   5
BRANCH   1  11
ATOM     11  N1  FTA A   1       8.025  13.351  10.185  1.00  0.00    -0.389 N 
ATOM     12  H11 FTA A   1       8.219  13.593   9.203  1.00  0.00     0.159 HD
BRANCH  11  13
ATOM     13  C2  FTA A   1       7.288  14.289  10.959  1.00  0.00     0.028 A 
ATOM     14  C4  FTA A   1       7.309  15.654  10.686  1.00  0.00     0.031 A 
ATOM     15  C6  FTA A   1       6.754  16.543  11.617  1.00  0.00     0.031 A 
ATOM     16  C7  FTA A   1       6.183  16.104  12.809  1.00  0.00     0.032 A 
ATOM     17  C5  FTA A   1       6.148  14.743  13.054  1.00  0.00     0.031 A 
ATOM     18  C3  FTA A   1       6.705  13.847  12.150  1.00  0.00     0.031 A 
BRANCH  16  19
ATOM     19  N8  FTA A   1       5.807  16.988  13.853  1.00  0.00    -0.356 N 
ATOM     20  H1  FTA A   1       5.036  17.644  13.662  1.00  0.00     0.166 HD
BRANCH  19  21
ATOM     21  C24 FTA A   1       6.409  17.043  15.146  1.00  0.00     0.032 A 
ATOM     22  C26 FTA A   1       5.699  16.744  16.285  1.00  0.00     0.029 A 
ATOM     23  C28 FTA A   1       6.286  16.983  17.513  1.00  0.00     0.002 A 
ATOM     24  C30 FTA A   1       7.572  17.480  17.638  1.00  0.00     0.000 A 
ATOM     25  C29 FTA A   1       8.304  17.746  16.511  1.00  0.00     0.002 A 
ATOM     26  C27 FTA A   1       7.711  17.509  15.266  1.00  0.00     0.029 A 
ENDBRANCH  19  21
ENDBRANCH  16  19
ENDBRANCH  11  13
ENDBRANCH   1  11
TORSDOF 5
ENDMDL
MODEL 5
REMARK VINA RESULT:    -5.922      2.298      8.853
REMARK INTER + INTRA:          -8.603
REMARK INTER:                  -7.620
REMARK INTRA:                  -0.983
REMARK UNBOUND:                -0.949
REMARK  5 active torsions:
REMARK  status: ('A' for Active; 'I' for Inactive)
REMARK    1  A    between atoms: N8_1  and  C24_2 
REMARK    2  A    between atoms: N8_1  and  C7_8 
REMARK    3  A    between atoms: C2_13  and  N1_14 
REMARK    4  A    between atoms: N1_14  and  C17_15 
REMARK    5  A    between atoms: C14_16  and  C13_19 
ROOT
ATOM      1  C17 FTA A   1       8.008  12.377  11.512  1.00  0.00     0.142 C 
ATOM      2  C14 FTA A   1       9.080  12.417  10.696  1.00  0.00     0.158 C 
ATOM      3  C18 FTA A   1       9.789  13.661  10.486  1.00  0.00     0.069 C 
ATOM      4  N21 FTA A   1      10.226  14.742  10.366  1.00  0.00    -0.197 NA
ENDROOT
BRANCH   2   5
ATOM      5  C13 FTA A   1       9.535  11.175  10.030  1.00  0.00     0.197 A 
ATOM      6  N15 FTA A   1       8.723  10.122   9.610  1.00  0.00    -0.093 NA
ATOM      7  N19 FTA A   1       9.552   9.142   9.081  1.00  0.00    -0.231 N 
ATOM      8  N20 FTA A   1      10.870   9.565   9.166  1.00  0.00    -0.017 NA
ATOM      9  H15 FTA A   1       9.238   8.243   8.687  1.00  0.00     0.200 HD
ATOM     10  N16 FTA A   1      10.861  10.830   9.744  1.00  0.00    -0.090 NA
ENDBRANCH   2   5
BRANCH   1  11
ATOM     11  N1  FTA A   1       6.855  11.859  11.048  1.00  0.00    -0.389 N 
ATOM     12  H11 FTA A   1       6.883  10.904  10.662  1.00  0.00     0.159 HD
BRANCH  11  13
ATOM     13  C2  FTA A   1       5.601  12.529  11.050  1.00  0.00     0.028 A 
ATOM     14  C4  FTA A   1       4.602  12.236  10.124  1.00  0.00     0.031 A 
ATOM     15  C6  FTA A   1       3.490  13.084  10.033  1.00  0.00     0.031 A 
ATOM     16  C7  FTA A   1       3.351  14.212  10.837  1.00  0.00     0.032 A 
ATOM     17  C5  FTA A   1       4.340  14.475  11.769  1.00  0.00     0.031 A 
ATOM     18  C3  FTA A   1       5.457  13.655  11.866  1.00  0.00     0.031 A 
BRANCH  16  19
ATOM     19  N8  FTA A   1       2.349  15.192  10.622  1.00  0.00    -0.356 N 
ATOM     20  H1  FTA A   1       2.647  16.093  10.222  1.00  0.00     0.166 HD
BRANCH  19  21
ATOM     21  C24 FTA A   1       0.960  15.032  10.913  1.00  0.00     0.032 A 
ATOM     22  C26 FTA A   1       0.530  14.523  12.116  1.00  0.00     0.029 A 
ATOM     23  C28 FTA A   1      -0.812  14.232  12.270  1.00  0.00     0.002 A 
ATOM     24  C30 FTA A   1      -1.742  14.463  11.271  1.00  0.00     0.000 A 
ATOM     25  C29 FTA A   1      -1.332  15.005  10.082  1.00  0.00     0.002 A 
ATOM     26  C27 FTA A   1       0.027  15.298   9.922  1.00  0.00     0.029 A 
ENDBRANCH  19  21
ENDBRANCH  16  19
ENDBRANCH  11  13
ENDBRANCH   1  11
TORSDOF 5
ENDMDL
MODEL 6
REMARK VINA RESULT:    -5.823      1.342      1.981
REMARK INTER + INTRA:          -8.474
REMARK INTER:                  -7.565
REMARK INTRA:                  -0.909
REMARK UNBOUND:                -0.949
REMARK  5 active torsions:
REMARK  status: ('A' for Active; 'I' for Inactive)
REMARK    1  A    between atoms: N8_1  and  C24_2 
REMARK    2  A    between atoms: N8_1  and  C7_8 
REMARK    3  A    between atoms: C2_13  and  N1_14 
REMARK    4  A    between atoms: N1_14  and  C17_15 
REMARK    5  A    between atoms: C14_16  and  C13_19 
ROOT
ATOM      1  C17 FTA A   1       1.523  14.566  11.171  1.00  0.00     0.142 C 
ATOM      2  C14 FTA A   1       0.393  15.037  11.735  1.00  0.00     0.158 C 
ATOM      3  C18 FTA A   1      -0.613  15.681  10.919  1.00  0.00     0.069 C 
ATOM      4  N21 FTA A   1      -1.309  16.228  10.149  1.00  0.00    -0.197 NA
ENDROOT
BRANCH   2   5
ATOM      5  C13 FTA A   1       0.184  14.875  13.192  1.00  0.00     0.197 A 
ATOM      6  N15 FTA A   1       0.738  15.667  14.195  1.00  0.00    -0.093 NA
ATOM      7  N19 FTA A   1       0.326  15.147  15.414  1.00  0.00    -0.231 N 
ATOM      8  N20 FTA A   1      -0.476  14.038  15.188  1.00  0.00    -0.017 NA
ATOM      9  H15 FTA A   1       0.576  15.523  16.340  1.00  0.00     0.200 HD
ATOM     10  N16 FTA A   1      -0.574  13.874  13.810  1.00  0.00    -0.090 NA
ENDBRANCH   2   5
BRANCH   1  11
ATOM     11  N1  FTA A   1       2.712  14.947  11.677  1.00  0.00    -0.389 N 
ATOM     12  H11 FTA A   1       2.734  15.807  12.244  1.00  0.00     0.159 HD
BRANCH  11  13
ATOM     13  C2  FTA A   1       3.938  14.252  11.491  1.00  0.00     0.028 A 
ATOM     14  C4  FTA A   1       4.016  13.073  10.754  1.00  0.00     0.031 A 
ATOM     15  C6  FTA A   1       5.197  12.319  10.800  1.00  0.00     0.031 A 
ATOM     16  C7  FTA A   1       6.295  12.711  11.562  1.00  0.00     0.032 A 
ATOM     17  C5  FTA A   1       6.210  13.897  12.269  1.00  0.00     0.031 A 
ATOM     18  C3  FTA A   1       5.044  14.651  12.246  1.00  0.00     0.031 A 
BRANCH  16  19
ATOM     19  N8  FTA A   1       7.413  11.868  11.791  1.00  0.00    -0.356 N 
ATOM     20  H1  FTA A   1       7.534  11.492  12.742  1.00  0.00     0.166 HD
BRANCH  19  21
ATOM     21  C24 FTA A   1       8.383  11.498  10.811  1.00  0.00     0.032 A 
ATOM     22  C26 FTA A   1       8.229  10.375  10.033  1.00  0.00     0.029 A 
ATOM     23  C28 FTA A   1       9.280   9.977   9.228  1.00  0.00     0.002 A 
ATOM     24  C30 FTA A   1      10.468  10.685   9.155  1.00  0.00     0.000 A 
ATOM     25  C29 FTA A   1      10.619  11.826   9.896  1.00  0.00     0.002 A 
ATOM     26  C27 FTA A   1       9.558  12.229  10.714  1.00  0.00     0.029 A 
ENDBRANCH  19  21
ENDBRANCH  16  19
ENDBRANCH  11  13
ENDBRANCH   1  11
TORSDOF 5
ENDMDL
MODEL 7
REMARK VINA RESULT:    -5.794      2.066      8.465
REMARK INTER + INTRA:          -8.437
REMARK INTER:                  -7.374
REMARK INTRA:                  -1.063
REMARK UNBOUND:                -0.949
REMARK  5 active torsions:
REMARK  status: ('A' for Active; 'I' for Inactive)
REMARK    1  A    between atoms: N8_1  and  C24_2 
REMARK    2  A    between atoms: N8_1  and  C7_8 
REMARK    3  A    between atoms: C2_13  and  N1_14 
REMARK    4  A    between atoms: N1_14  and  C17_15 
REMARK    5  A    between atoms: C14_16  and  C13_19 
ROOT
ATOM      1  C17 FTA A   1       7.752  12.768  10.898  1.00  0.00     0.142 C 
ATOM      2  C14 FTA A   1       8.230  11.829  10.058  1.00  0.00     0.158 C 
ATOM      3  C18 FTA A   1       9.652  11.566   9.995  1.00  0.00     0.069 C 
ATOM      4  N21 FTA A   1      10.823  11.502  10.008  1.00  0.00    -0.197 NA
ENDROOT
BRANCH   2   5
ATOM      5  C13 FTA A   1       7.288  11.058   9.214  1.00  0.00     0.197 A 
ATOM      6  N15 FTA A   1       6.751  11.469   7.996  1.00  0.00    -0.093 NA
ATOM      7  N19 FTA A   1       5.884  10.474   7.565  1.00  0.00    -0.231 N 
ATOM      8  N20 FTA A   1       5.869   9.448   8.498  1.00  0.00    -0.017 NA
ATOM      9  H15 FTA A   1       5.338  10.494   6.691  1.00  0.00     0.200 HD
ATOM     10  N16 FTA A   1       6.747   9.803   9.517  1.00  0.00    -0.090 NA
ENDBRANCH   2   5
BRANCH   1  11
ATOM     11  N1  FTA A   1       6.948  13.731  10.408  1.00  0.00    -0.389 N 
ATOM     12  H11 FTA A   1       7.320  14.320   9.648  1.00  0.00     0.159 HD
BRANCH  11  13
ATOM     13  C2  FTA A   1       5.626  13.998  10.859  1.00  0.00     0.028 A 
ATOM     14  C4  FTA A   1       4.527  13.276  10.400  1.00  0.00     0.031 A 
ATOM     15  C6  FTA A   1       3.238  13.735  10.703  1.00  0.00     0.031 A 
ATOM     16  C7  FTA A   1       3.020  14.892  11.446  1.00  0.00     0.032 A 
ATOM     17  C5  FTA A   1       4.122  15.584  11.915  1.00  0.00     0.031 A 
ATOM     18  C3  FTA A   1       5.408  15.153  11.615  1.00  0.00     0.031 A 
BRANCH  16  19
ATOM     19  N8  FTA A   1       1.740  15.487  11.586  1.00  0.00    -0.356 N 
ATOM     20  H1  FTA A   1       1.471  16.199  10.891  1.00  0.00     0.166 HD
BRANCH  19  21
ATOM     21  C24 FTA A   1       0.793  15.180  12.610  1.00  0.00     0.032 A 
ATOM     22  C26 FTA A   1       0.928  15.673  13.886  1.00  0.00     0.029 A 
ATOM     23  C28 FTA A   1       0.080  15.203  14.871  1.00  0.00     0.002 A 
ATOM     24  C30 FTA A   1      -0.919  14.279  14.611  1.00  0.00     0.000 A 
ATOM     25  C29 FTA A   1      -1.088  13.810  13.336  1.00  0.00     0.002 A 
ATOM     26  C27 FTA A   1      -0.228  14.281  12.338  1.00  0.00     0.029 A 
ENDBRANCH  19  21
ENDBRANCH  16  19
ENDBRANCH  11  13
ENDBRANCH   1  11
TORSDOF 5
ENDMDL
MODEL 8
REMARK VINA RESULT:    -5.672      4.312      6.497
REMARK INTER + INTRA:          -8.280
REMARK INTER:                  -7.330
REMARK INTRA:                  -0.949
REMARK UNBOUND:                -0.949
REMARK  5 active torsions:
REMARK  status: ('A' for Active; 'I' for Inactive)
REMARK    1  A    between atoms: N8_1  and  C24_2 
REMARK    2  A    between atoms: N8_1  and  C7_8 
REMARK    3  A    between atoms: C2_13  and  N1_14 
REMARK    4  A    between atoms: N1_14  and  C17_15 
REMARK    5  A    between atoms: C14_16  and  C13_19 
ROOT
ATOM      1  C17 FTA A   1       4.511  17.395  16.776  1.00  0.00     0.142 C 
ATOM      2  C14 FTA A   1       5.181  17.774  17.883  1.00  0.00     0.158 C 
ATOM      3  C18 FTA A   1       4.459  18.113  19.090  1.00  0.00     0.069 C 
ATOM      4  N21 FTA A   1       3.745  18.412  19.971  1.00  0.00    -0.197 NA
ENDROOT
BRANCH   2   5
ATOM      5  C13 FTA A   1       6.661  17.824  17.856  1.00  0.00     0.197 A 
ATOM      6  N15 FTA A   1       7.509  16.839  17.356  1.00  0.00    -0.093 NA
ATOM      7  N19 FTA A   1       8.814  17.263  17.567  1.00  0.00    -0.231 N 
ATOM      8  N20 FTA A   1       8.794  18.500  18.195  1.00  0.00    -0.017 NA
ATOM      9  H15 FTA A   1       9.662  16.743  17.300  1.00  0.00     0.200 HD
ATOM     10  N16 FTA A   1       7.460  18.855  18.365  1.00  0.00    -0.090 NA
ENDBRANCH   2   5
BRANCH   1  11
ATOM     11  N1  FTA A   1       4.758  18.031  15.615  1.00  0.00    -0.389 N 
ATOM     12  H11 FTA A   1       4.836  19.059  15.643  1.00  0.00     0.159 HD
BRANCH  11  13
ATOM     13  C2  FTA A   1       4.921  17.394  14.355  1.00  0.00     0.028 A 
ATOM     14  C4  FTA A   1       3.864  17.240  13.461  1.00  0.00     0.031 A 
ATOM     15  C6  FTA A   1       4.032  16.407  12.347  1.00  0.00     0.031 A 
ATOM     16  C7  FTA A   1       5.222  15.725  12.105  1.00  0.00     0.032 A 
ATOM     17  C5  FTA A   1       6.271  15.909  12.989  1.00  0.00     0.031 A 
ATOM     18  C3  FTA A   1       6.120  16.720  14.107  1.00  0.00     0.031 A 
BRANCH  16  19
ATOM     19  N8  FTA A   1       5.346  14.722  11.110  1.00  0.00    -0.356 N 
ATOM     20  H1  FTA A   1       4.617  14.685  10.384  1.00  0.00     0.166 HD
BRANCH  19  21
ATOM     21  C24 FTA A   1       6.399  13.760  11.033  1.00  0.00     0.032 A 
ATOM     22  C26 FTA A   1       6.384  12.614  11.791  1.00  0.00     0.029 A 
ATOM     23  C28 FTA A   1       7.509  11.811  11.800  1.00  0.00     0.002 A 
ATOM     24  C30 FTA A   1       8.636  12.103  11.050  1.00  0.00     0.000 A 
ATOM     25  C29 FTA A   1       8.648  13.222  10.261  1.00  0.00     0.002 A 
ATOM     26  C27 FTA A   1       7.512  14.039  10.253  1.00  0.00     0.029 A 
ENDBRANCH  19  21
ENDBRANCH  16  19
ENDBRANCH  11  13
ENDBRANCH   1  11
TORSDOF 5
ENDMDL
MODEL 9
REMARK VINA RESULT:    -5.575      2.107      8.713
REMARK INTER + INTRA:          -8.154
REMARK INTER:                  -7.145
REMARK INTRA:                  -1.009
REMARK UNBOUND:                -0.949
REMARK  5 active torsions:
REMARK  status: ('A' for Active; 'I' for Inactive)
REMARK    1  A    between atoms: N8_1  and  C24_2 
REMARK    2  A    between atoms: N8_1  and  C7_8 
REMARK    3  A    between atoms: C2_13  and  N1_14 
REMARK    4  A    between atoms: N1_14  and  C17_15 
REMARK    5  A    between atoms: C14_16  and  C13_19 
ROOT
ATOM      1  C17 FTA A   1       6.822  13.368  11.263  1.00  0.00     0.142 C 
ATOM      2  C14 FTA A   1       7.639  12.469  10.680  1.00  0.00     0.158 C 
ATOM      3  C18 FTA A   1       9.075  12.642  10.743  1.00  0.00     0.069 C 
ATOM      4  N21 FTA A   1      10.206  12.940  10.824  1.00  0.00    -0.197 NA
ENDROOT
BRANCH   2   5
ATOM      5  C13 FTA A   1       7.057  11.295   9.990  1.00  0.00     0.197 A 
ATOM      6  N15 FTA A   1       7.749  10.162   9.568  1.00  0.00    -0.093 NA
ATOM      7  N19 FTA A   1       6.838   9.331   8.928  1.00  0.00    -0.231 N 
ATOM      8  N20 FTA A   1       5.587   9.930   8.943  1.00  0.00    -0.017 NA
ATOM      9  H15 FTA A   1       7.057   8.415   8.510  1.00  0.00     0.200 HD
ATOM     10  N16 FTA A   1       5.718  11.143   9.610  1.00  0.00    -0.090 NA
ENDBRANCH   2   5
BRANCH   1  11
ATOM     11  N1  FTA A   1       5.837  13.923  10.532  1.00  0.00    -0.389 N 
ATOM     12  H11 FTA A   1       6.017  14.075   9.529  1.00  0.00     0.159 HD
BRANCH  11  13
ATOM     13  C2  FTA A   1       4.567  14.314  11.038  1.00  0.00     0.028 A 
ATOM     14  C4  FTA A   1       3.376  13.808  10.522  1.00  0.00     0.031 A 
ATOM     15  C6  FTA A   1       2.165  14.401  10.903  1.00  0.00     0.031 A 
ATOM     16  C7  FTA A   1       2.112  15.482  11.779  1.00  0.00     0.032 A 
ATOM     17  C5  FTA A   1       3.302  15.956  12.302  1.00  0.00     0.031 A 
ATOM     18  C3  FTA A   1       4.515  15.391  11.927  1.00  0.00     0.031 A 
BRANCH  16  19
ATOM     19  N8  FTA A   1       0.928  16.226  12.014  1.00  0.00    -0.356 N 
ATOM     20  H1  FTA A   1       0.891  17.185  11.639  1.00  0.00     0.166 HD
BRANCH  19  21
ATOM     21  C24 FTA A   1      -0.216  15.756  12.726  1.00  0.00     0.032 A 
ATOM     22  C26 FTA A   1      -0.097  15.090  13.922  1.00  0.00     0.029 A 
ATOM     23  C28 FTA A   1      -1.224  14.510  14.473  1.00  0.00     0.002 A 
ATOM     24  C30 FTA A   1      -2.472  14.603  13.881  1.00  0.00     0.000 A 
ATOM     25  C29 FTA A   1      -2.611  15.297  12.708  1.00  0.00     0.002 A 
ATOM     26  C27 FTA A   1      -1.471  15.881  12.146  1.00  0.00     0.029 A 
ENDBRANCH  19  21
ENDBRANCH  16  19
ENDBRANCH  11  13
ENDBRANCH   1  11
TORSDOF 5
ENDMDL
