MODEL 1
REMARK VINA RESULT:    -8.354      0.000      0.000
REMARK INTER + INTRA:         -12.084
REMARK INTER:                 -11.117
REMARK INTRA:                  -0.967
REMARK UNBOUND:                -1.288
REMARK  6 active torsions:
REMARK  status: ('A' for Active; 'I' for Inactive)
REMARK    1  A    between atoms: C_2  and  C_3 
REMARK    2  A    between atoms: C_6  and  C_7 
REMARK    3  A    between atoms: C_9  and  N_10 
REMARK    4  A    between atoms: C_11  and  C_12 
REMARK       I    between atoms: C_12  and  N_14 
REMARK    5  A    between atoms: N_14  and  C_15 
REMARK    6  A    between atoms: C_27  and  N_28 
ROOT
HETATM    1  C   UNL     1       9.167  13.334  24.546  0.00  0.00     0.013 C 
HETATM    2  C   UNL     1       9.029  11.958  24.132  0.00  0.00     0.035 C 
HETATM    3  C   UNL     1       7.930  11.082  23.728  0.00  0.00     0.043 C 
HETATM    4  C   UNL     1       8.349   9.874  23.188  0.00  0.00     0.097 C 
HETATM    5  S   UNL     1      10.040   9.696  23.342  0.00  0.00    -0.062 SA
HETATM    6  C   UNL     1      10.209  11.216  24.077  0.00  0.00     0.113 C 
HETATM    7  N   UNL     1      11.434  11.584  24.495  0.00  0.00    -0.227 NA
HETATM    8  C   UNL     1      11.535  12.819  24.979  0.00  0.00     0.123 C 
HETATM    9  C   UNL     1      10.474  13.726  24.990  0.00  0.00     0.096 C 
HETATM   10  C   UNL     1      10.796  15.065  25.404  0.00  0.00     0.103 C 
HETATM   11  N   UNL     1      11.094  16.132  25.750  0.00  0.00    -0.191 NA
ENDROOT
BRANCH   1  12
HETATM   12  C   UNL     1       8.061  14.333  24.377  0.00  0.00    -0.023 C 
HETATM   13  C   UNL     1       7.739  14.876  23.120  0.00  0.00     0.013 C 
HETATM   14  C   UNL     1       6.523  15.528  22.882  0.00  0.00     0.008 C 
HETATM   15  C   UNL     1       5.644  15.795  23.928  0.00  0.00    -0.059 C 
HETATM   16  C   UNL     1       6.017  15.418  25.218  0.00  0.00     0.008 C 
HETATM   17  C   UNL     1       7.176  14.655  25.425  0.00  0.00     0.013 C 
BRANCH  15  18
HETATM   18  C   UNL     1       4.289  16.394  23.649  0.00  0.00     0.034 C 
HETATM   19  C   UNL     1       3.198  15.329  23.650  0.00  0.00     0.010 C 
ENDBRANCH  15  18
ENDBRANCH   1  12
BRANCH   8  20
HETATM   20  N   UNL     1      12.774  13.120  25.548  0.00  0.00    -0.286 NA
HETATM   21  H   UNL     1      13.292  13.730  24.920  0.00  0.00     0.125 HD
HETATM   22  H   UNL     1      12.745  13.473  26.500  0.00  0.00     0.125 HD
ENDBRANCH   8  20
BRANCH   3  23
HETATM   23  N   UNL     1       6.610  11.401  23.846  0.00  0.00    -0.301 NA
HETATM   24  H   UNL     1       6.358  12.138  24.511  0.00  0.00     0.124 HD
HETATM   25  H   UNL     1       6.100  11.577  22.977  0.00  0.00     0.124 HD
ENDBRANCH   3  23
BRANCH   4  26
HETATM   26  C   UNL     1       7.599   8.763  22.577  0.00  0.00     0.265 C 
HETATM   27  O   UNL     1       7.606   7.631  23.058  0.00  0.00    -0.267 OA
HETATM   28  N   UNL     1       6.896   9.112  21.437  0.00  0.00    -0.322 N 
HETATM   29  H   UNL     1       6.918  10.099  21.207  0.00  0.00     0.169 HD
BRANCH  28  30
HETATM   30  C   UNL     1       6.114   8.284  20.594  0.00  0.00     0.037 A 
HETATM   31  C   UNL     1       6.343   6.902  20.411  0.00  0.00     0.032 A 
HETATM   32  C   UNL     1       5.533   6.136  19.560  0.00  0.00     0.042 A 
HETATM   33  C   UNL     1       4.505   6.771  18.904  0.00  0.00     0.105 A 
HETATM   34  C   UNL     1       4.273   8.113  19.067  0.00  0.00     0.107 A 
HETATM   35  O   UNL     1       3.624   6.188  18.048  0.00  0.00    -0.323 OA
HETATM   36  C   UNL     1       5.056   8.894  19.899  0.00  0.00     0.069 A 
HETATM   37  O   UNL     1       3.215   8.547  18.329  0.00  0.00    -0.323 OA
HETATM   38  C   UNL     1       2.809   7.319  17.685  0.00  0.00     0.352 A 
ENDBRANCH  28  30
ENDBRANCH   4  26
TORSDOF 6
ENDMDL
MODEL 2
REMARK VINA RESULT:    -8.212      4.748      7.482
REMARK INTER + INTRA:         -11.900
REMARK INTER:                 -10.779
REMARK INTRA:                  -1.121
REMARK UNBOUND:                -1.288
REMARK  6 active torsions:
REMARK  status: ('A' for Active; 'I' for Inactive)
REMARK    1  A    between atoms: C_2  and  C_3 
REMARK    2  A    between atoms: C_6  and  C_7 
REMARK    3  A    between atoms: C_9  and  N_10 
REMARK    4  A    between atoms: C_11  and  C_12 
REMARK       I    between atoms: C_12  and  N_14 
REMARK    5  A    between atoms: N_14  and  C_15 
REMARK    6  A    between atoms: C_27  and  N_28 
ROOT
HETATM    1  C   UNL     1       6.777  12.869  21.440  0.00  0.00     0.013 C 
HETATM    2  C   UNL     1       5.608  13.476  22.031  0.00  0.00     0.035 C 
HETATM    3  C   UNL     1       4.175  13.189  22.073  0.00  0.00     0.043 C 
HETATM    4  C   UNL     1       3.477  13.963  22.988  0.00  0.00     0.097 C 
HETATM    5  S   UNL     1       4.486  15.168  23.657  0.00  0.00    -0.062 SA
HETATM    6  C   UNL     1       5.833  14.638  22.771  0.00  0.00     0.113 C 
HETATM    7  N   UNL     1       6.977  15.334  22.883  0.00  0.00    -0.227 NA
HETATM    8  C   UNL     1       8.029  14.829  22.244  0.00  0.00     0.123 C 
HETATM    9  C   UNL     1       7.998  13.612  21.562  0.00  0.00     0.096 C 
HETATM   10  C   UNL     1       9.261  13.139  21.061  0.00  0.00     0.103 C 
HETATM   11  N   UNL     1      10.297  12.794  20.668  0.00  0.00    -0.191 NA
ENDROOT
BRANCH   1  12
HETATM   12  C   UNL     1       6.753  11.480  20.873  0.00  0.00    -0.023 C 
HETATM   13  C   UNL     1       6.881  10.343  21.691  0.00  0.00     0.013 C 
HETATM   14  C   UNL     1       6.526   9.064  21.248  0.00  0.00     0.008 C 
HETATM   15  C   UNL     1       6.171   8.847  19.918  0.00  0.00    -0.059 C 
HETATM   16  C   UNL     1       6.201   9.931  19.041  0.00  0.00     0.008 C 
HETATM   17  C   UNL     1       6.435  11.227  19.524  0.00  0.00     0.013 C 
BRANCH  15  18
HETATM   18  C   UNL     1       5.681   7.493  19.473  0.00  0.00     0.034 C 
HETATM   19  C   UNL     1       4.191   7.518  19.150  0.00  0.00     0.010 C 
ENDBRANCH  15  18
ENDBRANCH   1  12
BRANCH   8  20
HETATM   20  N   UNL     1       9.160  15.649  22.246  0.00  0.00    -0.286 NA
HETATM   21  H   UNL     1       8.935  16.528  22.704  0.00  0.00     0.125 HD
HETATM   22  H   UNL     1      10.008  15.224  22.608  0.00  0.00     0.125 HD
ENDBRANCH   8  20
BRANCH   3  23
HETATM   23  N   UNL     1       3.558  12.245  21.306  0.00  0.00    -0.301 NA
HETATM   24  H   UNL     1       2.663  11.876  21.639  0.00  0.00     0.124 HD
HETATM   25  H   UNL     1       3.457  12.456  20.310  0.00  0.00     0.124 HD
ENDBRANCH   3  23
BRANCH   4  26
HETATM   26  C   UNL     1       2.068  13.939  23.416  0.00  0.00     0.265 C 
HETATM   27  O   UNL     1       1.648  14.666  24.316  0.00  0.00    -0.267 OA
HETATM   28  N   UNL     1       1.278  13.042  22.719  0.00  0.00    -0.322 N 
HETATM   29  H   UNL     1       1.742  12.571  21.951  0.00  0.00     0.169 HD
BRANCH  28  30
HETATM   30  C   UNL     1      -0.095  12.744  22.905  0.00  0.00     0.037 A 
HETATM   31  C   UNL     1      -1.120  13.160  22.026  0.00  0.00     0.032 A 
HETATM   32  C   UNL     1      -2.463  12.833  22.267  0.00  0.00     0.042 A 
HETATM   33  C   UNL     1      -2.756  12.096  23.390  0.00  0.00     0.105 A 
HETATM   34  C   UNL     1      -1.772  11.690  24.256  0.00  0.00     0.107 A 
HETATM   35  O   UNL     1      -3.995  11.690  23.776  0.00  0.00    -0.323 OA
HETATM   36  C   UNL     1      -0.440  11.997  24.045  0.00  0.00     0.069 A 
HETATM   37  O   UNL     1      -2.271  10.978  25.303  0.00  0.00    -0.323 OA
HETATM   38  C   UNL     1      -3.681  10.982  24.992  0.00  0.00     0.352 A 
ENDBRANCH  28  30
ENDBRANCH   4  26
TORSDOF 6
ENDMDL
MODEL 3
REMARK VINA RESULT:    -8.184      0.978      1.245
REMARK INTER + INTRA:         -11.864
REMARK INTER:                 -10.657
REMARK INTRA:                  -1.207
REMARK UNBOUND:                -1.288
REMARK  6 active torsions:
REMARK  status: ('A' for Active; 'I' for Inactive)
REMARK    1  A    between atoms: C_2  and  C_3 
REMARK    2  A    between atoms: C_6  and  C_7 
REMARK    3  A    between atoms: C_9  and  N_10 
REMARK    4  A    between atoms: C_11  and  C_12 
REMARK       I    between atoms: C_12  and  N_14 
REMARK    5  A    between atoms: N_14  and  C_15 
REMARK    6  A    between atoms: C_27  and  N_28 
ROOT
HETATM    1  C   UNL     1       9.130  13.499  24.516  0.00  0.00     0.013 C 
HETATM    2  C   UNL     1       8.996  12.082  24.272  0.00  0.00     0.035 C 
HETATM    3  C   UNL     1       7.891  11.146  24.068  0.00  0.00     0.043 C 
HETATM    4  C   UNL     1       8.295   9.893  23.630  0.00  0.00     0.097 C 
HETATM    5  S   UNL     1       9.998   9.765  23.650  0.00  0.00    -0.062 SA
HETATM    6  C   UNL     1      10.187  11.361  24.193  0.00  0.00     0.113 C 
HETATM    7  N   UNL     1      11.432  11.796  24.456  0.00  0.00    -0.227 NA
HETATM    8  C   UNL     1      11.540  13.080  24.789  0.00  0.00     0.123 C 
HETATM    9  C   UNL     1      10.459  13.962  24.794  0.00  0.00     0.096 C 
HETATM   10  C   UNL     1      10.777  15.346  25.027  0.00  0.00     0.103 C 
HETATM   11  N   UNL     1      11.074  16.450  25.224  0.00  0.00    -0.191 NA
ENDROOT
BRANCH   1  12
HETATM   12  C   UNL     1       7.985  14.451  24.338  0.00  0.00    -0.023 C 
HETATM   13  C   UNL     1       7.557  14.865  23.063  0.00  0.00     0.013 C 
HETATM   14  C   UNL     1       6.309  15.462  22.856  0.00  0.00     0.008 C 
HETATM   15  C   UNL     1       5.499  15.808  23.935  0.00  0.00    -0.059 C 
HETATM   16  C   UNL     1       5.975  15.564  25.223  0.00  0.00     0.008 C 
HETATM   17  C   UNL     1       7.169  14.851  25.414  0.00  0.00     0.013 C 
BRANCH  15  18
HETATM   18  C   UNL     1       4.111  16.347  23.702  0.00  0.00     0.034 C 
HETATM   19  C   UNL     1       3.083  15.223  23.623  0.00  0.00     0.010 C 
ENDBRANCH  15  18
ENDBRANCH   1  12
BRANCH   8  20
HETATM   20  N   UNL     1      12.815  13.466  25.208  0.00  0.00    -0.286 NA
HETATM   21  H   UNL     1      13.147  12.815  25.915  0.00  0.00     0.125 HD
HETATM   22  H   UNL     1      13.492  13.619  24.467  0.00  0.00     0.125 HD
ENDBRANCH   8  20
BRANCH   3  23
HETATM   23  N   UNL     1       6.577  11.451  24.268  0.00  0.00    -0.301 NA
HETATM   24  H   UNL     1       5.906  11.137  23.562  0.00  0.00     0.124 HD
HETATM   25  H   UNL     1       6.189  11.231  25.188  0.00  0.00     0.124 HD
ENDBRANCH   3  23
BRANCH   4  26
HETATM   26  C   UNL     1       7.527   8.706  23.216  0.00  0.00     0.265 C 
HETATM   27  O   UNL     1       6.785   8.108  23.993  0.00  0.00    -0.267 OA
HETATM   28  N   UNL     1       7.713   8.342  21.894  0.00  0.00    -0.322 N 
HETATM   29  H   UNL     1       8.289   8.976  21.353  0.00  0.00     0.169 HD
BRANCH  28  30
HETATM   30  C   UNL     1       7.162   7.238  21.196  0.00  0.00     0.037 A 
HETATM   31  C   UNL     1       7.588   5.903  21.367  0.00  0.00     0.032 A 
HETATM   32  C   UNL     1       7.001   4.853  20.645  0.00  0.00     0.042 A 
HETATM   33  C   UNL     1       5.997   5.162  19.758  0.00  0.00     0.105 A 
HETATM   34  C   UNL     1       5.576   6.456  19.577  0.00  0.00     0.107 A 
HETATM   35  O   UNL     1       5.319   4.277  18.980  0.00  0.00    -0.323 OA
HETATM   36  C   UNL     1       6.136   7.511  20.275  0.00  0.00     0.069 A 
HETATM   37  O   UNL     1       4.579   6.549  18.655  0.00  0.00    -0.323 OA
HETATM   38  C   UNL     1       4.421   5.162  18.282  0.00  0.00     0.352 A 
ENDBRANCH  28  30
ENDBRANCH   4  26
TORSDOF 6
ENDMDL
MODEL 4
REMARK VINA RESULT:    -8.150      4.776      5.355
REMARK INTER + INTRA:         -11.819
REMARK INTER:                 -10.574
REMARK INTRA:                  -1.245
REMARK UNBOUND:                -1.288
REMARK  6 active torsions:
REMARK  status: ('A' for Active; 'I' for Inactive)
REMARK    1  A    between atoms: C_2  and  C_3 
REMARK    2  A    between atoms: C_6  and  C_7 
REMARK    3  A    between atoms: C_9  and  N_10 
REMARK    4  A    between atoms: C_11  and  C_12 
REMARK       I    between atoms: C_12  and  N_14 
REMARK    5  A    between atoms: N_14  and  C_15 
REMARK    6  A    between atoms: C_27  and  N_28 
ROOT
HETATM    1  C   UNL     1       8.133  11.421  23.738  0.00  0.00     0.013 C 
HETATM    2  C   UNL     1       7.309  10.251  23.927  0.00  0.00     0.035 C 
HETATM    3  C   UNL     1       5.914   9.988  24.277  0.00  0.00     0.043 C 
HETATM    4  C   UNL     1       5.535   8.665  24.102  0.00  0.00     0.097 C 
HETATM    5  S   UNL     1       6.884   7.695  23.710  0.00  0.00    -0.062 SA
HETATM    6  C   UNL     1       7.941   9.023  23.737  0.00  0.00     0.113 C 
HETATM    7  N   UNL     1       9.251   8.792  23.539  0.00  0.00    -0.227 NA
HETATM    8  C   UNL     1      10.027   9.871  23.475  0.00  0.00     0.123 C 
HETATM    9  C   UNL     1       9.530  11.174  23.525  0.00  0.00     0.096 C 
HETATM   10  C   UNL     1      10.488  12.222  23.286  0.00  0.00     0.103 C 
HETATM   11  N   UNL     1      11.290  13.037  23.095  0.00  0.00    -0.191 NA
ENDROOT
BRANCH   1  12
HETATM   12  C   UNL     1       7.549  12.797  23.616  0.00  0.00    -0.023 C 
HETATM   13  C   UNL     1       6.764  13.174  22.510  0.00  0.00     0.013 C 
HETATM   14  C   UNL     1       5.942  14.306  22.534  0.00  0.00     0.008 C 
HETATM   15  C   UNL     1       5.985  15.193  23.607  0.00  0.00    -0.059 C 
HETATM   16  C   UNL     1       6.883  14.934  24.642  0.00  0.00     0.008 C 
HETATM   17  C   UNL     1       7.608  13.733  24.667  0.00  0.00     0.013 C 
BRANCH  15  18
HETATM   18  C   UNL     1       5.019  16.347  23.679  0.00  0.00     0.034 C 
HETATM   19  C   UNL     1       4.035  16.179  24.832  0.00  0.00     0.010 C 
ENDBRANCH  15  18
ENDBRANCH   1  12
BRANCH   8  20
HETATM   20  N   UNL     1      11.396   9.600  23.427  0.00  0.00    -0.286 NA
HETATM   21  H   UNL     1      11.538   8.594  23.391  0.00  0.00     0.125 HD
HETATM   22  H   UNL     1      11.915  10.094  22.708  0.00  0.00     0.125 HD
ENDBRANCH   8  20
BRANCH   3  23
HETATM   23  N   UNL     1       5.041  10.936  24.723  0.00  0.00    -0.301 NA
HETATM   24  H   UNL     1       4.284  10.629  25.340  0.00  0.00     0.124 HD
HETATM   25  H   UNL     1       5.449  11.783  25.127  0.00  0.00     0.124 HD
ENDBRANCH   3  23
BRANCH   4  26
HETATM   26  C   UNL     1       4.229   7.995  24.237  0.00  0.00     0.265 C 
HETATM   27  O   UNL     1       3.850   7.142  23.436  0.00  0.00    -0.267 OA
HETATM   28  N   UNL     1       3.491   8.407  25.332  0.00  0.00    -0.322 N 
HETATM   29  H   UNL     1       3.966   9.056  25.949  0.00  0.00     0.169 HD
BRANCH  28  30
HETATM   30  C   UNL     1       2.192   7.997  25.726  0.00  0.00     0.037 A 
HETATM   31  C   UNL     1       1.001   8.485  25.147  0.00  0.00     0.032 A 
HETATM   32  C   UNL     1      -0.256   8.041  25.582  0.00  0.00     0.042 A 
HETATM   33  C   UNL     1      -0.297   7.113  26.597  0.00  0.00     0.105 A 
HETATM   34  C   UNL     1       0.853   6.634  27.174  0.00  0.00     0.107 A 
HETATM   35  O   UNL     1      -1.420   6.573  27.140  0.00  0.00    -0.323 OA
HETATM   36  C   UNL     1       2.106   7.055  26.765  0.00  0.00     0.069 A 
HETATM   37  O   UNL     1       0.596   5.731  28.159  0.00  0.00    -0.323 OA
HETATM   38  C   UNL     1      -0.847   5.698  28.131  0.00  0.00     0.352 A 
ENDBRANCH  28  30
ENDBRANCH   4  26
TORSDOF 6
ENDMDL
MODEL 5
REMARK VINA RESULT:    -8.063      2.709      4.788
REMARK INTER + INTRA:         -11.708
REMARK INTER:                 -10.533
REMARK INTRA:                  -1.175
REMARK UNBOUND:                -1.288
REMARK  6 active torsions:
REMARK  status: ('A' for Active; 'I' for Inactive)
REMARK    1  A    between atoms: C_2  and  C_3 
REMARK    2  A    between atoms: C_6  and  C_7 
REMARK    3  A    between atoms: C_9  and  N_10 
REMARK    4  A    between atoms: C_11  and  C_12 
REMARK       I    between atoms: C_12  and  N_14 
REMARK    5  A    between atoms: N_14  and  C_15 
REMARK    6  A    between atoms: C_27  and  N_28 
ROOT
HETATM    1  C   UNL     1       7.354  13.412  23.472  0.00  0.00     0.013 C 
HETATM    2  C   UNL     1       6.667  12.787  22.366  0.00  0.00     0.035 C 
HETATM    3  C   UNL     1       7.046  11.976  21.211  0.00  0.00     0.043 C 
HETATM    4  C   UNL     1       5.966  11.408  20.549  0.00  0.00     0.097 C 
HETATM    5  S   UNL     1       4.492  11.996  21.180  0.00  0.00    -0.062 SA
HETATM    6  C   UNL     1       5.283  12.956  22.335  0.00  0.00     0.113 C 
HETATM    7  N   UNL     1       4.531  13.743  23.124  0.00  0.00    -0.227 NA
HETATM    8  C   UNL     1       5.184  14.406  24.075  0.00  0.00     0.123 C 
HETATM    9  C   UNL     1       6.551  14.250  24.314  0.00  0.00     0.096 C 
HETATM   10  C   UNL     1       7.066  14.922  25.478  0.00  0.00     0.103 C 
HETATM   11  N   UNL     1       7.444  15.483  26.420  0.00  0.00    -0.191 NA
ENDROOT
BRANCH   1  12
HETATM   12  C   UNL     1       8.778  13.086  23.812  0.00  0.00    -0.023 C 
HETATM   13  C   UNL     1       9.848  13.879  23.359  0.00  0.00     0.013 C 
HETATM   14  C   UNL     1      11.123  13.803  23.930  0.00  0.00     0.008 C 
HETATM   15  C   UNL     1      11.421  12.824  24.875  0.00  0.00    -0.059 C 
HETATM   16  C   UNL     1      10.423  11.912  25.219  0.00  0.00     0.008 C 
HETATM   17  C   UNL     1       9.116  12.077  24.735  0.00  0.00     0.013 C 
BRANCH  15  18
HETATM   18  C   UNL     1      12.759  12.817  25.569  0.00  0.00     0.034 C 
HETATM   19  C   UNL     1      13.516  14.119  25.331  0.00  0.00     0.010 C 
ENDBRANCH  15  18
ENDBRANCH   1  12
BRANCH   8  20
HETATM   20  N   UNL     1       4.409  15.331  24.776  0.00  0.00    -0.286 NA
HETATM   21  H   UNL     1       4.238  16.141  24.186  0.00  0.00     0.125 HD
HETATM   22  H   UNL     1       3.560  14.965  25.193  0.00  0.00     0.125 HD
ENDBRANCH   8  20
BRANCH   3  23
HETATM   23  N   UNL     1       8.331  11.768  20.805  0.00  0.00    -0.301 NA
HETATM   24  H   UNL     1       8.476  11.428  19.850  0.00  0.00     0.124 HD
HETATM   25  H   UNL     1       8.994  12.529  20.970  0.00  0.00     0.124 HD
ENDBRANCH   3  23
BRANCH   4  26
HETATM   26  C   UNL     1       5.896  10.464  19.420  0.00  0.00     0.265 C 
HETATM   27  O   UNL     1       6.540  10.636  18.387  0.00  0.00    -0.267 OA
HETATM   28  N   UNL     1       5.058   9.384  19.635  0.00  0.00    -0.322 N 
HETATM   29  H   UNL     1       4.658   9.331  20.565  0.00  0.00     0.169 HD
BRANCH  28  30
HETATM   30  C   UNL     1       4.737   8.325  18.749  0.00  0.00     0.037 A 
HETATM   31  C   UNL     1       5.392   7.074  18.742  0.00  0.00     0.032 A 
HETATM   32  C   UNL     1       5.028   6.066  17.838  0.00  0.00     0.042 A 
HETATM   33  C   UNL     1       4.012   6.332  16.950  0.00  0.00     0.105 A 
HETATM   34  C   UNL     1       3.370   7.545  16.940  0.00  0.00     0.107 A 
HETATM   35  O   UNL     1       3.530   5.476  16.010  0.00  0.00    -0.323 OA
HETATM   36  C   UNL     1       3.708   8.557  17.820  0.00  0.00     0.069 A 
HETATM   37  O   UNL     1       2.402   7.606  15.986  0.00  0.00    -0.323 OA
HETATM   38  C   UNL     1       2.509   6.290  15.401  0.00  0.00     0.352 A 
ENDBRANCH  28  30
ENDBRANCH   4  26
TORSDOF 6
ENDMDL
MODEL 6
REMARK VINA RESULT:    -8.040      3.254      3.690
REMARK INTER + INTRA:         -11.678
REMARK INTER:                 -10.651
REMARK INTRA:                  -1.027
REMARK UNBOUND:                -1.288
REMARK  6 active torsions:
REMARK  status: ('A' for Active; 'I' for Inactive)
REMARK    1  A    between atoms: C_2  and  C_3 
REMARK    2  A    between atoms: C_6  and  C_7 
REMARK    3  A    between atoms: C_9  and  N_10 
REMARK    4  A    between atoms: C_11  and  C_12 
REMARK       I    between atoms: C_12  and  N_14 
REMARK    5  A    between atoms: N_14  and  C_15 
REMARK    6  A    between atoms: C_27  and  N_28 
ROOT
HETATM    1  C   UNL     1       8.783  13.695  23.007  0.00  0.00     0.013 C 
HETATM    2  C   UNL     1       8.967  12.288  23.273  0.00  0.00     0.035 C 
HETATM    3  C   UNL     1       8.158  11.205  23.830  0.00  0.00     0.043 C 
HETATM    4  C   UNL     1       8.718   9.946  23.659  0.00  0.00     0.097 C 
HETATM    5  S   UNL     1      10.294  10.067  23.014  0.00  0.00    -0.062 SA
HETATM    6  C   UNL     1      10.211  11.760  22.930  0.00  0.00     0.113 C 
HETATM    7  N   UNL     1      11.303  12.427  22.514  0.00  0.00    -0.227 NA
HETATM    8  C   UNL     1      11.161  13.742  22.375  0.00  0.00     0.123 C 
HETATM    9  C   UNL     1       9.947  14.405  22.562  0.00  0.00     0.096 C 
HETATM   10  C   UNL     1       9.934  15.803  22.220  0.00  0.00     0.103 C 
HETATM   11  N   UNL     1       9.966  16.928  21.939  0.00  0.00    -0.191 NA
ENDROOT
BRANCH   1  12
HETATM   12  C   UNL     1       7.431  14.343  23.042  0.00  0.00    -0.023 C 
HETATM   13  C   UNL     1       6.379  13.909  22.214  0.00  0.00     0.013 C 
HETATM   14  C   UNL     1       5.046  14.255  22.462  0.00  0.00     0.008 C 
HETATM   15  C   UNL     1       4.725  15.173  23.459  0.00  0.00    -0.059 C 
HETATM   16  C   UNL     1       5.765  15.752  24.185  0.00  0.00     0.008 C 
HETATM   17  C   UNL     1       7.084  15.303  24.013  0.00  0.00     0.013 C 
BRANCH  15  18
HETATM   18  C   UNL     1       3.283  15.455  23.797  0.00  0.00     0.034 C 
HETATM   19  C   UNL     1       2.823  14.640  25.000  0.00  0.00     0.010 C 
ENDBRANCH  15  18
ENDBRANCH   1  12
BRANCH   8  20
HETATM   20  N   UNL     1      12.345  14.428  22.096  0.00  0.00    -0.286 NA
HETATM   21  H   UNL     1      12.723  14.098  21.212  0.00  0.00     0.125 HD
HETATM   22  H   UNL     1      12.286  15.441  22.142  0.00  0.00     0.125 HD
ENDBRANCH   8  20
BRANCH   3  23
HETATM   23  N   UNL     1       6.958  11.382  24.453  0.00  0.00    -0.301 NA
HETATM   24  H   UNL     1       6.780  10.837  25.301  0.00  0.00     0.124 HD
HETATM   25  H   UNL     1       6.673  12.347  24.636  0.00  0.00     0.124 HD
ENDBRANCH   3  23
BRANCH   4  26
HETATM   26  C   UNL     1       8.211   8.599  23.972  0.00  0.00     0.265 C 
HETATM   27  O   UNL     1       8.965   7.669  24.253  0.00  0.00    -0.267 OA
HETATM   28  N   UNL     1       6.832   8.487  23.925  0.00  0.00    -0.322 N 
HETATM   29  H   UNL     1       6.338   9.356  23.760  0.00  0.00     0.169 HD
BRANCH  28  30
HETATM   30  C   UNL     1       6.033   7.335  24.131  0.00  0.00     0.037 A 
HETATM   31  C   UNL     1       6.111   6.167  23.340  0.00  0.00     0.032 A 
HETATM   32  C   UNL     1       5.290   5.059  23.595  0.00  0.00     0.042 A 
HETATM   33  C   UNL     1       4.400   5.142  24.640  0.00  0.00     0.105 A 
HETATM   34  C   UNL     1       4.308   6.271  25.413  0.00  0.00     0.107 A 
HETATM   35  O   UNL     1       3.534   4.169  25.029  0.00  0.00    -0.323 OA
HETATM   36  C   UNL     1       5.105   7.379  25.186  0.00  0.00     0.069 A 
HETATM   37  O   UNL     1       3.367   6.152  26.389  0.00  0.00    -0.323 OA
HETATM   38  C   UNL     1       2.880   4.816  26.138  0.00  0.00     0.352 A 
ENDBRANCH  28  30
ENDBRANCH   4  26
TORSDOF 6
ENDMDL
MODEL 7
REMARK VINA RESULT:    -8.040      4.229      6.902
REMARK INTER + INTRA:         -11.678
REMARK INTER:                 -11.068
REMARK INTRA:                  -0.610
REMARK UNBOUND:                -1.288
REMARK  6 active torsions:
REMARK  status: ('A' for Active; 'I' for Inactive)
REMARK    1  A    between atoms: C_2  and  C_3 
REMARK    2  A    between atoms: C_6  and  C_7 
REMARK    3  A    between atoms: C_9  and  N_10 
REMARK    4  A    between atoms: C_11  and  C_12 
REMARK       I    between atoms: C_12  and  N_14 
REMARK    5  A    between atoms: N_14  and  C_15 
REMARK    6  A    between atoms: C_27  and  N_28 
ROOT
HETATM    1  C   UNL     1       7.942  12.912  22.648  0.00  0.00     0.013 C 
HETATM    2  C   UNL     1       6.674  13.595  22.741  0.00  0.00     0.035 C 
HETATM    3  C   UNL     1       5.263  13.217  22.670  0.00  0.00     0.043 C 
HETATM    4  C   UNL     1       4.394  14.226  23.059  0.00  0.00     0.097 C 
HETATM    5  S   UNL     1       5.241  15.686  23.322  0.00  0.00    -0.062 SA
HETATM    6  C   UNL     1       6.737  14.971  22.961  0.00  0.00     0.113 C 
HETATM    7  N   UNL     1       7.828  15.756  22.956  0.00  0.00    -0.227 NA
HETATM    8  C   UNL     1       8.989  15.136  22.759  0.00  0.00     0.123 C 
HETATM    9  C   UNL     1       9.106  13.750  22.645  0.00  0.00     0.096 C 
HETATM   10  C   UNL     1      10.448  13.235  22.592  0.00  0.00     0.103 C 
HETATM   11  N   UNL     1      11.545  12.858  22.547  0.00  0.00    -0.191 NA
ENDROOT
BRANCH   1  12
HETATM   12  C   UNL     1       8.049  11.417  22.709  0.00  0.00    -0.023 C 
HETATM   13  C   UNL     1       8.515  10.753  23.859  0.00  0.00     0.013 C 
HETATM   14  C   UNL     1       8.305   9.385  24.064  0.00  0.00     0.008 C 
HETATM   15  C   UNL     1       7.753   8.593  23.059  0.00  0.00    -0.059 C 
HETATM   16  C   UNL     1       7.439   9.195  21.841  0.00  0.00     0.008 C 
HETATM   17  C   UNL     1       7.536  10.587  21.693  0.00  0.00     0.013 C 
BRANCH  15  18
HETATM   18  C   UNL     1       7.426   7.146  23.325  0.00  0.00     0.034 C 
HETATM   19  C   UNL     1       8.575   6.434  24.029  0.00  0.00     0.010 C 
ENDBRANCH  15  18
ENDBRANCH   1  12
BRANCH   8  20
HETATM   20  N   UNL     1      10.084  15.989  22.602  0.00  0.00    -0.286 NA
HETATM   21  H   UNL     1      10.890  15.446  22.302  0.00  0.00     0.125 HD
HETATM   22  H   UNL     1       9.924  16.805  22.021  0.00  0.00     0.125 HD
ENDBRANCH   8  20
BRANCH   3  23
HETATM   23  N   UNL     1       4.814  11.992  22.273  0.00  0.00    -0.301 NA
HETATM   24  H   UNL     1       3.802  11.839  22.263  0.00  0.00     0.124 HD
HETATM   25  H   UNL     1       5.195  11.624  21.398  0.00  0.00     0.124 HD
ENDBRANCH   3  23
BRANCH   4  26
HETATM   26  C   UNL     1       2.931  14.246  23.229  0.00  0.00     0.265 C 
HETATM   27  O   UNL     1       2.383  14.961  24.068  0.00  0.00    -0.267 OA
HETATM   28  N   UNL     1       2.249  13.405  22.369  0.00  0.00    -0.322 N 
HETATM   29  H   UNL     1       2.826  12.940  21.677  0.00  0.00     0.169 HD
BRANCH  28  30
HETATM   30  C   UNL     1       0.854  13.158  22.296  0.00  0.00     0.037 A 
HETATM   31  C   UNL     1       0.078  13.348  21.132  0.00  0.00     0.032 A 
HETATM   32  C   UNL     1      -1.300  13.087  21.125  0.00  0.00     0.042 A 
HETATM   33  C   UNL     1      -1.878  12.640  22.290  0.00  0.00     0.105 A 
HETATM   34  C   UNL     1      -1.138  12.457  23.431  0.00  0.00     0.107 A 
HETATM   35  O   UNL     1      -3.192  12.337  22.463  0.00  0.00    -0.323 OA
HETATM   36  C   UNL     1       0.223  12.706  23.467  0.00  0.00     0.069 A 
HETATM   37  O   UNL     1      -1.897  12.015  24.471  0.00  0.00    -0.323 OA
HETATM   38  C   UNL     1      -3.198  11.942  23.849  0.00  0.00     0.352 A 
ENDBRANCH  28  30
ENDBRANCH   4  26
TORSDOF 6
ENDMDL
MODEL 8
REMARK VINA RESULT:    -7.920      2.395      3.945
REMARK INTER + INTRA:         -11.523
REMARK INTER:                 -10.566
REMARK INTRA:                  -0.957
REMARK UNBOUND:                -1.288
REMARK  6 active torsions:
REMARK  status: ('A' for Active; 'I' for Inactive)
REMARK    1  A    between atoms: C_2  and  C_3 
REMARK    2  A    between atoms: C_6  and  C_7 
REMARK    3  A    between atoms: C_9  and  N_10 
REMARK    4  A    between atoms: C_11  and  C_12 
REMARK       I    between atoms: C_12  and  N_14 
REMARK    5  A    between atoms: N_14  and  C_15 
REMARK    6  A    between atoms: C_27  and  N_28 
ROOT
HETATM    1  C   UNL     1       7.207  10.491  23.197  0.00  0.00     0.013 C 
HETATM    2  C   UNL     1       6.725   9.320  22.504  0.00  0.00     0.035 C 
HETATM    3  C   UNL     1       5.480   8.916  21.852  0.00  0.00     0.043 C 
HETATM    4  C   UNL     1       5.592   7.749  21.109  0.00  0.00     0.097 C 
HETATM    5  S   UNL     1       7.121   7.026  21.345  0.00  0.00    -0.062 SA
HETATM    6  C   UNL     1       7.632   8.266  22.384  0.00  0.00     0.113 C 
HETATM    7  N   UNL     1       8.844   8.153  22.955  0.00  0.00    -0.227 NA
HETATM    8  C   UNL     1       9.239   9.192  23.687  0.00  0.00     0.123 C 
HETATM    9  C   UNL     1       8.501  10.370  23.805  0.00  0.00     0.096 C 
HETATM   10  C   UNL     1       9.146  11.449  24.505  0.00  0.00     0.103 C 
HETATM   11  N   UNL     1       9.696  12.292  25.081  0.00  0.00    -0.191 NA
ENDROOT
BRANCH   1  12
HETATM   12  C   UNL     1       6.475  11.799  23.156  0.00  0.00    -0.023 C 
HETATM   13  C   UNL     1       5.613  12.200  24.193  0.00  0.00     0.013 C 
HETATM   14  C   UNL     1       5.198  13.527  24.343  0.00  0.00     0.008 C 
HETATM   15  C   UNL     1       5.505  14.482  23.376  0.00  0.00    -0.059 C 
HETATM   16  C   UNL     1       6.215  14.073  22.248  0.00  0.00     0.008 C 
HETATM   17  C   UNL     1       6.734  12.772  22.170  0.00  0.00     0.013 C 
BRANCH  15  18
HETATM   18  C   UNL     1       5.153  15.930  23.598  0.00  0.00     0.034 C 
HETATM   19  C   UNL     1       4.298  16.111  24.847  0.00  0.00     0.010 C 
ENDBRANCH  15  18
ENDBRANCH   1  12
BRANCH   8  20
HETATM   20  N   UNL     1      10.426   8.987  24.393  0.00  0.00    -0.286 NA
HETATM   21  H   UNL     1      11.141   8.643  23.756  0.00  0.00     0.125 HD
HETATM   22  H   UNL     1      10.745   9.772  24.952  0.00  0.00     0.125 HD
ENDBRANCH   8  20
BRANCH   3  23
HETATM   23  N   UNL     1       4.308   9.608  21.936  0.00  0.00    -0.301 NA
HETATM   24  H   UNL     1       3.444   9.101  21.730  0.00  0.00     0.124 HD
HETATM   25  H   UNL     1       4.156  10.152  22.789  0.00  0.00     0.124 HD
ENDBRANCH   3  23
BRANCH   4  26
HETATM   26  C   UNL     1       4.635   7.052  20.233  0.00  0.00     0.265 C 
HETATM   27  O   UNL     1       3.918   6.142  20.646  0.00  0.00    -0.267 OA
HETATM   28  N   UNL     1       4.619   7.514  18.929  0.00  0.00    -0.322 N 
HETATM   29  H   UNL     1       5.205   8.323  18.754  0.00  0.00     0.169 HD
BRANCH  28  30
HETATM   30  C   UNL     1       3.853   7.041  17.833  0.00  0.00     0.037 A 
HETATM   31  C   UNL     1       2.813   7.775  17.221  0.00  0.00     0.032 A 
HETATM   32  C   UNL     1       2.091   7.250  16.140  0.00  0.00     0.042 A 
HETATM   33  C   UNL     1       2.423   5.994  15.691  0.00  0.00     0.105 A 
HETATM   34  C   UNL     1       3.427   5.266  16.279  0.00  0.00     0.107 A 
HETATM   35  O   UNL     1       1.834   5.333  14.659  0.00  0.00    -0.323 OA
HETATM   36  C   UNL     1       4.157   5.758  17.347  0.00  0.00     0.069 A 
HETATM   37  O   UNL     1       3.595   4.051  15.691  0.00  0.00    -0.323 OA
HETATM   38  C   UNL     1       2.580   4.101  14.664  0.00  0.00     0.352 A 
ENDBRANCH  28  30
ENDBRANCH   4  26
TORSDOF 6
ENDMDL
MODEL 9
REMARK VINA RESULT:    -7.865      2.600      2.994
REMARK INTER + INTRA:         -11.452
REMARK INTER:                 -10.164
REMARK INTRA:                  -1.288
REMARK UNBOUND:                -1.288
REMARK  6 active torsions:
REMARK  status: ('A' for Active; 'I' for Inactive)
REMARK    1  A    between atoms: C_2  and  C_3 
REMARK    2  A    between atoms: C_6  and  C_7 
REMARK    3  A    between atoms: C_9  and  N_10 
REMARK    4  A    between atoms: C_11  and  C_12 
REMARK       I    between atoms: C_12  and  N_14 
REMARK    5  A    between atoms: N_14  and  C_15 
REMARK    6  A    between atoms: C_27  and  N_28 
ROOT
HETATM    1  C   UNL     1       9.343  13.611  24.517  0.00  0.00     0.013 C 
HETATM    2  C   UNL     1       9.282  12.188  24.279  0.00  0.00     0.035 C 
HETATM    3  C   UNL     1       8.227  11.196  24.078  0.00  0.00     0.043 C 
HETATM    4  C   UNL     1       8.696   9.963  23.646  0.00  0.00     0.097 C 
HETATM    5  S   UNL     1      10.403   9.923  23.668  0.00  0.00    -0.062 SA
HETATM    6  C   UNL     1      10.509  11.529  24.205  0.00  0.00     0.113 C 
HETATM    7  N   UNL     1      11.729  12.029  24.467  0.00  0.00    -0.227 NA
HETATM    8  C   UNL     1      11.771  13.318  24.795  0.00  0.00     0.123 C 
HETATM    9  C   UNL     1      10.645  14.143  24.795  0.00  0.00     0.096 C 
HETATM   10  C   UNL     1      10.892  15.542  25.021  0.00  0.00     0.103 C 
HETATM   11  N   UNL     1      11.131  16.662  25.213  0.00  0.00    -0.191 NA
ENDROOT
BRANCH   1  12
HETATM   12  C   UNL     1       8.150  14.502  24.333  0.00  0.00    -0.023 C 
HETATM   13  C   UNL     1       7.692  14.872  23.055  0.00  0.00     0.013 C 
HETATM   14  C   UNL     1       6.414  15.404  22.850  0.00  0.00     0.008 C 
HETATM   15  C   UNL     1       5.597  15.728  23.930  0.00  0.00    -0.059 C 
HETATM   16  C   UNL     1       6.095  15.530  25.218  0.00  0.00     0.008 C 
HETATM   17  C   UNL     1       7.324  14.880  25.409  0.00  0.00     0.013 C 
BRANCH  15  18
HETATM   18  C   UNL     1       4.182  16.193  23.701  0.00  0.00     0.034 C 
HETATM   19  C   UNL     1       3.192  15.038  23.811  0.00  0.00     0.010 C 
ENDBRANCH  15  18
ENDBRANCH   1  12
BRANCH   8  20
HETATM   20  N   UNL     1      13.023  13.771  25.213  0.00  0.00    -0.286 NA
HETATM   21  H   UNL     1      13.700  13.018  25.122  0.00  0.00     0.125 HD
HETATM   22  H   UNL     1      13.341  14.636  24.786  0.00  0.00     0.125 HD
ENDBRANCH   8  20
BRANCH   3  23
HETATM   23  N   UNL     1       6.899  11.434  24.275  0.00  0.00    -0.301 NA
HETATM   24  H   UNL     1       6.318  10.648  24.579  0.00  0.00     0.124 HD
HETATM   25  H   UNL     1       6.658  12.242  24.853  0.00  0.00     0.124 HD
ENDBRANCH   3  23
BRANCH   4  26
HETATM   26  C   UNL     1       7.990   8.736  23.237  0.00  0.00     0.265 C 
HETATM   27  O   UNL     1       6.806   8.747  22.905  0.00  0.00    -0.267 OA
HETATM   28  N   UNL     1       8.775   7.597  23.257  0.00  0.00    -0.322 N 
HETATM   29  H   UNL     1       9.752   7.754  23.472  0.00  0.00     0.169 HD
BRANCH  28  30
HETATM   30  C   UNL     1       8.400   6.261  22.963  0.00  0.00     0.037 A 
HETATM   31  C   UNL     1       8.079   5.297  23.943  0.00  0.00     0.032 A 
HETATM   32  C   UNL     1       7.716   3.989  23.588  0.00  0.00     0.042 A 
HETATM   33  C   UNL     1       7.684   3.670  22.251  0.00  0.00     0.105 A 
HETATM   34  C   UNL     1       7.998   4.595  21.287  0.00  0.00     0.107 A 
HETATM   35  O   UNL     1       7.354   2.459  21.727  0.00  0.00    -0.323 OA
HETATM   36  C   UNL     1       8.360   5.891  21.608  0.00  0.00     0.069 A 
HETATM   37  O   UNL     1       7.909   4.079  20.030  0.00  0.00    -0.323 OA
HETATM   38  C   UNL     1       7.500   2.725  20.318  0.00  0.00     0.352 A 
ENDBRANCH  28  30
ENDBRANCH   4  26
TORSDOF 6
ENDMDL
