MODEL 1
REMARK VINA RESULT:    -8.058      0.000      0.000
REMARK INTER + INTRA:         -11.001
REMARK INTER:                 -10.109
REMARK INTRA:                  -0.892
REMARK UNBOUND:                -0.353
REMARK  6 active torsions:
REMARK  status: ('A' for Active; 'I' for Inactive)
REMARK    1  A    between atoms: C_2  and  C_3 
REMARK    2  A    between atoms: C_3  and  C_5 
REMARK    3  A    between atoms: C_12  and  C_16 
REMARK    4  A    between atoms: C_13  and  O_15 
REMARK       I    between atoms: C_16  and  N_18 
REMARK    5  A    between atoms: N_18  and  C_20 
REMARK    6  A    between atoms: C_23  and  N_26 
ROOT
HETATM    1  C   UNL     1       3.900  13.924  22.910  0.00  0.00     0.071 A 
HETATM    2  N   UNL     1       4.547  14.963  23.465  0.00  0.00    -0.178 NA
HETATM    3  N   UNL     1       5.803  14.840  23.017  0.00  0.00    -0.277 N 
HETATM    4  H   UNL     1       6.487  15.517  23.333  0.00  0.00     0.189 HD
HETATM    5  C   UNL     1       4.765  13.165  22.060  0.00  0.00     0.020 A 
HETATM    6  C   UNL     1       6.002  13.779  22.177  0.00  0.00     0.065 A 
HETATM    7  C   UNL     1       4.654  12.047  21.206  0.00  0.00     0.035 C 
HETATM    8  C   UNL     1       5.786  11.548  20.510  0.00  0.00     0.066 C 
HETATM    9  C   UNL     1       7.028  12.135  20.772  0.00  0.00     0.083 C 
HETATM   10  C   UNL     1       7.153  13.297  21.549  0.00  0.00     0.069 C 
ENDROOT
BRANCH   8  11
HETATM   11  C   UNL     1       5.524  10.356  19.640  0.00  0.00     0.260 C 
HETATM   12  O   UNL     1       6.139   9.343  19.991  0.00  0.00    -0.267 OA
HETATM   13  N   UNL     1       4.639  10.375  18.534  0.00  0.00    -0.318 N 
HETATM   14  C   UNL     1       4.041  11.580  17.957  0.00  0.00     0.159 C 
BRANCH  13  15
HETATM   15  C   UNL     1       4.283   9.129  17.888  0.00  0.00     0.037 A 
HETATM   16  C   UNL     1       4.668   8.864  16.573  0.00  0.00     0.032 A 
HETATM   17  C   UNL     1       4.302   7.672  15.929  0.00  0.00     0.031 A 
HETATM   18  C   UNL     1       3.525   6.689  16.554  0.00  0.00     0.030 A 
HETATM   19  C   UNL     1       3.201   6.934  17.895  0.00  0.00     0.031 A 
HETATM   20  C   UNL     1       3.577   8.123  18.556  0.00  0.00     0.032 A 
BRANCH  18  21
HETATM   21  N   UNL     1       3.059   5.585  15.871  0.00  0.00    -0.377 N 
HETATM   22  C   UNL     1       2.643   4.333  16.521  0.00  0.00     0.149 C 
HETATM   23  C   UNL     1       1.332   3.834  15.887  0.00  0.00     0.187 C 
HETATM   24  O   UNL     1       1.451   3.688  14.461  0.00  0.00    -0.388 OA
HETATM   25  C   UNL     1       1.799   4.948  13.863  0.00  0.00     0.187 C 
HETATM   26  C   UNL     1       3.136   5.481  14.402  0.00  0.00     0.149 C 
ENDBRANCH  18  21
ENDBRANCH  13  15
ENDBRANCH   8  11
BRANCH   9  27
HETATM   27  O   UNL     1       8.221  11.594  20.377  0.00  0.00    -0.360 OA
HETATM   28  H   UNL     1       8.175  10.636  20.549  0.00  0.00     0.217 HD
ENDBRANCH   9  27
BRANCH   1  29
HETATM   29  C   UNL     1       2.431  13.698  23.190  0.00  0.00     0.036 C 
HETATM   30  C   UNL     1       2.015  14.206  24.585  0.00  0.00     0.016 C 
BRANCH  29  31
HETATM   31  C   UNL     1       1.522  14.353  22.131  0.00  0.00     0.006 C 
HETATM   32  C   UNL     1       0.697  13.362  21.321  0.00  0.00     0.006 C 
ENDBRANCH  29  31
ENDBRANCH   1  29
TORSDOF 6
ENDMDL
MODEL 2
REMARK VINA RESULT:    -8.032      1.429      1.778
REMARK INTER + INTRA:         -10.968
REMARK INTER:                 -10.277
REMARK INTRA:                  -0.691
REMARK UNBOUND:                -0.353
REMARK  6 active torsions:
REMARK  status: ('A' for Active; 'I' for Inactive)
REMARK    1  A    between atoms: C_2  and  C_3 
REMARK    2  A    between atoms: C_3  and  C_5 
REMARK    3  A    between atoms: C_12  and  C_16 
REMARK    4  A    between atoms: C_13  and  O_15 
REMARK       I    between atoms: C_16  and  N_18 
REMARK    5  A    between atoms: N_18  and  C_20 
REMARK    6  A    between atoms: C_23  and  N_26 
ROOT
HETATM    1  C   UNL     1       5.247  14.841  23.533  0.00  0.00     0.071 A 
HETATM    2  N   UNL     1       6.162  15.764  23.873  0.00  0.00    -0.178 NA
HETATM    3  N   UNL     1       7.236  15.442  23.140  0.00  0.00    -0.277 N 
HETATM    4  H   UNL     1       8.072  16.002  23.254  0.00  0.00     0.189 HD
HETATM    5  C   UNL     1       5.751  13.952  22.532  0.00  0.00     0.020 A 
HETATM    6  C   UNL     1       7.058  14.362  22.321  0.00  0.00     0.065 A 
HETATM    7  C   UNL     1       5.262  12.864  21.776  0.00  0.00     0.035 C 
HETATM    8  C   UNL     1       6.100  12.190  20.849  0.00  0.00     0.066 C 
HETATM    9  C   UNL     1       7.442  12.572  20.779  0.00  0.00     0.083 C 
HETATM   10  C   UNL     1       7.931  13.701  21.454  0.00  0.00     0.069 C 
ENDROOT
BRANCH   8  11
HETATM   11  C   UNL     1       5.452  11.054  20.117  0.00  0.00     0.260 C 
HETATM   12  O   UNL     1       4.584  11.413  19.314  0.00  0.00    -0.267 OA
HETATM   13  N   UNL     1       5.811   9.696  20.305  0.00  0.00    -0.318 N 
HETATM   14  C   UNL     1       6.682   9.198  21.370  0.00  0.00     0.159 C 
BRANCH  13  15
HETATM   15  C   UNL     1       5.288   8.692  19.402  0.00  0.00     0.037 A 
HETATM   16  C   UNL     1       5.611   8.706  18.045  0.00  0.00     0.032 A 
HETATM   17  C   UNL     1       5.085   7.754  17.157  0.00  0.00     0.031 A 
HETATM   18  C   UNL     1       4.202   6.750  17.571  0.00  0.00     0.030 A 
HETATM   19  C   UNL     1       3.937   6.703  18.946  0.00  0.00     0.031 A 
HETATM   20  C   UNL     1       4.473   7.646  19.848  0.00  0.00     0.032 A 
BRANCH  18  21
HETATM   21  N   UNL     1       3.588   5.904  16.671  0.00  0.00    -0.377 N 
HETATM   22  C   UNL     1       3.300   4.486  16.941  0.00  0.00     0.149 C 
HETATM   23  C   UNL     1       1.878   4.149  16.457  0.00  0.00     0.187 C 
HETATM   24  O   UNL     1       1.693   4.483  15.071  0.00  0.00    -0.388 OA
HETATM   25  C   UNL     1       1.925   5.886  14.865  0.00  0.00     0.187 C 
HETATM   26  C   UNL     1       3.353   6.289  15.267  0.00  0.00     0.149 C 
ENDBRANCH  18  21
ENDBRANCH  13  15
ENDBRANCH   8  11
BRANCH   9  27
HETATM   27  O   UNL     1       8.405  11.848  20.130  0.00  0.00    -0.360 OA
HETATM   28  H   UNL     1       7.967  11.068  19.743  0.00  0.00     0.217 HD
ENDBRANCH   9  27
BRANCH   1  29
HETATM   29  C   UNL     1       3.874  14.852  24.168  0.00  0.00     0.036 C 
HETATM   30  C   UNL     1       3.761  15.890  25.304  0.00  0.00     0.016 C 
BRANCH  29  31
HETATM   31  C   UNL     1       2.753  15.114  23.144  0.00  0.00     0.006 C 
HETATM   32  C   UNL     1       1.393  14.567  23.556  0.00  0.00     0.006 C 
ENDBRANCH  29  31
ENDBRANCH   1  29
TORSDOF 6
ENDMDL
MODEL 3
REMARK VINA RESULT:    -7.741      4.006      6.402
REMARK INTER + INTRA:         -10.583
REMARK INTER:                  -9.881
REMARK INTRA:                  -0.702
REMARK UNBOUND:                -0.353
REMARK  6 active torsions:
REMARK  status: ('A' for Active; 'I' for Inactive)
REMARK    1  A    between atoms: C_2  and  C_3 
REMARK    2  A    between atoms: C_3  and  C_5 
REMARK    3  A    between atoms: C_12  and  C_16 
REMARK    4  A    between atoms: C_13  and  O_15 
REMARK       I    between atoms: C_16  and  N_18 
REMARK    5  A    between atoms: N_18  and  C_20 
REMARK    6  A    between atoms: C_23  and  N_26 
ROOT
HETATM    1  C   UNL     1      10.985  14.269  25.578  0.00  0.00     0.071 A 
HETATM    2  N   UNL     1      10.989  14.935  26.745  0.00  0.00    -0.178 NA
HETATM    3  N   UNL     1       9.712  15.304  26.912  0.00  0.00    -0.277 N 
HETATM    4  H   UNL     1       9.481  15.850  27.733  0.00  0.00     0.189 HD
HETATM    5  C   UNL     1       9.666  14.184  25.030  0.00  0.00     0.020 A 
HETATM    6  C   UNL     1       8.870  14.892  25.917  0.00  0.00     0.065 A 
HETATM    7  C   UNL     1       9.050  13.591  23.907  0.00  0.00     0.035 C 
HETATM    8  C   UNL     1       7.658  13.745  23.677  0.00  0.00     0.066 C 
HETATM    9  C   UNL     1       6.938  14.578  24.539  0.00  0.00     0.083 C 
HETATM   10  C   UNL     1       7.506  15.108  25.708  0.00  0.00     0.069 C 
ENDROOT
BRANCH   8  11
HETATM   11  C   UNL     1       7.138  13.065  22.447  0.00  0.00     0.260 C 
HETATM   12  O   UNL     1       7.584  13.537  21.395  0.00  0.00    -0.267 OA
HETATM   13  N   UNL     1       6.239  11.970  22.478  0.00  0.00    -0.318 N 
HETATM   14  C   UNL     1       5.532  11.499  23.670  0.00  0.00     0.159 C 
BRANCH  13  15
HETATM   15  C   UNL     1       5.964  11.242  21.257  0.00  0.00     0.037 A 
HETATM   16  C   UNL     1       5.233  11.825  20.221  0.00  0.00     0.032 A 
HETATM   17  C   UNL     1       4.936  11.116  19.046  0.00  0.00     0.031 A 
HETATM   18  C   UNL     1       5.338   9.790  18.848  0.00  0.00     0.030 A 
HETATM   19  C   UNL     1       6.128   9.237  19.865  0.00  0.00     0.031 A 
HETATM   20  C   UNL     1       6.445   9.946  21.042  0.00  0.00     0.032 A 
BRANCH  18  21
HETATM   21  N   UNL     1       4.928   9.061  17.752  0.00  0.00    -0.377 N 
HETATM   22  C   UNL     1       5.741   8.017  17.108  0.00  0.00     0.149 C 
HETATM   23  C   UNL     1       4.859   6.795  16.797  0.00  0.00     0.187 C 
HETATM   24  O   UNL     1       3.713   7.152  16.004  0.00  0.00    -0.388 OA
HETATM   25  C   UNL     1       2.917   8.127  16.697  0.00  0.00     0.187 C 
HETATM   26  C   UNL     1       3.716   9.408  16.987  0.00  0.00     0.149 C 
ENDBRANCH  18  21
ENDBRANCH  13  15
ENDBRANCH   8  11
BRANCH   9  27
HETATM   27  O   UNL     1       5.667  15.016  24.286  0.00  0.00    -0.360 OA
HETATM   28  H   UNL     1       5.055  14.379  24.699  0.00  0.00     0.217 HD
ENDBRANCH   9  27
BRANCH   1  29
HETATM   29  C   UNL     1      12.268  13.693  25.020  0.00  0.00     0.036 C 
HETATM   30  C   UNL     1      12.656  14.327  23.668  0.00  0.00     0.016 C 
BRANCH  29  31
HETATM   31  C   UNL     1      13.452  13.840  25.995  0.00  0.00     0.006 C 
HETATM   32  C   UNL     1      13.735  12.594  26.823  0.00  0.00     0.006 C 
ENDBRANCH  29  31
ENDBRANCH   1  29
TORSDOF 6
ENDMDL
MODEL 4
REMARK VINA RESULT:    -7.728      3.266     10.128
REMARK INTER + INTRA:         -10.565
REMARK INTER:                  -9.789
REMARK INTRA:                  -0.776
REMARK UNBOUND:                -0.353
REMARK  6 active torsions:
REMARK  status: ('A' for Active; 'I' for Inactive)
REMARK    1  A    between atoms: C_2  and  C_3 
REMARK    2  A    between atoms: C_3  and  C_5 
REMARK    3  A    between atoms: C_12  and  C_16 
REMARK    4  A    between atoms: C_13  and  O_15 
REMARK       I    between atoms: C_16  and  N_18 
REMARK    5  A    between atoms: N_18  and  C_20 
REMARK    6  A    between atoms: C_23  and  N_26 
ROOT
HETATM    1  C   UNL     1       4.604   6.459  17.419  0.00  0.00     0.071 A 
HETATM    2  N   UNL     1       3.802   6.239  16.364  0.00  0.00    -0.178 NA
HETATM    3  N   UNL     1       3.452   7.467  15.960  0.00  0.00    -0.277 N 
HETATM    4  H   UNL     1       2.817   7.544  15.175  0.00  0.00     0.189 HD
HETATM    5  C   UNL     1       4.792   7.859  17.648  0.00  0.00     0.020 A 
HETATM    6  C   UNL     1       4.005   8.481  16.692  0.00  0.00     0.065 A 
HETATM    7  C   UNL     1       5.533   8.672  18.533  0.00  0.00     0.035 C 
HETATM    8  C   UNL     1       5.448  10.086  18.464  0.00  0.00     0.066 C 
HETATM    9  C   UNL     1       4.538  10.646  17.562  0.00  0.00     0.083 C 
HETATM   10  C   UNL     1       3.855   9.868  16.616  0.00  0.00     0.069 C 
ENDROOT
BRANCH   8  11
HETATM   11  C   UNL     1       6.286  10.823  19.465  0.00  0.00     0.260 C 
HETATM   12  O   UNL     1       7.302  11.333  18.979  0.00  0.00    -0.267 OA
HETATM   13  N   UNL     1       5.943  10.947  20.834  0.00  0.00    -0.318 N 
HETATM   14  C   UNL     1       4.869  10.209  21.500  0.00  0.00     0.159 C 
BRANCH  13  15
HETATM   15  C   UNL     1       6.694  11.855  21.675  0.00  0.00     0.037 A 
HETATM   16  C   UNL     1       6.409  13.221  21.694  0.00  0.00     0.032 A 
HETATM   17  C   UNL     1       7.151  14.113  22.484  0.00  0.00     0.031 A 
HETATM   18  C   UNL     1       8.222  13.695  23.284  0.00  0.00     0.030 A 
HETATM   19  C   UNL     1       8.456  12.314  23.310  0.00  0.00     0.031 A 
HETATM   20  C   UNL     1       7.705  11.408  22.531  0.00  0.00     0.032 A 
BRANCH  18  21
HETATM   21  N   UNL     1       9.027  14.594  23.950  0.00  0.00    -0.377 N 
HETATM   22  C   UNL     1       8.864  14.948  25.369  0.00  0.00     0.149 C 
HETATM   23  C   UNL     1      10.241  14.978  26.055  0.00  0.00     0.187 C 
HETATM   24  O   UNL     1      11.155  15.860  25.380  0.00  0.00    -0.388 OA
HETATM   25  C   UNL     1      11.330  15.441  24.016  0.00  0.00     0.187 C 
HETATM   26  C   UNL     1      10.000  15.448  23.246  0.00  0.00     0.149 C 
ENDBRANCH  18  21
ENDBRANCH  13  15
ENDBRANCH   8  11
BRANCH   9  27
HETATM   27  O   UNL     1       4.171  11.964  17.574  0.00  0.00    -0.360 OA
HETATM   28  H   UNL     1       3.897  12.179  18.485  0.00  0.00     0.217 HD
ENDBRANCH   9  27
BRANCH   1  29
HETATM   29  C   UNL     1       5.206   5.299  18.181  0.00  0.00     0.036 C 
HETATM   30  C   UNL     1       4.840   5.327  19.679  0.00  0.00     0.016 C 
BRANCH  29  31
HETATM   31  C   UNL     1       4.795   3.934  17.595  0.00  0.00     0.006 C 
HETATM   32  C   UNL     1       3.765   3.184  18.429  0.00  0.00     0.006 C 
ENDBRANCH  29  31
ENDBRANCH   1  29
TORSDOF 6
ENDMDL
MODEL 5
REMARK VINA RESULT:    -7.720      3.069      4.884
REMARK INTER + INTRA:         -10.556
REMARK INTER:                  -9.810
REMARK INTRA:                  -0.746
REMARK UNBOUND:                -0.353
REMARK  6 active torsions:
REMARK  status: ('A' for Active; 'I' for Inactive)
REMARK    1  A    between atoms: C_2  and  C_3 
REMARK    2  A    between atoms: C_3  and  C_5 
REMARK    3  A    between atoms: C_12  and  C_16 
REMARK    4  A    between atoms: C_13  and  O_15 
REMARK       I    between atoms: C_16  and  N_18 
REMARK    5  A    between atoms: N_18  and  C_20 
REMARK    6  A    between atoms: C_23  and  N_26 
ROOT
HETATM    1  C   UNL     1       9.772  15.016  24.392  0.00  0.00     0.071 A 
HETATM    2  N   UNL     1       9.777  15.473  25.656  0.00  0.00    -0.178 NA
HETATM    3  N   UNL     1       8.801  14.779  26.256  0.00  0.00    -0.277 N 
HETATM    4  H   UNL     1       8.606  14.979  27.229  0.00  0.00     0.189 HD
HETATM    5  C   UNL     1       8.800  13.981  24.216  0.00  0.00     0.020 A 
HETATM    6  C   UNL     1       8.172  13.874  25.446  0.00  0.00     0.065 A 
HETATM    7  C   UNL     1       8.383  13.121  23.177  0.00  0.00     0.035 C 
HETATM    8  C   UNL     1       7.328  12.195  23.380  0.00  0.00     0.066 C 
HETATM    9  C   UNL     1       6.652  12.227  24.604  0.00  0.00     0.083 C 
HETATM   10  C   UNL     1       7.099  13.010  25.679  0.00  0.00     0.069 C 
ENDROOT
BRANCH   8  11
HETATM   11  C   UNL     1       6.988  11.347  22.192  0.00  0.00     0.260 C 
HETATM   12  O   UNL     1       7.836  10.482  21.943  0.00  0.00    -0.267 OA
HETATM   13  N   UNL     1       5.801  11.500  21.434  0.00  0.00    -0.318 N 
HETATM   14  C   UNL     1       4.865  12.619  21.557  0.00  0.00     0.159 C 
BRANCH  13  15
HETATM   15  C   UNL     1       5.456  10.501  20.444  0.00  0.00     0.037 A 
HETATM   16  C   UNL     1       5.559  10.774  19.080  0.00  0.00     0.032 A 
HETATM   17  C   UNL     1       5.198   9.822  18.113  0.00  0.00     0.031 A 
HETATM   18  C   UNL     1       4.705   8.557  18.453  0.00  0.00     0.030 A 
HETATM   19  C   UNL     1       4.670   8.268  19.824  0.00  0.00     0.031 A 
HETATM   20  C   UNL     1       5.045   9.213  20.802  0.00  0.00     0.032 A 
BRANCH  18  21
HETATM   21  N   UNL     1       4.230   7.681  17.501  0.00  0.00    -0.377 N 
HETATM   22  C   UNL     1       4.555   6.246  17.469  0.00  0.00     0.149 C 
HETATM   23  C   UNL     1       3.280   5.435  17.180  0.00  0.00     0.187 C 
HETATM   24  O   UNL     1       2.634   5.869  15.970  0.00  0.00    -0.388 OA
HETATM   25  C   UNL     1       2.280   7.258  16.070  0.00  0.00     0.187 C 
HETATM   26  C   UNL     1       3.517   8.143  16.296  0.00  0.00     0.149 C 
ENDBRANCH  18  21
ENDBRANCH  13  15
ENDBRANCH   8  11
BRANCH   9  27
HETATM   27  O   UNL     1       5.468  11.581  24.835  0.00  0.00    -0.360 OA
HETATM   28  H   UNL     1       5.238  11.727  25.771  0.00  0.00     0.217 HD
ENDBRANCH   9  27
BRANCH   1  29
HETATM   29  C   UNL     1      10.739  15.573  23.372  0.00  0.00     0.036 C 
HETATM   30  C   UNL     1      12.023  14.726  23.256  0.00  0.00     0.016 C 
BRANCH  29  31
HETATM   31  C   UNL     1      10.106  15.708  21.973  0.00  0.00     0.006 C 
HETATM   32  C   UNL     1       9.745  17.137  21.589  0.00  0.00     0.006 C 
ENDBRANCH  29  31
ENDBRANCH   1  29
TORSDOF 6
ENDMDL
MODEL 6
REMARK VINA RESULT:    -7.602      4.512     10.505
REMARK INTER + INTRA:         -10.399
REMARK INTER:                  -9.556
REMARK INTRA:                  -0.843
REMARK UNBOUND:                -0.353
REMARK  6 active torsions:
REMARK  status: ('A' for Active; 'I' for Inactive)
REMARK    1  A    between atoms: C_2  and  C_3 
REMARK    2  A    between atoms: C_3  and  C_5 
REMARK    3  A    between atoms: C_12  and  C_16 
REMARK    4  A    between atoms: C_13  and  O_15 
REMARK       I    between atoms: C_16  and  N_18 
REMARK    5  A    between atoms: N_18  and  C_20 
REMARK    6  A    between atoms: C_23  and  N_26 
ROOT
HETATM    1  C   UNL     1       4.555   8.580  18.726  0.00  0.00     0.071 A 
HETATM    2  N   UNL     1       3.543   7.721  18.518  0.00  0.00    -0.178 NA
HETATM    3  N   UNL     1       3.548   6.943  19.609  0.00  0.00    -0.277 N 
HETATM    4  H   UNL     1       2.869   6.194  19.660  0.00  0.00     0.189 HD
HETATM    5  C   UNL     1       5.174   8.359  19.997  0.00  0.00     0.020 A 
HETATM    6  C   UNL     1       4.505   7.268  20.530  0.00  0.00     0.065 A 
HETATM    7  C   UNL     1       6.204   8.948  20.761  0.00  0.00     0.035 C 
HETATM    8  C   UNL     1       6.564   8.417  22.027  0.00  0.00     0.066 C 
HETATM    9  C   UNL     1       5.937   7.240  22.447  0.00  0.00     0.083 C 
HETATM   10  C   UNL     1       4.854   6.684  21.749  0.00  0.00     0.069 C 
ENDROOT
BRANCH   8  11
HETATM   11  C   UNL     1       7.675   9.140  22.727  0.00  0.00     0.260 C 
HETATM   12  O   UNL     1       8.643   8.420  22.994  0.00  0.00    -0.267 OA
HETATM   13  N   UNL     1       7.636  10.522  23.037  0.00  0.00    -0.318 N 
HETATM   14  C   UNL     1       6.451  11.374  22.925  0.00  0.00     0.159 C 
BRANCH  13  15
HETATM   15  C   UNL     1       8.836  11.177  23.515  0.00  0.00     0.037 A 
HETATM   16  C   UNL     1       9.015  11.449  24.872  0.00  0.00     0.032 A 
HETATM   17  C   UNL     1      10.162  12.110  25.341  0.00  0.00     0.031 A 
HETATM   18  C   UNL     1      11.179  12.546  24.483  0.00  0.00     0.030 A 
HETATM   19  C   UNL     1      11.021  12.209  23.133  0.00  0.00     0.031 A 
HETATM   20  C   UNL     1       9.880  11.531  22.654  0.00  0.00     0.032 A 
BRANCH  18  21
HETATM   21  N   UNL     1      12.234  13.310  24.935  0.00  0.00    -0.377 N 
HETATM   22  C   UNL     1      12.915  14.332  24.125  0.00  0.00     0.149 C 
HETATM   23  C   UNL     1      13.147  15.594  24.975  0.00  0.00     0.187 C 
HETATM   24  O   UNL     1      13.866  15.298  26.185  0.00  0.00    -0.388 OA
HETATM   25  C   UNL     1      13.136  14.342  26.972  0.00  0.00     0.187 C 
HETATM   26  C   UNL     1      12.920  13.025  26.209  0.00  0.00     0.149 C 
ENDBRANCH  18  21
ENDBRANCH  13  15
ENDBRANCH   8  11
BRANCH   9  27
HETATM   27  O   UNL     1       6.366   6.489  23.508  0.00  0.00    -0.360 OA
HETATM   28  H   UNL     1       6.263   7.035  24.309  0.00  0.00     0.217 HD
ENDBRANCH   9  27
BRANCH   1  29
HETATM   29  C   UNL     1       4.892   9.632  17.693  0.00  0.00     0.036 C 
HETATM   30  C   UNL     1       4.137   9.414  16.366  0.00  0.00     0.016 C 
BRANCH  29  31
HETATM   31  C   UNL     1       4.610  11.062  18.195  0.00  0.00     0.006 C 
HETATM   32  C   UNL     1       3.486  11.771  17.452  0.00  0.00     0.006 C 
ENDBRANCH  29  31
ENDBRANCH   1  29
TORSDOF 6
ENDMDL
MODEL 7
REMARK VINA RESULT:    -7.520      1.767      3.697
REMARK INTER + INTRA:         -10.290
REMARK INTER:                  -9.937
REMARK INTRA:                  -0.353
REMARK UNBOUND:                -0.353
REMARK  6 active torsions:
REMARK  status: ('A' for Active; 'I' for Inactive)
REMARK    1  A    between atoms: C_2  and  C_3 
REMARK    2  A    between atoms: C_3  and  C_5 
REMARK    3  A    between atoms: C_12  and  C_16 
REMARK    4  A    between atoms: C_13  and  O_15 
REMARK       I    between atoms: C_16  and  N_18 
REMARK    5  A    between atoms: N_18  and  C_20 
REMARK    6  A    between atoms: C_23  and  N_26 
ROOT
HETATM    1  C   UNL     1       7.767  14.779  22.119  0.00  0.00     0.071 A 
HETATM    2  N   UNL     1       7.375  15.707  23.008  0.00  0.00    -0.178 NA
HETATM    3  N   UNL     1       6.103  15.385  23.274  0.00  0.00    -0.277 N 
HETATM    4  H   UNL     1       5.589  15.975  23.916  0.00  0.00     0.189 HD
HETATM    5  C   UNL     1       6.727  13.831  21.862  0.00  0.00     0.020 A 
HETATM    6  C   UNL     1       5.651  14.275  22.615  0.00  0.00     0.065 A 
HETATM    7  C   UNL     1       6.566  12.655  21.098  0.00  0.00     0.035 C 
HETATM    8  C   UNL     1       5.326  11.965  21.078  0.00  0.00     0.066 C 
HETATM    9  C   UNL     1       4.246  12.537  21.757  0.00  0.00     0.083 C 
HETATM   10  C   UNL     1       4.399  13.656  22.591  0.00  0.00     0.069 C 
ENDROOT
BRANCH   8  11
HETATM   11  C   UNL     1       5.296  10.734  20.224  0.00  0.00     0.260 C 
HETATM   12  O   UNL     1       5.894   9.773  20.722  0.00  0.00    -0.267 OA
HETATM   13  N   UNL     1       4.630  10.663  18.976  0.00  0.00    -0.318 N 
HETATM   14  C   UNL     1       4.080  11.810  18.252  0.00  0.00     0.159 C 
BRANCH  13  15
HETATM   15  C   UNL     1       4.471   9.378  18.328  0.00  0.00     0.037 A 
HETATM   16  C   UNL     1       4.503   9.264  16.937  0.00  0.00     0.032 A 
HETATM   17  C   UNL     1       4.319   8.028  16.299  0.00  0.00     0.031 A 
HETATM   18  C   UNL     1       4.082   6.845  17.010  0.00  0.00     0.030 A 
HETATM   19  C   UNL     1       4.119   6.958  18.406  0.00  0.00     0.031 A 
HETATM   20  C   UNL     1       4.318   8.194  19.056  0.00  0.00     0.032 A 
BRANCH  18  21
HETATM   21  N   UNL     1       3.771   5.663  16.372  0.00  0.00    -0.377 N 
HETATM   22  C   UNL     1       3.964   4.331  16.969  0.00  0.00     0.149 C 
HETATM   23  C   UNL     1       2.728   3.458  16.693  0.00  0.00     0.187 C 
HETATM   24  O   UNL     1       2.432   3.381  15.287  0.00  0.00    -0.388 OA
HETATM   25  C   UNL     1       2.191   4.697  14.760  0.00  0.00     0.187 C 
HETATM   26  C   UNL     1       3.412   5.612  14.943  0.00  0.00     0.149 C 
ENDBRANCH  18  21
ENDBRANCH  13  15
ENDBRANCH   8  11
BRANCH   9  27
HETATM   27  O   UNL     1       2.950  12.123  21.608  0.00  0.00    -0.360 OA
HETATM   28  H   UNL     1       2.857  11.285  22.098  0.00  0.00     0.217 HD
ENDBRANCH   9  27
BRANCH   1  29
HETATM   29  C   UNL     1       9.168  14.807  21.548  0.00  0.00     0.036 C 
HETATM   30  C   UNL     1       9.837  16.188  21.703  0.00  0.00     0.016 C 
BRANCH  29  31
HETATM   31  C   UNL     1      10.082  13.739  22.180  0.00  0.00     0.006 C 
HETATM   32  C   UNL     1      11.422  14.276  22.665  0.00  0.00     0.006 C 
ENDBRANCH  29  31
ENDBRANCH   1  29
TORSDOF 6
ENDMDL
MODEL 8
REMARK VINA RESULT:    -7.487      6.130      8.010
REMARK INTER + INTRA:         -10.248
REMARK INTER:                  -9.277
REMARK INTRA:                  -0.971
REMARK UNBOUND:                -0.353
REMARK  6 active torsions:
REMARK  status: ('A' for Active; 'I' for Inactive)
REMARK    1  A    between atoms: C_2  and  C_3 
REMARK    2  A    between atoms: C_3  and  C_5 
REMARK    3  A    between atoms: C_12  and  C_16 
REMARK    4  A    between atoms: C_13  and  O_15 
REMARK       I    between atoms: C_16  and  N_18 
REMARK    5  A    between atoms: N_18  and  C_20 
REMARK    6  A    between atoms: C_23  and  N_26 
ROOT
HETATM    1  C   UNL     1      10.195  14.387  22.359  0.00  0.00     0.071 A 
HETATM    2  N   UNL     1      10.497  15.634  21.959  0.00  0.00    -0.178 NA
HETATM    3  N   UNL     1       9.338  16.297  22.063  0.00  0.00    -0.277 N 
HETATM    4  H   UNL     1       9.323  17.271  21.785  0.00  0.00     0.189 HD
HETATM    5  C   UNL     1       8.827  14.286  22.764  0.00  0.00     0.020 A 
HETATM    6  C   UNL     1       8.297  15.545  22.532  0.00  0.00     0.065 A 
HETATM    7  C   UNL     1       7.979  13.294  23.303  0.00  0.00     0.035 C 
HETATM    8  C   UNL     1       6.613  13.573  23.569  0.00  0.00     0.066 C 
HETATM    9  C   UNL     1       6.113  14.823  23.193  0.00  0.00     0.083 C 
HETATM   10  C   UNL     1       6.949  15.852  22.735  0.00  0.00     0.069 C 
ENDROOT
BRANCH   8  11
HETATM   11  C   UNL     1       5.830  12.428  24.138  0.00  0.00     0.260 C 
HETATM   12  O   UNL     1       5.740  12.455  25.371  0.00  0.00    -0.267 OA
HETATM   13  N   UNL     1       5.228  11.421  23.345  0.00  0.00    -0.318 N 
HETATM   14  C   UNL     1       5.463  11.228  21.913  0.00  0.00     0.159 C 
BRANCH  13  15
HETATM   15  C   UNL     1       4.314  10.482  23.961  0.00  0.00     0.037 A 
HETATM   16  C   UNL     1       2.934  10.688  23.918  0.00  0.00     0.032 A 
HETATM   17  C   UNL     1       2.042   9.800  24.539  0.00  0.00     0.031 A 
HETATM   18  C   UNL     1       2.476   8.671  25.244  0.00  0.00     0.030 A 
HETATM   19  C   UNL     1       3.857   8.437  25.224  0.00  0.00     0.031 A 
HETATM   20  C   UNL     1       4.761   9.316  24.590  0.00  0.00     0.032 A 
BRANCH  18  21
HETATM   21  N   UNL     1       1.603   7.880  25.961  0.00  0.00    -0.377 N 
HETATM   22  C   UNL     1       1.717   7.632  27.407  0.00  0.00     0.149 C 
HETATM   23  C   UNL     1       0.328   7.743  28.061  0.00  0.00     0.187 C 
HETATM   24  O   UNL     1      -0.627   6.867  27.437  0.00  0.00    -0.388 OA
HETATM   25  C   UNL     1      -0.751   7.185  26.040  0.00  0.00     0.187 C 
HETATM   26  C   UNL     1       0.590   7.034  25.304  0.00  0.00     0.149 C 
ENDBRANCH  18  21
ENDBRANCH  13  15
ENDBRANCH   8  11
BRANCH   9  27
HETATM   27  O   UNL     1       4.779  15.125  23.153  0.00  0.00    -0.360 OA
HETATM   28  H   UNL     1       4.293  14.324  23.423  0.00  0.00     0.217 HD
ENDBRANCH   9  27
BRANCH   1  29
HETATM   29  C   UNL     1      11.256  13.308  22.372  0.00  0.00     0.036 C 
HETATM   30  C   UNL     1      11.454  12.697  23.774  0.00  0.00     0.016 C 
BRANCH  29  31
HETATM   31  C   UNL     1      10.952  12.173  21.374  0.00  0.00     0.006 C 
HETATM   32  C   UNL     1      11.105  10.775  21.957  0.00  0.00     0.006 C 
ENDBRANCH  29  31
ENDBRANCH   1  29
TORSDOF 6
ENDMDL
MODEL 9
REMARK VINA RESULT:    -7.390      5.949      8.151
REMARK INTER + INTRA:         -10.119
REMARK INTER:                  -9.066
REMARK INTRA:                  -1.053
REMARK UNBOUND:                -0.353
REMARK  6 active torsions:
REMARK  status: ('A' for Active; 'I' for Inactive)
REMARK    1  A    between atoms: C_2  and  C_3 
REMARK    2  A    between atoms: C_3  and  C_5 
REMARK    3  A    between atoms: C_12  and  C_16 
REMARK    4  A    between atoms: C_13  and  O_15 
REMARK       I    between atoms: C_16  and  N_18 
REMARK    5  A    between atoms: N_18  and  C_20 
REMARK    6  A    between atoms: C_23  and  N_26 
ROOT
HETATM    1  C   UNL     1      11.757  14.738  25.141  0.00  0.00     0.071 A 
HETATM    2  N   UNL     1      12.801  15.327  24.535  0.00  0.00    -0.178 NA
HETATM    3  N   UNL     1      12.872  14.716  23.345  0.00  0.00    -0.277 N 
HETATM    4  H   UNL     1      13.616  14.991  22.715  0.00  0.00     0.189 HD
HETATM    5  C   UNL     1      11.138  13.769  24.290  0.00  0.00     0.020 A 
HETATM    6  C   UNL     1      11.909  13.768  23.138  0.00  0.00     0.065 A 
HETATM    7  C   UNL     1      10.022  12.906  24.346  0.00  0.00     0.035 C 
HETATM    8  C   UNL     1       9.719  12.039  23.265  0.00  0.00     0.066 C 
HETATM    9  C   UNL     1      10.610  11.995  22.189  0.00  0.00     0.083 C 
HETATM   10  C   UNL     1      11.676  12.900  22.069  0.00  0.00     0.069 C 
ENDROOT
BRANCH   8  11
HETATM   11  C   UNL     1       8.508  11.177  23.461  0.00  0.00     0.260 C 
HETATM   12  O   UNL     1       8.715  10.188  24.173  0.00  0.00    -0.267 OA
HETATM   13  N   UNL     1       7.239  11.473  22.906  0.00  0.00    -0.318 N 
HETATM   14  C   UNL     1       6.981  12.510  21.905  0.00  0.00     0.159 C 
BRANCH  13  15
HETATM   15  C   UNL     1       6.084  10.707  23.325  0.00  0.00     0.037 A 
HETATM   16  C   UNL     1       5.367  11.055  24.471  0.00  0.00     0.032 A 
HETATM   17  C   UNL     1       4.264  10.301  24.902  0.00  0.00     0.031 A 
HETATM   18  C   UNL     1       3.827   9.156  24.224  0.00  0.00     0.030 A 
HETATM   19  C   UNL     1       4.511   8.855  23.039  0.00  0.00     0.031 A 
HETATM   20  C   UNL     1       5.611   9.616  22.590  0.00  0.00     0.032 A 
BRANCH  18  21
HETATM   21  N   UNL     1       2.830   8.349  24.728  0.00  0.00    -0.377 N 
HETATM   22  C   UNL     1       2.972   6.899  24.934  0.00  0.00     0.149 C 
HETATM   23  C   UNL     1       2.378   6.512  26.300  0.00  0.00     0.187 C 
HETATM   24  O   UNL     1       1.012   6.943  26.429  0.00  0.00    -0.388 OA
HETATM   25  C   UNL     1       0.928   8.371  26.281  0.00  0.00     0.187 C 
HETATM   26  C   UNL     1       1.447   8.829  24.909  0.00  0.00     0.149 C 
ENDBRANCH  18  21
ENDBRANCH  13  15
ENDBRANCH   8  11
BRANCH   9  27
HETATM   27  O   UNL     1      10.580  11.033  21.217  0.00  0.00    -0.360 OA
HETATM   28  H   UNL     1       9.959  11.336  20.529  0.00  0.00     0.217 HD
ENDBRANCH   9  27
BRANCH   1  29
HETATM   29  C   UNL     1      11.353  15.146  26.540  0.00  0.00     0.036 C 
HETATM   30  C   UNL     1       9.868  15.555  26.626  0.00  0.00     0.016 C 
BRANCH  29  31
HETATM   31  C   UNL     1      11.623  14.039  27.578  0.00  0.00     0.006 C 
HETATM   32  C   UNL     1      13.032  13.463  27.521  0.00  0.00     0.006 C 
ENDBRANCH  29  31
ENDBRANCH   1  29
TORSDOF 6
ENDMDL
