REMARK  6 active torsions:
REMARK  status: ('A' for Active; 'I' for Inactive)
REMARK    1  A    between atoms: C_2  and  C_3 
REMARK    2  A    between atoms: C_3  and  C_5 
REMARK    3  A    between atoms: C_12  and  C_16 
REMARK    4  A    between atoms: C_13  and  O_15 
REMARK       I    between atoms: C_16  and  N_18 
REMARK    5  A    between atoms: N_18  and  C_20 
REMARK    6  A    between atoms: C_23  and  N_26 
ROOT
HETATM    1  C   UNL     1       4.758   0.951  -1.893  0.00  0.00     0.071 A 
HETATM    2  N   UNL     1       5.463   2.093  -1.832  0.00  0.00    -0.178 NA
HETATM    3  N   UNL     1       6.641   1.720  -1.315  0.00  0.00    -0.277 N 
HETATM    4  H   UNL     1       7.337   2.438  -1.155  0.00  0.00     0.189 HD
HETATM    5  C   UNL     1       5.533  -0.165  -1.445  0.00  0.00     0.020 A 
HETATM    6  C   UNL     1       6.745   0.382  -1.054  0.00  0.00     0.065 A 
HETATM    7  C   UNL     1       5.364  -1.562  -1.332  0.00  0.00     0.035 C 
HETATM    8  C   UNL     1       6.397  -2.378  -0.802  0.00  0.00     0.066 C 
HETATM    9  C   UNL     1       7.543  -1.748  -0.308  0.00  0.00     0.083 C 
HETATM   10  C   UNL     1       7.772  -0.375  -0.485  0.00  0.00     0.069 C 
ENDROOT
BRANCH   8  11
HETATM   11  C   UNL     1       6.081  -3.842  -0.738  0.00  0.00     0.260 C 
HETATM   12  O   UNL     1       4.914  -4.082  -0.409  0.00  0.00    -0.267 OA
HETATM   13  N   UNL     1       7.018  -4.859  -1.046  0.00  0.00    -0.318 N 
HETATM   14  C   UNL     1       8.452  -4.646  -1.248  0.00  0.00     0.159 C 
BRANCH  13  15
HETATM   15  C   UNL     1       6.565  -6.229  -1.168  0.00  0.00     0.037 A 
HETATM   16  C   UNL     1       5.316  -6.528  -1.714  0.00  0.00     0.032 A 
HETATM   17  C   UNL     1       4.856  -7.851  -1.809  0.00  0.00     0.031 A 
HETATM   18  C   UNL     1       5.608  -8.941  -1.354  0.00  0.00     0.030 A 
HETATM   19  C   UNL     1       6.887  -8.636  -0.870  0.00  0.00     0.031 A 
HETATM   20  C   UNL     1       7.364  -7.311  -0.785  0.00  0.00     0.032 A 
BRANCH  18  21
HETATM   21  N   UNL     1       5.094 -10.220  -1.329  0.00  0.00    -0.377 N 
HETATM   22  C   UNL     1       5.904 -11.435  -1.512  0.00  0.00     0.149 C 
HETATM   23  C   UNL     1       5.488 -12.493  -0.475  0.00  0.00     0.187 C 
HETATM   24  O   UNL     1       4.078 -12.771  -0.532  0.00  0.00    -0.388 OA
HETATM   25  C   UNL     1       3.327 -11.570  -0.288  0.00  0.00     0.187 C 
HETATM   26  C   UNL     1       3.643 -10.483  -1.328  0.00  0.00     0.149 C 
ENDBRANCH  18  21
ENDBRANCH  13  15
ENDBRANCH   8  11
BRANCH   9  27
HETATM   27  O   UNL     1       8.488  -2.380   0.454  0.00  0.00    -0.360 OA
HETATM   28  H   UNL     1       8.017  -2.995   1.046  0.00  0.00     0.217 HD
ENDBRANCH   9  27
BRANCH   1  29
HETATM   29  C   UNL     1       3.339   0.953  -2.417  0.00  0.00     0.036 C 
HETATM   30  C   UNL     1       2.598   2.268  -2.099  0.00  0.00     0.016 C 
BRANCH  29  31
HETATM   31  C   UNL     1       3.272   0.701  -3.936  0.00  0.00     0.006 C 
HETATM   32  C   UNL     1       3.877  -0.626  -4.374  0.00  0.00     0.006 C 
ENDBRANCH  29  31
ENDBRANCH   1  29
TORSDOF 6
