MODEL 1
REMARK VINA RESULT:   -10.122      0.000      0.000
REMARK INTER + INTRA:         -14.972
REMARK INTER:                 -13.730
REMARK INTRA:                  -1.242
REMARK UNBOUND:                -2.186
REMARK  5 active torsions:
REMARK  status: ('A' for Active; 'I' for Inactive)
REMARK    1  A    between atoms: C_6  and  C_7 
REMARK    2  A    between atoms: C_7  and  C_8 
REMARK    3  A    between atoms: C_15  and  C_19 
REMARK    4  A    between atoms: C_16  and  O_18 
REMARK    5  A    between atoms: N_23  and  C_24 
ROOT
HETATM    1  C   UNL     1       1.779  12.511  23.165  0.00  0.00     0.071 A 
HETATM    2  N   UNL     1       1.237  13.155  22.115  0.00  0.00    -0.178 NA
HETATM    3  N   UNL     1      -0.083  13.042  22.306  0.00  0.00    -0.277 N 
HETATM    4  H   UNL     1      -0.704  13.439  21.613  0.00  0.00     0.189 HD
HETATM    5  C   UNL     1       0.774  11.963  24.020  0.00  0.00     0.020 A 
HETATM    6  C   UNL     1      -0.427  12.325  23.421  0.00  0.00     0.065 A 
HETATM    7  C   UNL     1       0.733  11.156  25.188  0.00  0.00     0.032 A 
HETATM    8  C   UNL     1      -0.499  10.757  25.757  0.00  0.00     0.027 A 
HETATM    9  C   UNL     1      -1.669  11.156  25.080  0.00  0.00     0.080 A 
HETATM   10  C   UNL     1      -1.669  11.940  23.914  0.00  0.00     0.069 A 
ENDROOT
BRANCH   8  11
HETATM   11  C   UNL     1      -0.551   9.828  26.923  0.00  0.00     0.073 C 
HETATM   12  C   UNL     1      -1.091  10.110  28.179  0.00  0.00     0.053 C 
HETATM   13  C   UNL     1      -1.163   8.906  28.870  0.00  0.00     0.141 C 
HETATM   14  N   UNL     1      -0.690   7.904  28.154  0.00  0.00    -0.179 NA
HETATM   15  N   UNL     1      -0.147   8.477  27.033  0.00  0.00    -0.234 N 
BRANCH  15  16
HETATM   16  C   UNL     1       0.707   7.637  26.245  0.00  0.00     0.059 A 
HETATM   17  C   UNL     1       2.105   7.754  26.424  0.00  0.00     0.031 A 
HETATM   18  C   UNL     1       3.002   6.973  25.692  0.00  0.00     0.002 A 
HETATM   19  C   UNL     1       2.513   6.058  24.769  0.00  0.00     0.000 A 
HETATM   20  C   UNL     1       1.141   5.953  24.556  0.00  0.00     0.002 A 
HETATM   21  C   UNL     1       0.238   6.755  25.272  0.00  0.00     0.031 A 
ENDBRANCH  15  16
ENDBRANCH   8  11
BRANCH   9  22
HETATM   22  O   UNL     1      -2.917  10.750  25.481  0.00  0.00    -0.360 OA
HETATM   23  H   UNL     1      -2.983  11.017  26.415  0.00  0.00     0.217 HD
ENDBRANCH   9  22
BRANCH   1  24
HETATM   24  C   UNL     1       3.254  12.288  23.220  0.00  0.00     0.100 C 
BRANCH  24  25
HETATM   25  C   UNL     1       3.932  13.409  23.978  0.00  0.00    -0.052 A 
HETATM   26  C   UNL     1       3.221  14.542  24.409  0.00  0.00     0.007 A 
HETATM   27  C   UNL     1       3.892  15.660  24.910  0.00  0.00     0.001 A 
HETATM   28  C   UNL     1       5.283  15.660  24.992  0.00  0.00     0.000 A 
HETATM   29  C   UNL     1       6.001  14.532  24.604  0.00  0.00     0.001 A 
HETATM   30  C   UNL     1       5.330  13.412  24.106  0.00  0.00     0.007 A 
ENDBRANCH  24  25
ENDBRANCH   1  24
TORSDOF 5
ENDMDL
MODEL 2
REMARK VINA RESULT:    -9.978      2.837      5.071
REMARK INTER + INTRA:         -14.789
REMARK INTER:                 -13.151
REMARK INTRA:                  -1.637
REMARK UNBOUND:                -2.186
REMARK  5 active torsions:
REMARK  status: ('A' for Active; 'I' for Inactive)
REMARK    1  A    between atoms: C_6  and  C_7 
REMARK    2  A    between atoms: C_7  and  C_8 
REMARK    3  A    between atoms: C_15  and  C_19 
REMARK    4  A    between atoms: C_16  and  O_18 
REMARK    5  A    between atoms: N_23  and  C_24 
ROOT
HETATM    1  C   UNL     1       6.769  12.041  24.615  0.00  0.00     0.071 A 
HETATM    2  N   UNL     1       7.698  11.748  23.687  0.00  0.00    -0.178 NA
HETATM    3  N   UNL     1       7.101  10.846  22.897  0.00  0.00    -0.277 N 
HETATM    4  H   UNL     1       7.631  10.458  22.128  0.00  0.00     0.189 HD
HETATM    5  C   UNL     1       5.570  11.287  24.414  0.00  0.00     0.020 A 
HETATM    6  C   UNL     1       5.832  10.514  23.288  0.00  0.00     0.065 A 
HETATM    7  C   UNL     1       4.328  11.118  25.080  0.00  0.00     0.032 A 
HETATM    8  C   UNL     1       3.355  10.214  24.591  0.00  0.00     0.027 A 
HETATM    9  C   UNL     1       3.705   9.461  23.452  0.00  0.00     0.080 A 
HETATM   10  C   UNL     1       4.930   9.588  22.777  0.00  0.00     0.069 A 
ENDROOT
BRANCH   8  11
HETATM   11  C   UNL     1       2.090   9.957  25.339  0.00  0.00     0.073 C 
HETATM   12  C   UNL     1       1.918   9.038  26.376  0.00  0.00     0.053 C 
HETATM   13  C   UNL     1       0.679   9.301  26.950  0.00  0.00     0.141 C 
HETATM   14  N   UNL     1       0.059  10.293  26.339  0.00  0.00    -0.179 NA
HETATM   15  N   UNL     1       0.828  10.586  25.242  0.00  0.00    -0.234 N 
BRANCH  15  16
HETATM   16  C   UNL     1       0.213  11.414  24.244  0.00  0.00     0.059 A 
HETATM   17  C   UNL     1      -1.195  11.378  24.126  0.00  0.00     0.031 A 
HETATM   18  C   UNL     1      -1.867  12.153  23.177  0.00  0.00     0.002 A 
HETATM   19  C   UNL     1      -1.137  12.979  22.332  0.00  0.00     0.000 A 
HETATM   20  C   UNL     1       0.252  13.002  22.413  0.00  0.00     0.002 A 
HETATM   21  C   UNL     1       0.932  12.204  23.348  0.00  0.00     0.031 A 
ENDBRANCH  15  16
ENDBRANCH   8  11
BRANCH   9  22
HETATM   22  O   UNL     1       2.884   8.485  22.944  0.00  0.00    -0.360 OA
HETATM   23  H   UNL     1       3.293   8.223  22.101  0.00  0.00     0.217 HD
ENDBRANCH   9  22
BRANCH   1  24
HETATM   24  C   UNL     1       7.124  12.908  25.777  0.00  0.00     0.100 C 
BRANCH  24  25
HETATM   25  C   UNL     1       6.181  14.088  25.865  0.00  0.00    -0.052 A 
HETATM   26  C   UNL     1       5.384  14.311  27.001  0.00  0.00     0.007 A 
HETATM   27  C   UNL     1       4.368  15.269  26.985  0.00  0.00     0.001 A 
HETATM   28  C   UNL     1       4.135  16.020  25.835  0.00  0.00     0.000 A 
HETATM   29  C   UNL     1       4.938  15.838  24.713  0.00  0.00     0.001 A 
HETATM   30  C   UNL     1       5.958  14.882  24.729  0.00  0.00     0.007 A 
ENDBRANCH  24  25
ENDBRANCH   1  24
TORSDOF 5
ENDMDL
MODEL 3
REMARK VINA RESULT:    -9.914      3.562      6.012
REMARK INTER + INTRA:         -14.708
REMARK INTER:                 -13.311
REMARK INTRA:                  -1.398
REMARK UNBOUND:                -2.186
REMARK  5 active torsions:
REMARK  status: ('A' for Active; 'I' for Inactive)
REMARK    1  A    between atoms: C_6  and  C_7 
REMARK    2  A    between atoms: C_7  and  C_8 
REMARK    3  A    between atoms: C_15  and  C_19 
REMARK    4  A    between atoms: C_16  and  O_18 
REMARK    5  A    between atoms: N_23  and  C_24 
ROOT
HETATM    1  C   UNL     1       7.328  12.174  25.412  0.00  0.00     0.071 A 
HETATM    2  N   UNL     1       8.618  12.083  25.041  0.00  0.00    -0.178 NA
HETATM    3  N   UNL     1       8.618  11.163  24.068  0.00  0.00    -0.277 N 
HETATM    4  H   UNL     1       9.502  10.910  23.647  0.00  0.00     0.189 HD
HETATM    5  C   UNL     1       6.504  11.272  24.668  0.00  0.00     0.020 A 
HETATM    6  C   UNL     1       7.385  10.626  23.808  0.00  0.00     0.065 A 
HETATM    7  C   UNL     1       5.139  10.881  24.662  0.00  0.00     0.032 A 
HETATM    8  C   UNL     1       4.671   9.883  23.774  0.00  0.00     0.027 A 
HETATM    9  C   UNL     1       5.631   9.270  22.945  0.00  0.00     0.080 A 
HETATM   10  C   UNL     1       6.992   9.619  22.935  0.00  0.00     0.069 A 
ENDROOT
BRANCH   8  11
HETATM   11  C   UNL     1       3.262   9.395  23.830  0.00  0.00     0.073 C 
HETATM   12  C   UNL     1       2.844   8.066  23.724  0.00  0.00     0.053 C 
HETATM   13  C   UNL     1       1.501   8.034  24.081  0.00  0.00     0.141 C 
HETATM   14  N   UNL     1       1.045   9.236  24.377  0.00  0.00    -0.179 NA
HETATM   15  N   UNL     1       2.059  10.103  24.055  0.00  0.00    -0.234 N 
BRANCH  15  16
HETATM   16  C   UNL     1       1.705  11.491  23.988  0.00  0.00     0.059 A 
HETATM   17  C   UNL     1       0.424  11.874  24.451  0.00  0.00     0.031 A 
HETATM   18  C   UNL     1       0.005  13.206  24.416  0.00  0.00     0.002 A 
HETATM   19  C   UNL     1       0.863  14.178  23.919  0.00  0.00     0.000 A 
HETATM   20  C   UNL     1       2.115  13.814  23.429  0.00  0.00     0.002 A 
HETATM   21  C   UNL     1       2.529  12.472  23.439  0.00  0.00     0.031 A 
ENDBRANCH  15  16
ENDBRANCH   8  11
BRANCH   9  22
HETATM   22  O   UNL     1       5.315   8.225  22.113  0.00  0.00    -0.360 OA
HETATM   23  H   UNL     1       4.589   7.755  22.561  0.00  0.00     0.217 HD
ENDBRANCH   9  22
BRANCH   1  24
HETATM   24  C   UNL     1       6.950  12.998  26.597  0.00  0.00     0.100 C 
BRANCH  24  25
HETATM   25  C   UNL     1       6.060  14.149  26.180  0.00  0.00    -0.052 A 
HETATM   26  C   UNL     1       4.905  14.488  26.905  0.00  0.00     0.007 A 
HETATM   27  C   UNL     1       3.982  15.403  26.393  0.00  0.00     0.001 A 
HETATM   28  C   UNL     1       4.201  15.994  25.150  0.00  0.00     0.000 A 
HETATM   29  C   UNL     1       5.357  15.697  24.435  0.00  0.00     0.001 A 
HETATM   30  C   UNL     1       6.284  14.785  24.948  0.00  0.00     0.007 A 
ENDBRANCH  24  25
ENDBRANCH   1  24
TORSDOF 5
ENDMDL
MODEL 4
REMARK VINA RESULT:    -9.783      3.316      5.663
REMARK INTER + INTRA:         -14.543
REMARK INTER:                 -12.561
REMARK INTRA:                  -1.981
REMARK UNBOUND:                -2.186
REMARK  5 active torsions:
REMARK  status: ('A' for Active; 'I' for Inactive)
REMARK    1  A    between atoms: C_6  and  C_7 
REMARK    2  A    between atoms: C_7  and  C_8 
REMARK    3  A    between atoms: C_15  and  C_19 
REMARK    4  A    between atoms: C_16  and  O_18 
REMARK    5  A    between atoms: N_23  and  C_24 
ROOT
HETATM    1  C   UNL     1       7.491  12.222  25.261  0.00  0.00     0.071 A 
HETATM    2  N   UNL     1       8.619  11.870  24.618  0.00  0.00    -0.178 NA
HETATM    3  N   UNL     1       8.248  10.843  23.842  0.00  0.00    -0.277 N 
HETATM    4  H   UNL     1       8.953  10.392  23.274  0.00  0.00     0.189 HD
HETATM    5  C   UNL     1       6.394  11.381  24.896  0.00  0.00     0.020 A 
HETATM    6  C   UNL     1       6.932  10.490  23.974  0.00  0.00     0.065 A 
HETATM    7  C   UNL     1       5.035  11.227  25.277  0.00  0.00     0.032 A 
HETATM    8  C   UNL     1       4.228  10.214  24.707  0.00  0.00     0.027 A 
HETATM    9  C   UNL     1       4.854   9.345  23.790  0.00  0.00     0.080 A 
HETATM   10  C   UNL     1       6.200   9.457  23.401  0.00  0.00     0.069 A 
ENDROOT
BRANCH   8  11
HETATM   11  C   UNL     1       2.831   9.980  25.174  0.00  0.00     0.073 C 
HETATM   12  C   UNL     1       2.372   8.864  25.877  0.00  0.00     0.053 C 
HETATM   13  C   UNL     1       1.093   9.167  26.329  0.00  0.00     0.141 C 
HETATM   14  N   UNL     1       0.712  10.370  25.944  0.00  0.00    -0.179 NA
HETATM   15  N   UNL     1       1.689  10.809  25.088  0.00  0.00    -0.234 N 
BRANCH  15  16
HETATM   16  C   UNL     1       1.361  11.956  24.290  0.00  0.00     0.059 A 
HETATM   17  C   UNL     1       2.069  13.156  24.530  0.00  0.00     0.031 A 
HETATM   18  C   UNL     1       1.805  14.316  23.797  0.00  0.00     0.002 A 
HETATM   19  C   UNL     1       0.829  14.291  22.810  0.00  0.00     0.000 A 
HETATM   20  C   UNL     1       0.100  13.127  22.583  0.00  0.00     0.002 A 
HETATM   21  C   UNL     1       0.345  11.967  23.336  0.00  0.00     0.031 A 
ENDBRANCH  15  16
ENDBRANCH   8  11
BRANCH   9  22
HETATM   22  O   UNL     1       4.202   8.268  23.245  0.00  0.00    -0.360 OA
HETATM   23  H   UNL     1       3.627   7.932  23.956  0.00  0.00     0.217 HD
ENDBRANCH   9  22
BRANCH   1  24
HETATM   24  C   UNL     1       7.542  13.248  26.345  0.00  0.00     0.100 C 
BRANCH  24  25
HETATM   25  C   UNL     1       6.501  14.320  26.109  0.00  0.00    -0.052 A 
HETATM   26  C   UNL     1       5.540  14.642  27.083  0.00  0.00     0.007 A 
HETATM   27  C   UNL     1       4.459  15.471  26.775  0.00  0.00     0.001 A 
HETATM   28  C   UNL     1       4.325  15.995  25.490  0.00  0.00     0.000 A 
HETATM   29  C   UNL     1       5.287  15.716  24.524  0.00  0.00     0.001 A 
HETATM   30  C   UNL     1       6.371  14.889  24.831  0.00  0.00     0.007 A 
ENDBRANCH  24  25
ENDBRANCH   1  24
TORSDOF 5
ENDMDL
MODEL 5
REMARK VINA RESULT:    -9.302      3.030      6.982
REMARK INTER + INTRA:         -13.935
REMARK INTER:                 -13.074
REMARK INTRA:                  -0.861
REMARK UNBOUND:                -2.186
REMARK  5 active torsions:
REMARK  status: ('A' for Active; 'I' for Inactive)
REMARK    1  A    between atoms: C_6  and  C_7 
REMARK    2  A    between atoms: C_7  and  C_8 
REMARK    3  A    between atoms: C_15  and  C_19 
REMARK    4  A    between atoms: C_16  and  O_18 
REMARK    5  A    between atoms: N_23  and  C_24 
ROOT
HETATM    1  C   UNL     1       0.768  10.430  25.028  0.00  0.00     0.071 A 
HETATM    2  N   UNL     1      -0.042   9.382  24.793  0.00  0.00    -0.178 NA
HETATM    3  N   UNL     1       0.794   8.385  24.479  0.00  0.00    -0.277 N 
HETATM    4  H   UNL     1       0.398   7.486  24.236  0.00  0.00     0.189 HD
HETATM    5  C   UNL     1       2.142  10.086  24.834  0.00  0.00     0.020 A 
HETATM    6  C   UNL     1       2.115   8.745  24.469  0.00  0.00     0.065 A 
HETATM    7  C   UNL     1       3.393  10.757  24.861  0.00  0.00     0.032 A 
HETATM    8  C   UNL     1       4.595  10.073  24.562  0.00  0.00     0.027 A 
HETATM    9  C   UNL     1       4.478   8.718  24.190  0.00  0.00     0.080 A 
HETATM   10  C   UNL     1       3.257   8.026  24.135  0.00  0.00     0.069 A 
ENDROOT
BRANCH   8  11
HETATM   11  C   UNL     1       5.900  10.793  24.490  0.00  0.00     0.073 C 
HETATM   12  C   UNL     1       7.161  10.203  24.383  0.00  0.00     0.053 C 
HETATM   13  C   UNL     1       8.061  11.222  24.091  0.00  0.00     0.141 C 
HETATM   14  N   UNL     1       7.465  12.398  24.032  0.00  0.00    -0.179 NA
HETATM   15  N   UNL     1       6.177  12.178  24.450  0.00  0.00    -0.234 N 
BRANCH  15  16
HETATM   16  C   UNL     1       5.411  13.347  24.776  0.00  0.00     0.059 A 
HETATM   17  C   UNL     1       5.795  14.099  25.910  0.00  0.00     0.031 A 
HETATM   18  C   UNL     1       5.098  15.247  26.293  0.00  0.00     0.002 A 
HETATM   19  C   UNL     1       4.005  15.663  25.544  0.00  0.00     0.000 A 
HETATM   20  C   UNL     1       3.594  14.915  24.444  0.00  0.00     0.002 A 
HETATM   21  C   UNL     1       4.277  13.747  24.071  0.00  0.00     0.031 A 
ENDBRANCH  15  16
ENDBRANCH   8  11
BRANCH   9  22
HETATM   22  O   UNL     1       5.560   7.978  23.785  0.00  0.00    -0.360 OA
HETATM   23  H   UNL     1       6.187   8.017  24.530  0.00  0.00     0.217 HD
ENDBRANCH   9  22
BRANCH   1  24
HETATM   24  C   UNL     1       0.185  11.785  25.260  0.00  0.00     0.100 C 
BRANCH  24  25
HETATM   25  C   UNL     1      -0.281  12.392  23.955  0.00  0.00    -0.052 A 
HETATM   26  C   UNL     1      -1.604  12.246  23.504  0.00  0.00     0.007 A 
HETATM   27  C   UNL     1      -1.963  12.620  22.207  0.00  0.00     0.001 A 
HETATM   28  C   UNL     1      -1.006  13.149  21.343  0.00  0.00     0.000 A 
HETATM   29  C   UNL     1       0.301  13.334  21.784  0.00  0.00     0.001 A 
HETATM   30  C   UNL     1       0.661  12.963  23.083  0.00  0.00     0.007 A 
ENDBRANCH  24  25
ENDBRANCH   1  24
TORSDOF 5
ENDMDL
MODEL 6
REMARK VINA RESULT:    -9.267      3.054      5.201
REMARK INTER + INTRA:         -13.892
REMARK INTER:                 -13.014
REMARK INTRA:                  -0.878
REMARK UNBOUND:                -2.186
REMARK  5 active torsions:
REMARK  status: ('A' for Active; 'I' for Inactive)
REMARK    1  A    between atoms: C_6  and  C_7 
REMARK    2  A    between atoms: C_7  and  C_8 
REMARK    3  A    between atoms: C_15  and  C_19 
REMARK    4  A    between atoms: C_16  and  O_18 
REMARK    5  A    between atoms: N_23  and  C_24 
ROOT
HETATM    1  C   UNL     1       7.547  12.512  25.110  0.00  0.00     0.071 A 
HETATM    2  N   UNL     1       8.625  11.760  24.822  0.00  0.00    -0.178 NA
HETATM    3  N   UNL     1       8.153  10.805  24.011  0.00  0.00    -0.277 N 
HETATM    4  H   UNL     1       8.795  10.096  23.680  0.00  0.00     0.189 HD
HETATM    5  C   UNL     1       6.369  12.002  24.481  0.00  0.00     0.020 A 
HETATM    6  C   UNL     1       6.805  10.884  23.781  0.00  0.00     0.065 A 
HETATM    7  C   UNL     1       4.983  12.312  24.470  0.00  0.00     0.032 A 
HETATM    8  C   UNL     1       4.065  11.526  23.733  0.00  0.00     0.027 A 
HETATM    9  C   UNL     1       4.589  10.403  23.061  0.00  0.00     0.080 A 
HETATM   10  C   UNL     1       5.951  10.056  23.062  0.00  0.00     0.069 A 
ENDROOT
BRANCH   8  11
HETATM   11  C   UNL     1       2.597  11.783  23.796  0.00  0.00     0.073 C 
HETATM   12  C   UNL     1       1.919  12.842  23.189  0.00  0.00     0.053 C 
HETATM   13  C   UNL     1       0.561  12.562  23.286  0.00  0.00     0.141 C 
HETATM   14  N   UNL     1       0.340  11.428  23.924  0.00  0.00    -0.179 NA
HETATM   15  N   UNL     1       1.564  11.031  24.400  0.00  0.00    -0.234 N 
BRANCH  15  16
HETATM   16  C   UNL     1       1.549   9.994  25.391  0.00  0.00     0.059 A 
HETATM   17  C   UNL     1       0.487   9.982  26.325  0.00  0.00     0.031 A 
HETATM   18  C   UNL     1       0.404   9.007  27.322  0.00  0.00     0.002 A 
HETATM   19  C   UNL     1       1.384   8.025  27.398  0.00  0.00     0.000 A 
HETATM   20  C   UNL     1       2.453   8.041  26.507  0.00  0.00     0.002 A 
HETATM   21  C   UNL     1       2.553   9.035  25.520  0.00  0.00     0.031 A 
ENDBRANCH  15  16
ENDBRANCH   8  11
BRANCH   9  22
HETATM   22  O   UNL     1       3.785   9.513  22.393  0.00  0.00    -0.360 OA
HETATM   23  H   UNL     1       3.552   8.837  23.054  0.00  0.00     0.217 HD
ENDBRANCH   9  22
BRANCH   1  24
HETATM   24  C   UNL     1       7.648  13.600  26.127  0.00  0.00     0.100 C 
BRANCH  24  25
HETATM   25  C   UNL     1       6.485  14.559  25.994  0.00  0.00    -0.052 A 
HETATM   26  C   UNL     1       5.482  14.640  26.975  0.00  0.00     0.007 A 
HETATM   27  C   UNL     1       4.310  15.364  26.742  0.00  0.00     0.001 A 
HETATM   28  C   UNL     1       4.125  16.019  25.526  0.00  0.00     0.000 A 
HETATM   29  C   UNL     1       5.123  15.978  24.557  0.00  0.00     0.001 A 
HETATM   30  C   UNL     1       6.298  15.258  24.791  0.00  0.00     0.007 A 
ENDBRANCH  24  25
ENDBRANCH   1  24
TORSDOF 5
ENDMDL
MODEL 7
REMARK VINA RESULT:    -9.244      3.314      7.310
REMARK INTER + INTRA:         -13.863
REMARK INTER:                 -12.711
REMARK INTRA:                  -1.152
REMARK UNBOUND:                -2.186
REMARK  5 active torsions:
REMARK  status: ('A' for Active; 'I' for Inactive)
REMARK    1  A    between atoms: C_6  and  C_7 
REMARK    2  A    between atoms: C_7  and  C_8 
REMARK    3  A    between atoms: C_15  and  C_19 
REMARK    4  A    between atoms: C_16  and  O_18 
REMARK    5  A    between atoms: N_23  and  C_24 
ROOT
HETATM    1  C   UNL     1       1.539   8.847  24.888  0.00  0.00     0.071 A 
HETATM    2  N   UNL     1       0.891   7.927  24.151  0.00  0.00    -0.178 NA
HETATM    3  N   UNL     1       1.795   7.533  23.246  0.00  0.00    -0.277 N 
HETATM    4  H   UNL     1       1.517   6.847  22.556  0.00  0.00     0.189 HD
HETATM    5  C   UNL     1       2.874   9.050  24.418  0.00  0.00     0.020 A 
HETATM    6  C   UNL     1       2.999   8.179  23.342  0.00  0.00     0.065 A 
HETATM    7  C   UNL     1       3.965   9.903  24.731  0.00  0.00     0.032 A 
HETATM    8  C   UNL     1       5.170   9.848  23.992  0.00  0.00     0.027 A 
HETATM    9  C   UNL     1       5.209   8.946  22.909  0.00  0.00     0.080 A 
HETATM   10  C   UNL     1       4.145   8.098  22.559  0.00  0.00     0.069 A 
ENDROOT
BRANCH   8  11
HETATM   11  C   UNL     1       6.283  10.808  24.249  0.00  0.00     0.073 C 
HETATM   12  C   UNL     1       7.614  10.477  24.508  0.00  0.00     0.053 C 
HETATM   13  C   UNL     1       8.347  11.656  24.433  0.00  0.00     0.141 C 
HETATM   14  N   UNL     1       7.576  12.695  24.171  0.00  0.00    -0.179 NA
HETATM   15  N   UNL     1       6.290  12.222  24.234  0.00  0.00    -0.234 N 
BRANCH  15  16
HETATM   16  C   UNL     1       5.255  13.214  24.297  0.00  0.00     0.059 A 
HETATM   17  C   UNL     1       5.596  14.500  24.775  0.00  0.00     0.031 A 
HETATM   18  C   UNL     1       4.644  15.518  24.868  0.00  0.00     0.002 A 
HETATM   19  C   UNL     1       3.334  15.264  24.482  0.00  0.00     0.000 A 
HETATM   20  C   UNL     1       2.975  13.994  24.041  0.00  0.00     0.002 A 
HETATM   21  C   UNL     1       3.924  12.962  23.970  0.00  0.00     0.031 A 
ENDBRANCH  15  16
ENDBRANCH   8  11
BRANCH   9  22
HETATM   22  O   UNL     1       6.286   8.872  22.062  0.00  0.00    -0.360 OA
HETATM   23  H   UNL     1       6.757   8.059  22.320  0.00  0.00     0.217 HD
ENDBRANCH   9  22
BRANCH   1  24
HETATM   24  C   UNL     1       0.796   9.637  25.914  0.00  0.00     0.100 C 
BRANCH  24  25
HETATM   25  C   UNL     1      -0.138  10.624  25.249  0.00  0.00    -0.052 A 
HETATM   26  C   UNL     1      -1.530  10.430  25.240  0.00  0.00     0.007 A 
HETATM   27  C   UNL     1      -2.358  11.224  24.443  0.00  0.00     0.001 A 
HETATM   28  C   UNL     1      -1.807  12.227  23.648  0.00  0.00     0.000 A 
HETATM   29  C   UNL     1      -0.435  12.457  23.672  0.00  0.00     0.001 A 
HETATM   30  C   UNL     1       0.394  11.665  24.471  0.00  0.00     0.007 A 
ENDBRANCH  24  25
ENDBRANCH   1  24
TORSDOF 5
ENDMDL
MODEL 8
REMARK VINA RESULT:    -9.117      2.003      5.787
REMARK INTER + INTRA:         -13.702
REMARK INTER:                 -11.515
REMARK INTRA:                  -2.186
REMARK UNBOUND:                -2.186
REMARK  5 active torsions:
REMARK  status: ('A' for Active; 'I' for Inactive)
REMARK    1  A    between atoms: C_6  and  C_7 
REMARK    2  A    between atoms: C_7  and  C_8 
REMARK    3  A    between atoms: C_15  and  C_19 
REMARK    4  A    between atoms: C_16  and  O_18 
REMARK    5  A    between atoms: N_23  and  C_24 
ROOT
HETATM    1  C   UNL     1       2.456   7.275  25.489  0.00  0.00     0.071 A 
HETATM    2  N   UNL     1       2.664   6.683  26.679  0.00  0.00    -0.178 NA
HETATM    3  N   UNL     1       1.828   7.317  27.512  0.00  0.00    -0.277 N 
HETATM    4  H   UNL     1       1.829   7.050  28.487  0.00  0.00     0.189 HD
HETATM    5  C   UNL     1       1.484   8.319  25.584  0.00  0.00     0.020 A 
HETATM    6  C   UNL     1       1.105   8.319  26.921  0.00  0.00     0.065 A 
HETATM    7  C   UNL     1       0.928   9.299  24.720  0.00  0.00     0.032 A 
HETATM    8  C   UNL     1      -0.022  10.235  25.194  0.00  0.00     0.027 A 
HETATM    9  C   UNL     1      -0.342  10.174  26.566  0.00  0.00     0.080 A 
HETATM   10  C   UNL     1       0.200   9.230  27.454  0.00  0.00     0.069 A 
ENDROOT
BRANCH   8  11
HETATM   11  C   UNL     1      -0.535  11.330  24.320  0.00  0.00     0.073 C 
HETATM   12  C   UNL     1      -1.795  11.383  23.720  0.00  0.00     0.053 C 
HETATM   13  C   UNL     1      -1.949  12.669  23.215  0.00  0.00     0.141 C 
HETATM   14  N   UNL     1      -0.879  13.411  23.433  0.00  0.00    -0.179 NA
HETATM   15  N   UNL     1       0.062  12.556  23.947  0.00  0.00    -0.234 N 
BRANCH  15  16
HETATM   16  C   UNL     1       1.410  13.045  23.976  0.00  0.00     0.059 A 
HETATM   17  C   UNL     1       1.622  14.387  24.367  0.00  0.00     0.031 A 
HETATM   18  C   UNL     1       2.904  14.938  24.418  0.00  0.00     0.002 A 
HETATM   19  C   UNL     1       3.998  14.151  24.081  0.00  0.00     0.000 A 
HETATM   20  C   UNL     1       3.804  12.837  23.662  0.00  0.00     0.002 A 
HETATM   21  C   UNL     1       2.514  12.289  23.585  0.00  0.00     0.031 A 
ENDBRANCH  15  16
ENDBRANCH   8  11
BRANCH   9  22
HETATM   22  O   UNL     1      -1.175  11.089  27.160  0.00  0.00    -0.360 OA
HETATM   23  H   UNL     1      -0.590  11.808  27.458  0.00  0.00     0.217 HD
ENDBRANCH   9  22
BRANCH   1  24
HETATM   24  C   UNL     1       3.331   6.937  24.327  0.00  0.00     0.100 C 
BRANCH  24  25
HETATM   25  C   UNL     1       4.123   8.150  23.890  0.00  0.00    -0.052 A 
HETATM   26  C   UNL     1       4.073   8.626  22.569  0.00  0.00     0.007 A 
HETATM   27  C   UNL     1       4.967   9.604  22.126  0.00  0.00     0.001 A 
HETATM   28  C   UNL     1       5.921  10.123  22.999  0.00  0.00     0.000 A 
HETATM   29  C   UNL     1       5.961   9.689  24.321  0.00  0.00     0.001 A 
HETATM   30  C   UNL     1       5.065   8.714  24.766  0.00  0.00     0.007 A 
ENDBRANCH  24  25
ENDBRANCH   1  24
TORSDOF 5
ENDMDL
MODEL 9
REMARK VINA RESULT:    -9.107      2.967      4.612
REMARK INTER + INTRA:         -13.690
REMARK INTER:                 -12.316
REMARK INTRA:                  -1.373
REMARK UNBOUND:                -2.186
REMARK  5 active torsions:
REMARK  status: ('A' for Active; 'I' for Inactive)
REMARK    1  A    between atoms: C_6  and  C_7 
REMARK    2  A    between atoms: C_7  and  C_8 
REMARK    3  A    between atoms: C_15  and  C_19 
REMARK    4  A    between atoms: C_16  and  O_18 
REMARK    5  A    between atoms: N_23  and  C_24 
ROOT
HETATM    1  C   UNL     1       1.473  12.160  24.268  0.00  0.00     0.071 A 
HETATM    2  N   UNL     1       0.266  12.581  24.689  0.00  0.00    -0.178 NA
HETATM    3  N   UNL     1      -0.202  11.560  25.417  0.00  0.00    -0.277 N 
HETATM    4  H   UNL     1      -1.125  11.644  25.823  0.00  0.00     0.189 HD
HETATM    5  C   UNL     1       1.756  10.836  24.726  0.00  0.00     0.020 A 
HETATM    6  C   UNL     1       0.635  10.477  25.465  0.00  0.00     0.065 A 
HETATM    7  C   UNL     1       2.790   9.878  24.553  0.00  0.00     0.032 A 
HETATM    8  C   UNL     1       2.707   8.598  25.151  0.00  0.00     0.027 A 
HETATM    9  C   UNL     1       1.531   8.311  25.874  0.00  0.00     0.080 A 
HETATM   10  C   UNL     1       0.480   9.227  26.052  0.00  0.00     0.069 A 
ENDROOT
BRANCH   8  11
HETATM   11  C   UNL     1       3.739   7.553  24.893  0.00  0.00     0.073 C 
HETATM   12  C   UNL     1       3.709   6.233  25.350  0.00  0.00     0.053 C 
HETATM   13  C   UNL     1       4.715   5.548  24.678  0.00  0.00     0.141 C 
HETATM   14  N   UNL     1       5.381   6.340  23.859  0.00  0.00    -0.179 NA
HETATM   15  N   UNL     1       4.916   7.605  24.111  0.00  0.00    -0.234 N 
BRANCH  15  16
HETATM   16  C   UNL     1       5.698   8.683  23.577  0.00  0.00     0.059 A 
HETATM   17  C   UNL     1       6.651   9.296  24.424  0.00  0.00     0.031 A 
HETATM   18  C   UNL     1       7.448  10.353  23.978  0.00  0.00     0.002 A 
HETATM   19  C   UNL     1       7.305  10.813  22.675  0.00  0.00     0.000 A 
HETATM   20  C   UNL     1       6.349  10.242  21.840  0.00  0.00     0.002 A 
HETATM   21  C   UNL     1       5.528   9.197  22.293  0.00  0.00     0.031 A 
ENDBRANCH  15  16
ENDBRANCH   8  11
BRANCH   9  22
HETATM   22  O   UNL     1       1.293   7.073  26.416  0.00  0.00    -0.360 OA
HETATM   23  H   UNL     1       2.129   6.820  26.847  0.00  0.00     0.217 HD
ENDBRANCH   9  22
BRANCH   1  24
HETATM   24  C   UNL     1       2.246  12.978  23.287  0.00  0.00     0.100 C 
BRANCH  24  25
HETATM   25  C   UNL     1       3.393  13.686  23.974  0.00  0.00    -0.052 A 
HETATM   26  C   UNL     1       3.264  14.999  24.459  0.00  0.00     0.007 A 
HETATM   27  C   UNL     1       4.383  15.715  24.892  0.00  0.00     0.001 A 
HETATM   28  C   UNL     1       5.646  15.128  24.850  0.00  0.00     0.000 A 
HETATM   29  C   UNL     1       5.787  13.816  24.407  0.00  0.00     0.001 A 
HETATM   30  C   UNL     1       4.668  13.097  23.977  0.00  0.00     0.007 A 
ENDBRANCH  24  25
ENDBRANCH   1  24
TORSDOF 5
ENDMDL
