REMARK  5 active torsions:
REMARK  status: ('A' for Active; 'I' for Inactive)
REMARK    1  A    between atoms: C_6  and  C_7 
REMARK    2  A    between atoms: C_7  and  C_8 
REMARK    3  A    between atoms: C_15  and  C_19 
REMARK    4  A    between atoms: C_16  and  O_18 
REMARK    5  A    between atoms: N_23  and  C_24 
ROOT
HETATM    1  C   UNL     1      -3.597   1.358  -0.368  0.00  0.00     0.071 A 
HETATM    2  N   UNL     1      -4.891   1.701  -0.234  0.00  0.00    -0.178 NA
HETATM    3  N   UNL     1      -4.888   3.037  -0.319  0.00  0.00    -0.277 N 
HETATM    4  H   UNL     1      -5.768   3.526  -0.220  0.00  0.00     0.189 HD
HETATM    5  C   UNL     1      -2.762   2.509  -0.518  0.00  0.00     0.020 A 
HETATM    6  C   UNL     1      -3.642   3.584  -0.473  0.00  0.00     0.065 A 
HETATM    7  C   UNL     1      -1.371   2.774  -0.623  0.00  0.00     0.032 A 
HETATM    8  C   UNL     1      -0.886   4.100  -0.719  0.00  0.00     0.027 A 
HETATM    9  C   UNL     1      -1.844   5.132  -0.653  0.00  0.00     0.080 A 
HETATM   10  C   UNL     1      -3.226   4.909  -0.533  0.00  0.00     0.069 A 
ENDROOT
BRANCH   8  11
HETATM   11  C   UNL     1       0.577   4.392  -0.728  0.00  0.00     0.073 C 
HETATM   12  C   UNL     1       1.206   5.472  -0.105  0.00  0.00     0.053 C 
HETATM   13  C   UNL     1       2.573   5.224  -0.146  0.00  0.00     0.141 C 
HETATM   14  N   UNL     1       2.845   4.090  -0.764  0.00  0.00    -0.179 NA
HETATM   15  N   UNL     1       1.651   3.659  -1.283  0.00  0.00    -0.234 N 
BRANCH  15  16
HETATM   16  C   UNL     1       1.729   2.614  -2.263  0.00  0.00     0.059 A 
HETATM   17  C   UNL     1       2.981   1.990  -2.471  0.00  0.00     0.031 A 
HETATM   18  C   UNL     1       3.138   0.967  -3.409  0.00  0.00     0.002 A 
HETATM   19  C   UNL     1       2.042   0.550  -4.153  0.00  0.00     0.000 A 
HETATM   20  C   UNL     1       0.810   1.176  -3.984  0.00  0.00     0.002 A 
HETATM   21  C   UNL     1       0.655   2.222  -3.060  0.00  0.00     0.031 A 
ENDBRANCH  15  16
ENDBRANCH   8  11
BRANCH   9  22
HETATM   22  O   UNL     1      -1.487   6.457  -0.639  0.00  0.00    -0.360 OA
HETATM   23  H   UNL     1      -1.316   6.664   0.297  0.00  0.00     0.217 HD
ENDBRANCH   9  22
BRANCH   1  24
HETATM   24  C   UNL     1      -3.178  -0.061  -0.169  0.00  0.00     0.100 C 
BRANCH  24  25
HETATM   25  C   UNL     1      -3.308  -0.838  -1.461  0.00  0.00    -0.052 A 
HETATM   26  C   UNL     1      -4.562  -1.112  -2.033  0.00  0.00     0.007 A 
HETATM   27  C   UNL     1      -4.682  -2.008  -3.098  0.00  0.00     0.001 A 
HETATM   28  C   UNL     1      -3.550  -2.640  -3.609  0.00  0.00     0.000 A 
HETATM   29  C   UNL     1      -2.296  -2.353  -3.078  0.00  0.00     0.001 A 
HETATM   30  C   UNL     1      -2.174  -1.454  -2.015  0.00  0.00     0.007 A 
ENDBRANCH  24  25
ENDBRANCH   1  24
TORSDOF 5
