MODEL 1
REMARK VINA RESULT:   -11.390      0.000      0.000
REMARK INTER + INTRA:         -15.023
REMARK INTER:                 -13.136
REMARK INTRA:                  -1.887
REMARK UNBOUND:                -0.637
REMARK  5 active torsions:
REMARK  status: ('A' for Active; 'I' for Inactive)
REMARK       I    between atoms: N_8  and  C_10 
REMARK    1  A    between atoms: C_10  and  C_12 
REMARK    2  A    between atoms: C_14  and  N_15 
REMARK    3  A    between atoms: C_21  and  C_23 
REMARK    4  A    between atoms: C_28  and  S_29 
REMARK    5  A    between atoms: S_29  and  N_32 
ROOT
HETATM    1  C   UNL     1       3.353  12.763  22.433  0.00  0.00     0.156 A 
HETATM    2  N   UNL     1       2.007  12.676  22.626  0.00  0.00    -0.057 NA
HETATM    3  C   UNL     1       1.431  13.694  23.245  0.00  0.00     0.721 A 
HETATM    4  N   UNL     1       2.097  14.768  23.670  0.00  0.00    -0.063 NA
HETATM    5  C   UNL     1       3.434  14.847  23.468  0.00  0.00     0.088 A 
HETATM    6  C   UNL     1       4.170  13.875  22.806  0.00  0.00     0.029 A 
HETATM    7  C   UNL     1       4.141  15.945  23.965  0.00  0.00     0.034 A 
HETATM    8  C   UNL     1       5.546  16.126  23.824  0.00  0.00     0.014 A 
HETATM    9  C   UNL     1       6.350  15.210  23.138  0.00  0.00    -0.023 A 
HETATM   10  C   UNL     1       5.614  14.107  22.612  0.00  0.00     0.028 A 
ENDROOT
BRANCH   9  11
HETATM   11  C   UNL     1       7.845  15.430  22.892  0.00  0.00    -0.003 A 
HETATM   12  C   UNL     1       8.238  16.289  21.830  0.00  0.00     0.014 A 
HETATM   13  C   UNL     1       9.587  16.613  21.527  0.00  0.00     0.001 A 
HETATM   14  C   UNL     1      10.629  16.170  22.313  0.00  0.00     0.002 A 
HETATM   15  C   UNL     1      10.306  15.302  23.355  0.00  0.00     0.026 A 
HETATM   16  C   UNL     1       8.957  14.897  23.606  0.00  0.00     0.090 A 
BRANCH  16  17
HETATM   17  S   UNL     1       8.934  13.435  24.631  0.00  0.00     0.261 S 
HETATM   18  O   UNL     1      10.293  13.080  24.958  0.00  0.00    -0.200 OA
HETATM   19  O   UNL     1       7.900  13.496  25.631  0.00  0.00    -0.200 OA
BRANCH  17  20
HETATM   20  N   UNL     1       8.345  12.294  23.503  0.00  0.00    -0.303 N 
HETATM   21  C   UNL     1       8.088  10.925  24.009  0.00  0.00     0.163 C 
HETATM   22  C   UNL     1       9.182   9.897  23.680  0.00  0.00     0.255 C 
HETATM   23  N   UNL     1       9.862  10.064  22.328  0.00  0.00    -0.072 N 
HETATM   24  H   UNL     1       9.293   9.529  21.659  0.00  0.00     0.279 HD
HETATM   25  C   UNL     1      11.242   9.438  22.321  0.00  0.00     0.269 C 
HETATM   26  C   UNL     1       9.974  11.483  21.792  0.00  0.00     0.255 C 
HETATM   27  C   UNL     1       8.770  12.370  22.096  0.00  0.00     0.163 C 
ENDBRANCH  17  20
ENDBRANCH  16  17
ENDBRANCH   9  11
BRANCH   1  28
HETATM   28  C   UNL     1       3.989  11.465  21.995  0.00  0.00     0.274 C 
HETATM   29  N   UNL     1       4.470  10.536  22.916  0.00  0.00    -0.342 N 
HETATM   30  C   UNL     1       4.300  10.518  24.367  0.00  0.00     0.161 C 
HETATM   31  C   UNL     1       5.166   9.328  22.473  0.00  0.00     0.139 C 
HETATM   32  C   UNL     1       4.347   9.046  24.675  0.00  0.00    -0.056 C 
HETATM   33  C   UNL     1       4.155   8.416  25.849  0.00  0.00    -0.018 C 
HETATM   34  C   UNL     1       4.676   8.251  23.430  0.00  0.00     0.056 C 
HETATM   35  C   UNL     1       4.376   6.921  25.962  0.00  0.00     0.054 C 
HETATM   36  C   UNL     1       5.342   6.408  24.913  0.00  0.00    -0.026 C 
HETATM   37  C   UNL     1       5.534   7.057  23.746  0.00  0.00    -0.020 C 
HETATM   38  O   UNL     1       4.120  11.270  20.782  0.00  0.00    -0.266 OA
ENDBRANCH   1  28
BRANCH   3  39
HETATM   39  N   UNL     1       0.076  13.609  23.476  0.00  0.00    -0.231 N 
HETATM   40  H   UNL     1      -0.195  13.836  24.422  0.00  0.00     0.174 HD
HETATM   41  H   UNL     1      -0.365  12.819  23.030  0.00  0.00     0.174 HD
ENDBRANCH   3  39
TORSDOF 5
ENDMDL
MODEL 2
REMARK VINA RESULT:   -11.090      2.012      2.798
REMARK INTER + INTRA:         -14.644
REMARK INTER:                 -13.229
REMARK INTRA:                  -1.415
REMARK UNBOUND:                -0.637
REMARK  5 active torsions:
REMARK  status: ('A' for Active; 'I' for Inactive)
REMARK       I    between atoms: N_8  and  C_10 
REMARK    1  A    between atoms: C_10  and  C_12 
REMARK    2  A    between atoms: C_14  and  N_15 
REMARK    3  A    between atoms: C_21  and  C_23 
REMARK    4  A    between atoms: C_28  and  S_29 
REMARK    5  A    between atoms: S_29  and  N_32 
ROOT
HETATM    1  C   UNL     1       4.070  12.505  21.838  0.00  0.00     0.156 A 
HETATM    2  N   UNL     1       2.778  12.211  22.156  0.00  0.00    -0.057 NA
HETATM    3  C   UNL     1       2.197  12.992  23.053  0.00  0.00     0.721 A 
HETATM    4  N   UNL     1       2.809  14.023  23.636  0.00  0.00    -0.063 NA
HETATM    5  C   UNL     1       4.091  14.310  23.309  0.00  0.00     0.088 A 
HETATM    6  C   UNL     1       4.820  13.602  22.363  0.00  0.00     0.029 A 
HETATM    7  C   UNL     1       4.751  15.353  23.963  0.00  0.00     0.034 A 
HETATM    8  C   UNL     1       6.100  15.734  23.710  0.00  0.00     0.014 A 
HETATM    9  C   UNL     1       6.886  15.096  22.747  0.00  0.00    -0.023 A 
HETATM   10  C   UNL     1       6.194  14.049  22.066  0.00  0.00     0.028 A 
ENDROOT
BRANCH   9  11
HETATM   11  C   UNL     1       8.305  15.548  22.391  0.00  0.00    -0.003 A 
HETATM   12  C   UNL     1       8.466  16.721  21.606  0.00  0.00     0.014 A 
HETATM   13  C   UNL     1       9.725  17.272  21.248  0.00  0.00     0.001 A 
HETATM   14  C   UNL     1      10.906  16.739  21.719  0.00  0.00     0.002 A 
HETATM   15  C   UNL     1      10.812  15.570  22.473  0.00  0.00     0.026 A 
HETATM   16  C   UNL     1       9.550  14.958  22.757  0.00  0.00     0.090 A 
BRANCH  16  17
HETATM   17  S   UNL     1       9.790  13.266  23.274  0.00  0.00     0.261 S 
HETATM   18  O   UNL     1       8.843  12.432  22.576  0.00  0.00    -0.200 OA
HETATM   19  O   UNL     1      11.186  12.925  23.365  0.00  0.00    -0.200 OA
BRANCH  17  20
HETATM   20  N   UNL     1       9.291  13.383  24.904  0.00  0.00    -0.303 N 
HETATM   21  C   UNL     1       9.257  14.741  25.498  0.00  0.00     0.163 C 
HETATM   22  C   UNL     1      10.458  15.087  26.392  0.00  0.00     0.255 C 
HETATM   23  N   UNL     1      11.019  13.939  27.219  0.00  0.00    -0.072 N 
HETATM   24  H   UNL     1      10.487  13.939  28.099  0.00  0.00     0.279 HD
HETATM   25  C   UNL     1      12.469  14.180  27.590  0.00  0.00     0.269 C 
HETATM   26  C   UNL     1      10.901  12.546  26.621  0.00  0.00     0.255 C 
HETATM   27  C   UNL     1       9.609  12.298  25.846  0.00  0.00     0.163 C 
ENDBRANCH  17  20
ENDBRANCH  16  17
ENDBRANCH   9  11
BRANCH   1  28
HETATM   28  C   UNL     1       4.762  11.421  21.045  0.00  0.00     0.274 C 
HETATM   29  N   UNL     1       5.653  10.531  21.642  0.00  0.00    -0.342 N 
HETATM   30  C   UNL     1       5.933  10.334  23.062  0.00  0.00     0.161 C 
HETATM   31  C   UNL     1       6.383   9.548  20.840  0.00  0.00     0.139 C 
HETATM   32  C   UNL     1       6.327   8.883  23.112  0.00  0.00    -0.056 C 
HETATM   33  C   UNL     1       6.612   8.115  24.180  0.00  0.00    -0.018 C 
HETATM   34  C   UNL     1       6.400   8.302  21.715  0.00  0.00     0.056 C 
HETATM   35  C   UNL     1       7.114   6.698  23.992  0.00  0.00     0.054 C 
HETATM   36  C   UNL     1       7.794   6.508  22.651  0.00  0.00    -0.026 C 
HETATM   37  C   UNL     1       7.509   7.294  21.592  0.00  0.00    -0.020 C 
HETATM   38  O   UNL     1       4.554  11.379  19.828  0.00  0.00    -0.266 OA
ENDBRANCH   1  28
BRANCH   3  39
HETATM   39  N   UNL     1       0.901  12.691  23.409  0.00  0.00    -0.231 N 
HETATM   40  H   UNL     1       0.315  13.501  23.550  0.00  0.00     0.174 HD
HETATM   41  H   UNL     1       0.825  11.928  24.064  0.00  0.00     0.174 HD
ENDBRANCH   3  39
TORSDOF 5
ENDMDL
MODEL 3
REMARK VINA RESULT:   -10.142      2.599      6.996
REMARK INTER + INTRA:         -13.447
REMARK INTER:                 -11.690
REMARK INTRA:                  -1.757
REMARK UNBOUND:                -0.637
REMARK  5 active torsions:
REMARK  status: ('A' for Active; 'I' for Inactive)
REMARK       I    between atoms: N_8  and  C_10 
REMARK    1  A    between atoms: C_10  and  C_12 
REMARK    2  A    between atoms: C_14  and  N_15 
REMARK    3  A    between atoms: C_21  and  C_23 
REMARK    4  A    between atoms: C_28  and  S_29 
REMARK    5  A    between atoms: S_29  and  N_32 
ROOT
HETATM    1  C   UNL     1       8.292  14.444  23.181  0.00  0.00     0.156 A 
HETATM    2  N   UNL     1       8.865  15.607  22.765  0.00  0.00    -0.057 NA
HETATM    3  C   UNL     1       9.961  15.498  22.032  0.00  0.00     0.721 A 
HETATM    4  N   UNL     1      10.506  14.329  21.695  0.00  0.00    -0.063 NA
HETATM    5  C   UNL     1       9.925  13.178  22.109  0.00  0.00     0.088 A 
HETATM    6  C   UNL     1       8.756  13.133  22.855  0.00  0.00     0.029 A 
HETATM    7  C   UNL     1      10.529  11.955  21.806  0.00  0.00     0.034 A 
HETATM    8  C   UNL     1      10.016  10.686  22.201  0.00  0.00     0.014 A 
HETATM    9  C   UNL     1       8.824  10.556  22.921  0.00  0.00    -0.023 A 
HETATM   10  C   UNL     1       8.203  11.809  23.202  0.00  0.00     0.028 A 
ENDROOT
BRANCH   9  11
HETATM   11  C   UNL     1       8.204   9.201  23.274  0.00  0.00    -0.003 A 
HETATM   12  C   UNL     1       9.053   8.176  23.770  0.00  0.00     0.014 A 
HETATM   13  C   UNL     1       8.597   6.894  24.178  0.00  0.00     0.001 A 
HETATM   14  C   UNL     1       7.256   6.578  24.198  0.00  0.00     0.002 A 
HETATM   15  C   UNL     1       6.377   7.537  23.697  0.00  0.00     0.026 A 
HETATM   16  C   UNL     1       6.841   8.794  23.196  0.00  0.00     0.090 A 
BRANCH  16  17
HETATM   17  S   UNL     1       5.581   9.557  22.185  0.00  0.00     0.261 S 
HETATM   18  O   UNL     1       4.425   8.694  22.162  0.00  0.00    -0.200 OA
HETATM   19  O   UNL     1       5.474  10.970  22.437  0.00  0.00    -0.200 OA
BRANCH  17  20
HETATM   20  N   UNL     1       6.338   9.470  20.656  0.00  0.00    -0.303 N 
HETATM   21  C   UNL     1       6.664  10.757  19.996  0.00  0.00     0.163 C 
HETATM   22  C   UNL     1       5.680  11.187  18.897  0.00  0.00     0.255 C 
HETATM   23  N   UNL     1       5.090  10.062  18.058  0.00  0.00    -0.072 N 
HETATM   24  H   UNL     1       5.747   9.917  17.280  0.00  0.00     0.279 HD
HETATM   25  C   UNL     1       3.768  10.467  17.439  0.00  0.00     0.269 C 
HETATM   26  C   UNL     1       4.908   8.720  18.750  0.00  0.00     0.255 C 
HETATM   27  C   UNL     1       6.013   8.364  19.741  0.00  0.00     0.163 C 
ENDBRANCH  17  20
ENDBRANCH  16  17
ENDBRANCH   9  11
BRANCH   1  28
HETATM   28  C   UNL     1       7.232  14.634  24.242  0.00  0.00     0.274 C 
HETATM   29  N   UNL     1       5.880  14.731  23.918  0.00  0.00    -0.342 N 
HETATM   30  C   UNL     1       5.229  14.490  22.632  0.00  0.00     0.161 C 
HETATM   31  C   UNL     1       4.879  15.007  24.948  0.00  0.00     0.139 C 
HETATM   32  C   UNL     1       3.859  14.029  23.049  0.00  0.00    -0.056 C 
HETATM   33  C   UNL     1       2.845  13.579  22.287  0.00  0.00    -0.018 C 
HETATM   34  C   UNL     1       3.694  14.138  24.550  0.00  0.00     0.056 C 
HETATM   35  C   UNL     1       1.494  13.284  22.907  0.00  0.00     0.054 C 
HETATM   36  C   UNL     1       1.265  14.077  24.179  0.00  0.00    -0.026 C 
HETATM   37  C   UNL     1       2.292  14.533  24.925  0.00  0.00    -0.020 C 
HETATM   38  O   UNL     1       7.607  14.755  25.412  0.00  0.00    -0.266 OA
ENDBRANCH   1  28
BRANCH   3  39
HETATM   39  N   UNL     1      10.571  16.665  21.627  0.00  0.00    -0.231 N 
HETATM   40  H   UNL     1      10.849  16.668  20.657  0.00  0.00     0.174 HD
HETATM   41  H   UNL     1      11.210  17.048  22.308  0.00  0.00     0.174 HD
ENDBRANCH   3  39
TORSDOF 5
ENDMDL
MODEL 4
REMARK VINA RESULT:   -10.129      2.866      4.153
REMARK INTER + INTRA:         -13.430
REMARK INTER:                 -12.737
REMARK INTRA:                  -0.694
REMARK UNBOUND:                -0.637
REMARK  5 active torsions:
REMARK  status: ('A' for Active; 'I' for Inactive)
REMARK       I    between atoms: N_8  and  C_10 
REMARK    1  A    between atoms: C_10  and  C_12 
REMARK    2  A    between atoms: C_14  and  N_15 
REMARK    3  A    between atoms: C_21  and  C_23 
REMARK    4  A    between atoms: C_28  and  S_29 
REMARK    5  A    between atoms: S_29  and  N_32 
ROOT
HETATM    1  C   UNL     1       4.505  12.252  22.159  0.00  0.00     0.156 A 
HETATM    2  N   UNL     1       3.201  11.969  22.431  0.00  0.00    -0.057 NA
HETATM    3  C   UNL     1       2.516  12.898  23.078  0.00  0.00     0.721 A 
HETATM    4  N   UNL     1       3.039  14.064  23.459  0.00  0.00    -0.063 NA
HETATM    5  C   UNL     1       4.335  14.338  23.177  0.00  0.00     0.088 A 
HETATM    6  C   UNL     1       5.168  13.476  22.478  0.00  0.00     0.029 A 
HETATM    7  C   UNL     1       4.899  15.535  23.627  0.00  0.00     0.034 A 
HETATM    8  C   UNL     1       6.251  15.920  23.403  0.00  0.00     0.014 A 
HETATM    9  C   UNL     1       7.141  15.125  22.675  0.00  0.00    -0.023 A 
HETATM   10  C   UNL     1       6.548  13.917  22.197  0.00  0.00     0.028 A 
ENDROOT
BRANCH   9  11
HETATM   11  C   UNL     1       8.570  15.560  22.339  0.00  0.00    -0.003 A 
HETATM   12  C   UNL     1       8.755  16.713  21.531  0.00  0.00     0.014 A 
HETATM   13  C   UNL     1      10.025  17.248  21.187  0.00  0.00     0.001 A 
HETATM   14  C   UNL     1      11.192  16.720  21.696  0.00  0.00     0.002 A 
HETATM   15  C   UNL     1      11.074  15.570  22.475  0.00  0.00     0.026 A 
HETATM   16  C   UNL     1       9.803  14.972  22.745  0.00  0.00     0.090 A 
BRANCH  16  17
HETATM   17  S   UNL     1      10.021  13.291  23.307  0.00  0.00     0.261 S 
HETATM   18  O   UNL     1       9.116  12.439  22.575  0.00  0.00    -0.200 OA
HETATM   19  O   UNL     1      11.411  12.958  23.479  0.00  0.00    -0.200 OA
BRANCH  17  20
HETATM   20  N   UNL     1       9.435  13.436  24.906  0.00  0.00    -0.303 N 
HETATM   21  C   UNL     1       9.380  14.803  25.476  0.00  0.00     0.163 C 
HETATM   22  C   UNL     1      10.534  15.153  26.430  0.00  0.00     0.255 C 
HETATM   23  N   UNL     1      11.039  14.013  27.303  0.00  0.00    -0.072 N 
HETATM   24  H   UNL     1      10.459  14.031  28.152  0.00  0.00     0.279 HD
HETATM   25  C   UNL     1      12.468  14.248  27.750  0.00  0.00     0.269 C 
HETATM   26  C   UNL     1      10.941  12.612  26.720  0.00  0.00     0.255 C 
HETATM   27  C   UNL     1       9.691  12.363  25.879  0.00  0.00     0.163 C 
ENDBRANCH  17  20
ENDBRANCH  16  17
ENDBRANCH   9  11
BRANCH   1  28
HETATM   28  C   UNL     1       5.301  11.056  21.689  0.00  0.00     0.274 C 
HETATM   29  N   UNL     1       4.956  10.351  20.537  0.00  0.00    -0.342 N 
HETATM   30  C   UNL     1       3.971  10.698  19.516  0.00  0.00     0.161 C 
HETATM   31  C   UNL     1       5.683   9.142  20.151  0.00  0.00     0.139 C 
HETATM   32  C   UNL     1       4.548  10.054  18.285  0.00  0.00    -0.056 C 
HETATM   33  C   UNL     1       4.114  10.113  17.012  0.00  0.00    -0.018 C 
HETATM   34  C   UNL     1       5.774   9.239  18.635  0.00  0.00     0.056 C 
HETATM   35  C   UNL     1       4.779   9.277  15.937  0.00  0.00     0.054 C 
HETATM   36  C   UNL     1       5.456   8.047  16.509  0.00  0.00    -0.026 C 
HETATM   37  C   UNL     1       5.873   7.998  17.790  0.00  0.00    -0.020 C 
HETATM   38  O   UNL     1       6.246  10.684  22.393  0.00  0.00    -0.266 OA
ENDBRANCH   1  28
BRANCH   3  39
HETATM   39  N   UNL     1       1.205  12.617  23.389  0.00  0.00    -0.231 N 
HETATM   40  H   UNL     1       0.679  12.215  22.627  0.00  0.00     0.174 HD
HETATM   41  H   UNL     1       0.760  13.323  23.956  0.00  0.00     0.174 HD
ENDBRANCH   3  39
TORSDOF 5
ENDMDL
MODEL 5
REMARK VINA RESULT:    -9.875      2.310      3.424
REMARK INTER + INTRA:         -13.110
REMARK INTER:                 -11.969
REMARK INTRA:                  -1.141
REMARK UNBOUND:                -0.637
REMARK  5 active torsions:
REMARK  status: ('A' for Active; 'I' for Inactive)
REMARK       I    between atoms: N_8  and  C_10 
REMARK    1  A    between atoms: C_10  and  C_12 
REMARK    2  A    between atoms: C_14  and  N_15 
REMARK    3  A    between atoms: C_21  and  C_23 
REMARK    4  A    between atoms: C_28  and  S_29 
REMARK    5  A    between atoms: S_29  and  N_32 
ROOT
HETATM    1  C   UNL     1       4.066  12.388  22.125  0.00  0.00     0.156 A 
HETATM    2  N   UNL     1       2.725  12.181  22.245  0.00  0.00    -0.057 NA
HETATM    3  C   UNL     1       2.021  13.164  22.782  0.00  0.00     0.721 A 
HETATM    4  N   UNL     1       2.558  14.314  23.193  0.00  0.00    -0.063 NA
HETATM    5  C   UNL     1       3.891  14.511  23.063  0.00  0.00     0.088 A 
HETATM    6  C   UNL     1       4.753  13.586  22.490  0.00  0.00     0.029 A 
HETATM    7  C   UNL     1       4.462  15.691  23.547  0.00  0.00     0.034 A 
HETATM    8  C   UNL     1       5.851  15.999  23.477  0.00  0.00     0.014 A 
HETATM    9  C   UNL     1       6.776  15.136  22.882  0.00  0.00    -0.023 A 
HETATM   10  C   UNL     1       6.178  13.946  22.367  0.00  0.00     0.028 A 
ENDROOT
BRANCH   9  11
HETATM   11  C   UNL     1       8.257  15.486  22.710  0.00  0.00    -0.003 A 
HETATM   12  C   UNL     1       8.623  16.400  21.686  0.00  0.00     0.014 A 
HETATM   13  C   UNL     1       9.951  16.844  21.453  0.00  0.00     0.001 A 
HETATM   14  C   UNL     1      10.991  16.471  22.278  0.00  0.00     0.002 A 
HETATM   15  C   UNL     1      10.697  15.554  23.286  0.00  0.00     0.026 A 
HETATM   16  C   UNL     1       9.376  15.031  23.465  0.00  0.00     0.090 A 
BRANCH  16  17
HETATM   17  S   UNL     1       9.432  13.548  24.458  0.00  0.00     0.261 S 
HETATM   18  O   UNL     1      10.291  13.785  25.592  0.00  0.00    -0.200 OA
HETATM   19  O   UNL     1       8.131  12.946  24.597  0.00  0.00    -0.200 OA
BRANCH  17  20
HETATM   20  N   UNL     1      10.252  12.504  23.381  0.00  0.00    -0.303 N 
HETATM   21  C   UNL     1       9.652  12.322  22.038  0.00  0.00     0.163 C 
HETATM   22  C   UNL     1       8.854  11.021  21.858  0.00  0.00     0.255 C 
HETATM   23  N   UNL     1       9.400   9.802  22.588  0.00  0.00    -0.072 N 
HETATM   24  H   UNL     1      10.073   9.366  21.944  0.00  0.00     0.279 HD
HETATM   25  C   UNL     1       8.315   8.775  22.841  0.00  0.00     0.269 C 
HETATM   26  C   UNL     1      10.131  10.062  23.896  0.00  0.00     0.255 C 
HETATM   27  C   UNL     1      10.975  11.334  23.906  0.00  0.00     0.163 C 
ENDBRANCH  17  20
ENDBRANCH  16  17
ENDBRANCH   9  11
BRANCH   1  28
HETATM   28  C   UNL     1       4.845  11.138  21.785  0.00  0.00     0.274 C 
HETATM   29  N   UNL     1       4.611  10.424  20.611  0.00  0.00    -0.342 N 
HETATM   30  C   UNL     1       3.787  10.798  19.464  0.00  0.00     0.161 C 
HETATM   31  C   UNL     1       5.310   9.167  20.345  0.00  0.00     0.139 C 
HETATM   32  C   UNL     1       4.480  10.092  18.330  0.00  0.00    -0.056 C 
HETATM   33  C   UNL     1       4.217  10.142  17.011  0.00  0.00    -0.018 C 
HETATM   34  C   UNL     1       5.602   9.220  18.851  0.00  0.00     0.056 C 
HETATM   35  C   UNL     1       4.966   9.244  16.047  0.00  0.00     0.054 C 
HETATM   36  C   UNL     1       5.491   7.994  16.725  0.00  0.00    -0.026 C 
HETATM   37  C   UNL     1       5.736   7.954  18.050  0.00  0.00    -0.020 C 
HETATM   38  O   UNL     1       5.669  10.733  22.612  0.00  0.00    -0.266 OA
ENDBRANCH   1  28
BRANCH   3  39
HETATM   39  N   UNL     1       0.668  12.961  22.940  0.00  0.00    -0.231 N 
HETATM   40  H   UNL     1       0.356  12.995  23.899  0.00  0.00     0.174 HD
HETATM   41  H   UNL     1       0.292  12.241  22.341  0.00  0.00     0.174 HD
ENDBRANCH   3  39
TORSDOF 5
ENDMDL
MODEL 6
REMARK VINA RESULT:    -9.811      2.133      3.047
REMARK INTER + INTRA:         -13.029
REMARK INTER:                 -11.152
REMARK INTRA:                  -1.877
REMARK UNBOUND:                -0.637
REMARK  5 active torsions:
REMARK  status: ('A' for Active; 'I' for Inactive)
REMARK       I    between atoms: N_8  and  C_10 
REMARK    1  A    between atoms: C_10  and  C_12 
REMARK    2  A    between atoms: C_14  and  N_15 
REMARK    3  A    between atoms: C_21  and  C_23 
REMARK    4  A    between atoms: C_28  and  S_29 
REMARK    5  A    between atoms: S_29  and  N_32 
ROOT
HETATM    1  C   UNL     1       3.892  12.233  24.079  0.00  0.00     0.156 A 
HETATM    2  N   UNL     1       2.585  12.193  23.697  0.00  0.00    -0.057 NA
HETATM    3  C   UNL     1       2.032  13.347  23.357  0.00  0.00     0.721 A 
HETATM    4  N   UNL     1       2.687  14.508  23.372  0.00  0.00    -0.063 NA
HETATM    5  C   UNL     1       3.988  14.536  23.748  0.00  0.00     0.088 A 
HETATM    6  C   UNL     1       4.710  13.404  24.099  0.00  0.00     0.029 A 
HETATM    7  C   UNL     1       4.657  15.760  23.820  0.00  0.00     0.034 A 
HETATM    8  C   UNL     1       6.017  15.910  24.215  0.00  0.00     0.014 A 
HETATM    9  C   UNL     1       6.821  14.816  24.546  0.00  0.00    -0.023 A 
HETATM   10  C   UNL     1       6.136  13.568  24.444  0.00  0.00     0.028 A 
ENDROOT
BRANCH   9  11
HETATM   11  C   UNL     1       8.310  14.943  24.881  0.00  0.00    -0.003 A 
HETATM   12  C   UNL     1       8.680  15.284  26.210  0.00  0.00     0.014 A 
HETATM   13  C   UNL     1      10.022  15.386  26.661  0.00  0.00     0.001 A 
HETATM   14  C   UNL     1      11.084  15.073  25.840  0.00  0.00     0.002 A 
HETATM   15  C   UNL     1      10.784  14.757  24.516  0.00  0.00     0.026 A 
HETATM   16  C   UNL     1       9.437  14.746  24.032  0.00  0.00     0.090 A 
BRANCH  16  17
HETATM   17  S   UNL     1       9.424  14.814  22.248  0.00  0.00     0.261 S 
HETATM   18  O   UNL     1       8.090  15.141  21.809  0.00  0.00    -0.200 OA
HETATM   19  O   UNL     1      10.585  15.489  21.728  0.00  0.00    -0.200 OA
BRANCH  17  20
HETATM   20  N   UNL     1       9.712  13.169  21.888  0.00  0.00    -0.303 N 
HETATM   21  C   UNL     1      10.068  12.842  20.487  0.00  0.00     0.163 C 
HETATM   22  C   UNL     1       8.915  12.279  19.641  0.00  0.00     0.255 C 
HETATM   23  N   UNL     1       7.932  11.378  20.378  0.00  0.00    -0.072 N 
HETATM   24  H   UNL     1       8.318  10.427  20.312  0.00  0.00     0.279 HD
HETATM   25  C   UNL     1       6.584  11.348  19.687  0.00  0.00     0.269 C 
HETATM   26  C   UNL     1       7.711  11.674  21.853  0.00  0.00     0.255 C 
HETATM   27  C   UNL     1       8.963  12.122  22.603  0.00  0.00     0.163 C 
ENDBRANCH  17  20
ENDBRANCH  16  17
ENDBRANCH   9  11
BRANCH   1  28
HETATM   28  C   UNL     1       4.375  10.956  24.726  0.00  0.00     0.274 C 
HETATM   29  N   UNL     1       4.650   9.813  23.978  0.00  0.00    -0.342 N 
HETATM   30  C   UNL     1       4.720   9.667  22.527  0.00  0.00     0.161 C 
HETATM   31  C   UNL     1       5.027   8.560  24.633  0.00  0.00     0.139 C 
HETATM   32  C   UNL     1       5.711   8.546  22.366  0.00  0.00    -0.056 C 
HETATM   33  C   UNL     1       6.240   8.033  21.240  0.00  0.00    -0.018 C 
HETATM   34  C   UNL     1       6.092   7.975  23.716  0.00  0.00     0.056 C 
HETATM   35  C   UNL     1       7.132   6.810  21.302  0.00  0.00     0.054 C 
HETATM   36  C   UNL     1       6.855   5.963  22.528  0.00  0.00    -0.026 C 
HETATM   37  C   UNL     1       6.312   6.488  23.646  0.00  0.00    -0.020 C 
HETATM   38  O   UNL     1       4.472  10.939  25.958  0.00  0.00    -0.266 OA
ENDBRANCH   1  28
BRANCH   3  39
HETATM   39  N   UNL     1       0.703  13.330  22.998  0.00  0.00    -0.231 N 
HETATM   40  H   UNL     1       0.296  12.406  22.971  0.00  0.00     0.174 HD
HETATM   41  H   UNL     1       0.473  13.974  22.257  0.00  0.00     0.174 HD
ENDBRANCH   3  39
TORSDOF 5
ENDMDL
MODEL 7
REMARK VINA RESULT:    -9.738      1.715      2.136
REMARK INTER + INTRA:         -12.937
REMARK INTER:                 -11.648
REMARK INTRA:                  -1.288
REMARK UNBOUND:                -0.637
REMARK  5 active torsions:
REMARK  status: ('A' for Active; 'I' for Inactive)
REMARK       I    between atoms: N_8  and  C_10 
REMARK    1  A    between atoms: C_10  and  C_12 
REMARK    2  A    between atoms: C_14  and  N_15 
REMARK    3  A    between atoms: C_21  and  C_23 
REMARK    4  A    between atoms: C_28  and  S_29 
REMARK    5  A    between atoms: S_29  and  N_32 
ROOT
HETATM    1  C   UNL     1       3.837  12.530  22.365  0.00  0.00     0.156 A 
HETATM    2  N   UNL     1       2.554  12.509  21.909  0.00  0.00    -0.057 NA
HETATM    3  C   UNL     1       1.804  13.559  22.203  0.00  0.00     0.721 A 
HETATM    4  N   UNL     1       2.244  14.603  22.906  0.00  0.00    -0.063 NA
HETATM    5  C   UNL     1       3.524  14.616  23.350  0.00  0.00     0.088 A 
HETATM    6  C   UNL     1       4.437  13.604  23.092  0.00  0.00     0.029 A 
HETATM    7  C   UNL     1       3.968  15.683  24.136  0.00  0.00     0.034 A 
HETATM    8  C   UNL     1       5.285  15.795  24.668  0.00  0.00     0.014 A 
HETATM    9  C   UNL     1       6.271  14.836  24.421  0.00  0.00    -0.023 A 
HETATM   10  C   UNL     1       5.815  13.765  23.596  0.00  0.00     0.028 A 
ENDROOT
BRANCH   9  11
HETATM   11  C   UNL     1       7.718  14.981  24.902  0.00  0.00    -0.003 A 
HETATM   12  C   UNL     1       7.953  15.222  26.282  0.00  0.00     0.014 A 
HETATM   13  C   UNL     1       9.244  15.329  26.863  0.00  0.00     0.001 A 
HETATM   14  C   UNL     1      10.387  15.119  26.122  0.00  0.00     0.002 A 
HETATM   15  C   UNL     1      10.221  14.905  24.754  0.00  0.00     0.026 A 
HETATM   16  C   UNL     1       8.924  14.891  24.148  0.00  0.00     0.090 A 
BRANCH  16  17
HETATM   17  S   UNL     1       9.069  15.108  22.382  0.00  0.00     0.261 S 
HETATM   18  O   UNL     1       8.061  16.044  21.948  0.00  0.00    -0.200 OA
HETATM   19  O   UNL     1      10.443  15.218  21.965  0.00  0.00    -0.200 OA
BRANCH  17  20
HETATM   20  N   UNL     1       8.606  13.550  21.855  0.00  0.00    -0.303 N 
HETATM   21  C   UNL     1       8.790  12.436  22.816  0.00  0.00     0.163 C 
HETATM   22  C   UNL     1      10.036  11.571  22.573  0.00  0.00     0.255 C 
HETATM   23  N   UNL     1      10.416  11.352  21.115  0.00  0.00    -0.072 N 
HETATM   24  H   UNL     1       9.896  10.518  20.812  0.00  0.00     0.279 HD
HETATM   25  C   UNL     1      11.887  11.021  20.969  0.00  0.00     0.269 C 
HETATM   26  C   UNL     1      10.075  12.473  20.146  0.00  0.00     0.255 C 
HETATM   27  C   UNL     1       8.755  13.182  20.438  0.00  0.00     0.163 C 
ENDBRANCH  17  20
ENDBRANCH  16  17
ENDBRANCH   9  11
BRANCH   1  28
HETATM   28  C   UNL     1       4.543  11.199  22.254  0.00  0.00     0.274 C 
HETATM   29  N   UNL     1       4.709  10.362  23.357  0.00  0.00    -0.342 N 
HETATM   30  C   UNL     1       4.120  10.479  24.688  0.00  0.00     0.161 C 
HETATM   31  C   UNL     1       5.476   9.121  23.250  0.00  0.00     0.139 C 
HETATM   32  C   UNL     1       4.039   9.043  25.129  0.00  0.00    -0.056 C 
HETATM   33  C   UNL     1       3.495   8.525  26.246  0.00  0.00    -0.018 C 
HETATM   34  C   UNL     1       4.701   8.136  24.113  0.00  0.00     0.056 C 
HETATM   35  C   UNL     1       3.638   7.049  26.553  0.00  0.00     0.054 C 
HETATM   36  C   UNL     1       4.857   6.443  25.887  0.00  0.00    -0.026 C 
HETATM   37  C   UNL     1       5.400   6.980  24.775  0.00  0.00    -0.020 C 
HETATM   38  O   UNL     1       5.021  10.892  21.157  0.00  0.00    -0.266 OA
ENDBRANCH   1  28
BRANCH   3  39
HETATM   39  N   UNL     1       0.495  13.541  21.776  0.00  0.00    -0.231 N 
HETATM   40  H   UNL     1      -0.123  13.003  22.366  0.00  0.00     0.174 HD
HETATM   41  H   UNL     1       0.394  13.456  20.776  0.00  0.00     0.174 HD
ENDBRANCH   3  39
TORSDOF 5
ENDMDL
MODEL 8
REMARK VINA RESULT:    -9.678      2.770      4.720
REMARK INTER + INTRA:         -12.861
REMARK INTER:                 -11.123
REMARK INTRA:                  -1.738
REMARK UNBOUND:                -0.637
REMARK  5 active torsions:
REMARK  status: ('A' for Active; 'I' for Inactive)
REMARK       I    between atoms: N_8  and  C_10 
REMARK    1  A    between atoms: C_10  and  C_12 
REMARK    2  A    between atoms: C_14  and  N_15 
REMARK    3  A    between atoms: C_21  and  C_23 
REMARK    4  A    between atoms: C_28  and  S_29 
REMARK    5  A    between atoms: S_29  and  N_32 
ROOT
HETATM    1  C   UNL     1       5.232   8.335  22.561  0.00  0.00     0.156 A 
HETATM    2  N   UNL     1       5.174   7.188  21.829  0.00  0.00    -0.057 NA
HETATM    3  C   UNL     1       5.046   7.327  20.519  0.00  0.00     0.721 A 
HETATM    4  N   UNL     1       4.975   8.511  19.909  0.00  0.00    -0.063 NA
HETATM    5  C   UNL     1       5.039   9.646  20.646  0.00  0.00     0.088 A 
HETATM    6  C   UNL     1       5.206   9.659  22.024  0.00  0.00     0.029 A 
HETATM    7  C   UNL     1       4.906  10.885  20.014  0.00  0.00     0.034 A 
HETATM    8  C   UNL     1       4.943  12.139  20.689  0.00  0.00     0.014 A 
HETATM    9  C   UNL     1       5.145  12.236  22.068  0.00  0.00    -0.023 A 
HETATM   10  C   UNL     1       5.306  10.967  22.700  0.00  0.00     0.028 A 
ENDROOT
BRANCH   9  11
HETATM   11  C   UNL     1       5.284  13.574  22.801  0.00  0.00    -0.003 A 
HETATM   12  C   UNL     1       4.104  14.297  23.122  0.00  0.00     0.014 A 
HETATM   13  C   UNL     1       4.092  15.522  23.839  0.00  0.00     0.001 A 
HETATM   14  C   UNL     1       5.247  16.066  24.357  0.00  0.00     0.002 A 
HETATM   15  C   UNL     1       6.441  15.414  24.052  0.00  0.00     0.026 A 
HETATM   16  C   UNL     1       6.467  14.230  23.248  0.00  0.00     0.090 A 
BRANCH  16  17
HETATM   17  S   UNL     1       8.117  13.945  22.626  0.00  0.00     0.261 S 
HETATM   18  O   UNL     1       8.038  13.702  21.207  0.00  0.00    -0.200 OA
HETATM   19  O   UNL     1       9.070  14.863  23.193  0.00  0.00    -0.200 OA
BRANCH  17  20
HETATM   20  N   UNL     1       8.469  12.462  23.399  0.00  0.00    -0.303 N 
HETATM   21  C   UNL     1       8.237  12.396  24.861  0.00  0.00     0.163 C 
HETATM   22  C   UNL     1       9.500  12.540  25.724  0.00  0.00     0.255 C 
HETATM   23  N   UNL     1      10.766  11.915  25.154  0.00  0.00    -0.072 N 
HETATM   24  H   UNL     1      10.770  10.940  25.481  0.00  0.00     0.279 HD
HETATM   25  C   UNL     1      12.010  12.568  25.722  0.00  0.00     0.269 C 
HETATM   26  C   UNL     1      10.888  11.883  23.639  0.00  0.00     0.255 C 
HETATM   27  C   UNL     1       9.575  11.625  22.904  0.00  0.00     0.163 C 
ENDBRANCH  17  20
ENDBRANCH  16  17
ENDBRANCH   9  11
BRANCH   1  28
HETATM   28  C   UNL     1       5.083   8.115  24.048  0.00  0.00     0.274 C 
HETATM   29  N   UNL     1       3.895   8.405  24.717  0.00  0.00    -0.342 N 
HETATM   30  C   UNL     1       2.594   8.759  24.156  0.00  0.00     0.161 C 
HETATM   31  C   UNL     1       3.801   8.273  26.171  0.00  0.00     0.139 C 
HETATM   32  C   UNL     1       1.643   8.233  25.197  0.00  0.00    -0.056 C 
HETATM   33  C   UNL     1       0.298   8.195  25.179  0.00  0.00    -0.018 C 
HETATM   34  C   UNL     1       2.404   7.711  26.398  0.00  0.00     0.056 C 
HETATM   35  C   UNL     1      -0.471   7.735  26.400  0.00  0.00     0.054 C 
HETATM   36  C   UNL     1       0.318   7.931  27.679  0.00  0.00    -0.026 C 
HETATM   37  C   UNL     1       1.666   7.981  27.680  0.00  0.00    -0.020 C 
HETATM   38  O   UNL     1       6.072   7.715  24.671  0.00  0.00    -0.266 OA
ENDBRANCH   1  28
BRANCH   3  39
HETATM   39  N   UNL     1       4.956   6.178  19.766  0.00  0.00    -0.231 N 
HETATM   40  H   UNL     1       4.927   6.341  18.770  0.00  0.00     0.174 HD
HETATM   41  H   UNL     1       4.335   5.484  20.154  0.00  0.00     0.174 HD
ENDBRANCH   3  39
TORSDOF 5
ENDMDL
MODEL 9
REMARK VINA RESULT:    -9.673      2.759      5.901
REMARK INTER + INTRA:         -12.855
REMARK INTER:                 -12.218
REMARK INTRA:                  -0.637
REMARK UNBOUND:                -0.637
REMARK  5 active torsions:
REMARK  status: ('A' for Active; 'I' for Inactive)
REMARK       I    between atoms: N_8  and  C_10 
REMARK    1  A    between atoms: C_10  and  C_12 
REMARK    2  A    between atoms: C_14  and  N_15 
REMARK    3  A    between atoms: C_21  and  C_23 
REMARK    4  A    between atoms: C_28  and  S_29 
REMARK    5  A    between atoms: S_29  and  N_32 
ROOT
HETATM    1  C   UNL     1       7.287   9.532  23.639  0.00  0.00     0.156 A 
HETATM    2  N   UNL     1       7.327   8.201  23.924  0.00  0.00    -0.057 NA
HETATM    3  C   UNL     1       8.500   7.603  23.794  0.00  0.00     0.721 A 
HETATM    4  N   UNL     1       9.609   8.235  23.409  0.00  0.00    -0.063 NA
HETATM    5  C   UNL     1       9.560   9.561  23.134  0.00  0.00     0.088 A 
HETATM    6  C   UNL     1       8.410  10.328  23.256  0.00  0.00     0.029 A 
HETATM    7  C   UNL     1      10.707  10.211  22.674  0.00  0.00     0.034 A 
HETATM    8  C   UNL     1      10.768  11.594  22.341  0.00  0.00     0.014 A 
HETATM    9  C   UNL     1       9.664  12.441  22.474  0.00  0.00    -0.023 A 
HETATM   10  C   UNL     1       8.504  11.773  22.969  0.00  0.00     0.028 A 
ENDROOT
BRANCH   9  11
HETATM   11  C   UNL     1       9.730  13.949  22.213  0.00  0.00    -0.003 A 
HETATM   12  C   UNL     1       8.904  14.498  21.195  0.00  0.00     0.014 A 
HETATM   13  C   UNL     1       8.836  15.882  20.887  0.00  0.00     0.001 A 
HETATM   14  C   UNL     1       9.521  16.820  21.628  0.00  0.00     0.002 A 
HETATM   15  C   UNL     1      10.369  16.339  22.624  0.00  0.00     0.026 A 
HETATM   16  C   UNL     1      10.514  14.937  22.875  0.00  0.00     0.090 A 
BRANCH  16  17
HETATM   17  S   UNL     1      12.001  14.631  23.816  0.00  0.00     0.261 S 
HETATM   18  O   UNL     1      12.856  13.755  23.053  0.00  0.00    -0.200 OA
HETATM   19  O   UNL     1      12.497  15.830  24.440  0.00  0.00    -0.200 OA
BRANCH  17  20
HETATM   20  N   UNL     1      11.347  13.734  25.115  0.00  0.00    -0.303 N 
HETATM   21  C   UNL     1      10.690  14.504  26.197  0.00  0.00     0.163 C 
HETATM   22  C   UNL     1      11.545  14.707  27.458  0.00  0.00     0.255 C 
HETATM   23  N   UNL     1      12.456  13.546  27.833  0.00  0.00    -0.072 N 
HETATM   24  H   UNL     1      11.892  12.927  28.431  0.00  0.00     0.279 HD
HETATM   25  C   UNL     1      13.628  14.010  28.674  0.00  0.00     0.269 C 
HETATM   26  C   UNL     1      12.990  12.701  26.688  0.00  0.00     0.255 C 
HETATM   27  C   UNL     1      12.001  12.487  25.545  0.00  0.00     0.163 C 
ENDBRANCH  17  20
ENDBRANCH  16  17
ENDBRANCH   9  11
BRANCH   1  28
HETATM   28  C   UNL     1       5.886  10.087  23.521  0.00  0.00     0.274 C 
HETATM   29  N   UNL     1       5.513  11.274  24.148  0.00  0.00    -0.342 N 
HETATM   30  C   UNL     1       6.359  12.256  24.822  0.00  0.00     0.161 C 
HETATM   31  C   UNL     1       4.129  11.746  24.099  0.00  0.00     0.139 C 
HETATM   32  C   UNL     1       5.592  13.535  24.613  0.00  0.00    -0.056 C 
HETATM   33  C   UNL     1       5.934  14.794  24.942  0.00  0.00    -0.018 C 
HETATM   34  C   UNL     1       4.262  13.255  23.947  0.00  0.00     0.056 C 
HETATM   35  C   UNL     1       4.948  15.929  24.753  0.00  0.00     0.054 C 
HETATM   36  C   UNL     1       3.511  15.445  24.773  0.00  0.00    -0.026 C 
HETATM   37  C   UNL     1       3.185  14.175  24.454  0.00  0.00    -0.020 C 
HETATM   38  O   UNL     1       5.058   9.423  22.890  0.00  0.00    -0.266 OA
ENDBRANCH   1  28
BRANCH   3  39
HETATM   39  N   UNL     1       8.553   6.250  24.049  0.00  0.00    -0.231 N 
HETATM   40  H   UNL     1       7.690   5.763  23.859  0.00  0.00     0.174 HD
HETATM   41  H   UNL     1       9.061   6.013  24.888  0.00  0.00     0.174 HD
ENDBRANCH   3  39
TORSDOF 5
ENDMDL
