MODEL 1
REMARK VINA RESULT:     4.993      0.000      0.000
REMARK INTER + INTRA:           7.052
REMARK INTER:                   4.536
REMARK INTRA:                   2.517
REMARK UNBOUND:                 0.891
REMARK  9 active torsions:
REMARK  status: ('A' for Active; 'I' for Inactive)
REMARK    1  A    between atoms: N_2  and  C_4 
REMARK    2  A    between atoms: C_4  and  C_5 
REMARK    3  A    between atoms: C_5  and  N_6 
REMARK    4  A    between atoms: N_6  and  C_7 
REMARK    5  A    between atoms: C_20  and  O_21 
REMARK    6  A    between atoms: C_23  and  O_24 
REMARK    7  A    between atoms: O_24  and  C_25 
REMARK       I    between atoms: C_25  and  N_26 
REMARK    8  A    between atoms: C_33  and  O_34 
REMARK    9  A    between atoms: C_35  and  O_36 
ROOT
HETATM    1  C   UNL     1       5.181   5.380  27.267  0.00  0.00     0.066 C 
HETATM    2  C   UNL     1       4.781   4.490  28.880  0.00  0.00     0.182 C 
HETATM    3  O   UNL     1       4.852   3.263  29.051  0.00  0.00    -0.290 OA
HETATM    4  C   UNL     1       4.639   5.024  30.215  0.00  0.00     0.133 C 
HETATM    5  C   UNL     1       4.072   6.053  29.650  0.00  0.00     0.076 C 
HETATM    6  N   UNL     1       2.887   6.227  30.233  0.00  0.00    -0.326 N 
HETATM    7  C   UNL     1       2.490   7.444  29.986  0.00  0.00     0.232 C 
HETATM    8  O   UNL     1       3.160   8.446  30.138  0.00  0.00    -0.272 OA
HETATM    9  C   UNL     1       1.410   7.204  29.058  0.00  0.00     0.062 C 
HETATM   10  C   UNL     1       0.260   7.198  29.963  0.00  0.00     0.027 C 
HETATM   11  C   UNL     1       1.826   7.827  27.963  0.00  0.00     0.035 C 
HETATM   12  C   UNL     1       1.408   9.155  27.807  0.00  0.00    -0.021 C 
HETATM   13  C   UNL     1       1.195   9.460  26.547  0.00  0.00     0.004 C 
HETATM   14  C   UNL     1       0.046  10.311  26.236  0.00  0.00     0.177 C 
HETATM   15  C   UNL     1       0.099  10.585  24.800  0.00  0.00     0.194 C 
HETATM   16  C   UNL     1      -0.929  11.518  24.271  0.00  0.00    -0.055 C 
HETATM   17  C   UNL     1      -1.736  12.302  25.254  0.00  0.00     0.046 C 
HETATM   18  C   UNL     1      -1.136  11.593  22.945  0.00  0.00    -0.015 C 
HETATM   19  C   UNL     1      -1.708  12.824  22.375  0.00  0.00     0.035 C 
HETATM   20  C   UNL     1      -3.160  12.672  22.090  0.00  0.00     0.017 C 
HETATM   21  C   UNL     1      -0.571  13.256  21.446  0.00  0.00     0.154 C 
HETATM   22  C   UNL     1       0.796  13.392  22.694  0.00  0.00     0.150 C 
HETATM   23  C   UNL     1       1.886  12.063  23.804  0.00  0.00     0.039 C 
HETATM   24  C   UNL     1       3.056  10.369  24.306  0.00  0.00    -0.012 C 
HETATM   25  C   UNL     1       3.309  10.731  22.453  0.00  0.00     0.010 C 
HETATM   26  C   UNL     1       3.853   8.559  25.271  0.00  0.00     0.049 C 
HETATM   27  C   UNL     1       4.569   7.059  26.720  0.00  0.00     0.019 C 
HETATM   28  C   UNL     1       4.779   7.051  28.400  0.00  0.00     0.203 C 
HETATM   29  O   UNL     1       5.923   7.393  28.755  0.00  0.00    -0.286 OA
HETATM   30  H   UNL     1       2.455   5.666  30.971  0.00  0.00     0.168 HD
ENDROOT
BRANCH   1  31
HETATM   31  N   UNL     1       6.650   4.153  27.523  0.00  0.00    -0.288 NA
HETATM   32  H   UNL     1       7.279   4.971  27.568  0.00  0.00     0.127 HD
BRANCH  31  33
HETATM   33  C   UNL     1       8.008   3.629  28.810  0.00  0.00     0.112 C 
BRANCH  33  34
HETATM   34  C   UNL     1       8.605   3.504  30.675  0.00  0.00     0.130 C 
BRANCH  34  35
HETATM   35  N   UNL     1       8.157   3.886  32.163  0.00  0.00    -0.420 N 
HETATM   36  C   UNL     1       8.481   5.214  32.676  0.00  0.00     0.142 C 
HETATM   37  C   UNL     1       6.830   3.493  32.659  0.00  0.00     0.142 C 
ENDBRANCH  34  35
ENDBRANCH  33  34
ENDBRANCH  31  33
ENDBRANCH   1  31
BRANCH  22  38
HETATM   38  O   UNL     1       0.782  15.116  22.655  0.00  0.00    -0.388 OA
HETATM   39  C   UNL     1       1.542  16.116  23.594  0.00  0.00     0.202 C 
ENDBRANCH  22  38
BRANCH  21  40
HETATM   40  O   UNL     1      -0.603  12.595  20.169  0.00  0.00    -0.392 OA
HETATM   41  H   UNL     1      -0.160  13.053  19.446  0.00  0.00     0.210 HD
ENDBRANCH  21  40
BRANCH  14  42
HETATM   42  O   UNL     1      -1.177   9.642  26.303  0.00  0.00    -0.384 OA
HETATM   43  C   UNL     1      -1.755   9.807  27.543  0.00  0.00     0.202 C 
ENDBRANCH  14  42
BRANCH  15  44
HETATM   44  O   UNL     1       0.378   9.465  23.917  0.00  0.00    -0.291 OA
BRANCH  44  45
HETATM   45  C   UNL     1       0.021   8.247  24.383  0.00  0.00     0.359 C 
HETATM   46  N   UNL     1       0.995   7.331  24.198  0.00  0.00    -0.346 N 
HETATM   47  H   UNL     1       1.944   7.549  23.947  0.00  0.00     0.161 HD
HETATM   48  H   UNL     1       0.676   6.377  24.280  0.00  0.00     0.161 HD
HETATM   49  O   UNL     1      -1.077   7.881  24.773  0.00  0.00    -0.239 OA
ENDBRANCH  44  45
ENDBRANCH  15  44
TORSDOF 9
ENDMDL
MODEL 2
REMARK VINA RESULT:     6.099      2.557      4.780
REMARK INTER + INTRA:           8.416
REMARK INTER:                   7.585
REMARK INTRA:                   0.831
REMARK UNBOUND:                 0.891
REMARK  9 active torsions:
REMARK  status: ('A' for Active; 'I' for Inactive)
REMARK    1  A    between atoms: N_2  and  C_4 
REMARK    2  A    between atoms: C_4  and  C_5 
REMARK    3  A    between atoms: C_5  and  N_6 
REMARK    4  A    between atoms: N_6  and  C_7 
REMARK    5  A    between atoms: C_20  and  O_21 
REMARK    6  A    between atoms: C_23  and  O_24 
REMARK    7  A    between atoms: O_24  and  C_25 
REMARK       I    between atoms: C_25  and  N_26 
REMARK    8  A    between atoms: C_33  and  O_34 
REMARK    9  A    between atoms: C_35  and  O_36 
ROOT
HETATM    1  C   UNL     1       4.354   5.119  27.446  0.00  0.00     0.066 C 
HETATM    2  C   UNL     1       5.893   4.265  26.769  0.00  0.00     0.182 C 
HETATM    3  O   UNL     1       6.869   3.916  27.449  0.00  0.00    -0.290 OA
HETATM    4  C   UNL     1       6.097   3.608  25.498  0.00  0.00     0.133 C 
HETATM    5  C   UNL     1       5.356   4.553  24.989  0.00  0.00     0.076 C 
HETATM    6  N   UNL     1       6.046   5.110  23.995  0.00  0.00    -0.326 N 
HETATM    7  C   UNL     1       5.207   5.753  23.231  0.00  0.00     0.232 C 
HETATM    8  O   UNL     1       4.169   5.301  22.791  0.00  0.00    -0.272 OA
HETATM    9  C   UNL     1       5.547   7.124  23.532  0.00  0.00     0.062 C 
HETATM   10  C   UNL     1       6.489   7.423  22.454  0.00  0.00     0.027 C 
HETATM   11  C   UNL     1       4.417   7.596  24.043  0.00  0.00     0.035 C 
HETATM   12  C   UNL     1       3.540   8.215  23.141  0.00  0.00    -0.021 C 
HETATM   13  C   UNL     1       2.898   9.220  23.690  0.00  0.00     0.004 C 
HETATM   14  C   UNL     1       2.686  10.419  22.878  0.00  0.00     0.177 C 
HETATM   15  C   UNL     1       1.864  11.330  23.675  0.00  0.00     0.194 C 
HETATM   16  C   UNL     1       1.440  12.587  23.007  0.00  0.00    -0.055 C 
HETATM   17  C   UNL     1       1.638  12.696  21.529  0.00  0.00     0.046 C 
HETATM   18  C   UNL     1       0.944  13.595  23.744  0.00  0.00    -0.015 C 
HETATM   19  C   UNL     1       0.050  14.578  23.111  0.00  0.00     0.035 C 
HETATM   20  C   UNL     1       0.767  15.837  22.777  0.00  0.00     0.017 C 
HETATM   21  C   UNL     1      -1.223  14.370  23.935  0.00  0.00     0.154 C 
HETATM   22  C   UNL     1      -1.494  12.562  23.609  0.00  0.00     0.150 C 
HETATM   23  C   UNL     1      -0.561  10.830  24.168  0.00  0.00     0.039 C 
HETATM   24  C   UNL     1       0.367   9.366  25.388  0.00  0.00    -0.012 C 
HETATM   25  C   UNL     1      -0.792  10.402  26.489  0.00  0.00     0.010 C 
HETATM   26  C   UNL     1       1.755   7.874  26.217  0.00  0.00     0.049 C 
HETATM   27  C   UNL     1       3.144   6.185  26.501  0.00  0.00     0.019 C 
HETATM   28  C   UNL     1       3.731   4.960  25.490  0.00  0.00     0.203 C 
HETATM   29  O   UNL     1       3.048   3.920  25.528  0.00  0.00    -0.286 OA
HETATM   30  H   UNL     1       6.992   4.885  23.674  0.00  0.00     0.168 HD
ENDROOT
BRANCH   1  31
HETATM   31  N   UNL     1       4.673   3.654  28.663  0.00  0.00    -0.288 NA
HETATM   32  H   UNL     1       5.652   3.974  28.736  0.00  0.00     0.127 HD
BRANCH  31  33
HETATM   33  C   UNL     1       5.158   3.263  30.504  0.00  0.00     0.112 C 
BRANCH  33  34
HETATM   34  C   UNL     1       6.185   3.725  32.112  0.00  0.00     0.130 C 
BRANCH  34  35
HETATM   35  N   UNL     1       7.207   4.819  32.676  0.00  0.00    -0.420 N 
HETATM   36  C   UNL     1       8.625   4.688  32.353  0.00  0.00     0.142 C 
HETATM   37  C   UNL     1       6.843   6.244  32.666  0.00  0.00     0.142 C 
ENDBRANCH  34  35
ENDBRANCH  33  34
ENDBRANCH  31  33
ENDBRANCH   1  31
BRANCH  22  38
HETATM   38  O   UNL     1      -2.827  12.860  22.556  0.00  0.00    -0.388 OA
HETATM   39  C   UNL     1      -2.798  13.337  21.062  0.00  0.00     0.202 C 
ENDBRANCH  22  38
BRANCH  21  40
HETATM   40  O   UNL     1      -1.221  15.101  25.174  0.00  0.00    -0.392 OA
HETATM   41  H   UNL     1      -1.788  14.753  25.870  0.00  0.00     0.210 HD
ENDBRANCH  21  40
BRANCH  14  42
HETATM   42  O   UNL     1       3.831  11.202  22.732  0.00  0.00    -0.384 OA
HETATM   43  C   UNL     1       4.726  10.602  21.873  0.00  0.00     0.202 C 
ENDBRANCH  14  42
BRANCH  15  44
HETATM   44  O   UNL     1       2.226  11.506  25.071  0.00  0.00    -0.291 OA
BRANCH  44  45
HETATM   45  C   UNL     1       3.430  12.079  25.298  0.00  0.00     0.359 C 
HETATM   46  N   UNL     1       4.364  11.168  25.646  0.00  0.00    -0.346 N 
HETATM   47  H   UNL     1       4.256  10.173  25.547  0.00  0.00     0.161 HD
HETATM   48  H   UNL     1       5.183  11.571  26.076  0.00  0.00     0.161 HD
HETATM   49  O   UNL     1       3.696  13.269  25.376  0.00  0.00    -0.239 OA
ENDBRANCH  44  45
ENDBRANCH  15  44
TORSDOF 9
ENDMDL
MODEL 3
REMARK VINA RESULT:     6.139      2.776      5.105
REMARK INTER + INTRA:           8.466
REMARK INTER:                   6.973
REMARK INTRA:                   1.493
REMARK UNBOUND:                 0.891
REMARK  9 active torsions:
REMARK  status: ('A' for Active; 'I' for Inactive)
REMARK    1  A    between atoms: N_2  and  C_4 
REMARK    2  A    between atoms: C_4  and  C_5 
REMARK    3  A    between atoms: C_5  and  N_6 
REMARK    4  A    between atoms: N_6  and  C_7 
REMARK    5  A    between atoms: C_20  and  O_21 
REMARK    6  A    between atoms: C_23  and  O_24 
REMARK    7  A    between atoms: O_24  and  C_25 
REMARK       I    between atoms: C_25  and  N_26 
REMARK    8  A    between atoms: C_33  and  O_34 
REMARK    9  A    between atoms: C_35  and  O_36 
ROOT
HETATM    1  C   UNL     1       4.371   5.345  27.907  0.00  0.00     0.066 C 
HETATM    2  C   UNL     1       5.951   4.485  27.342  0.00  0.00     0.182 C 
HETATM    3  O   UNL     1       6.894   4.172  28.084  0.00  0.00    -0.290 OA
HETATM    4  C   UNL     1       6.226   3.785  26.108  0.00  0.00     0.133 C 
HETATM    5  C   UNL     1       5.504   4.703  25.528  0.00  0.00     0.076 C 
HETATM    6  N   UNL     1       6.239   5.231  24.550  0.00  0.00    -0.326 N 
HETATM    7  C   UNL     1       5.434   5.837  23.722  0.00  0.00     0.232 C 
HETATM    8  O   UNL     1       4.424   5.357  23.246  0.00  0.00    -0.272 OA
HETATM    9  C   UNL     1       5.745   7.221  23.989  0.00  0.00     0.062 C 
HETATM   10  C   UNL     1       6.739   7.492  22.950  0.00  0.00     0.027 C 
HETATM   11  C   UNL     1       4.586   7.699  24.424  0.00  0.00     0.035 C 
HETATM   12  C   UNL     1       3.750   8.275  23.456  0.00  0.00    -0.021 C 
HETATM   13  C   UNL     1       3.071   9.292  23.934  0.00  0.00     0.004 C 
HETATM   14  C   UNL     1       2.890  10.458  23.070  0.00  0.00     0.177 C 
HETATM   15  C   UNL     1       2.020  11.387  23.789  0.00  0.00     0.194 C 
HETATM   16  C   UNL     1       1.619  12.615  23.055  0.00  0.00    -0.055 C 
HETATM   17  C   UNL     1       1.891  12.673  21.586  0.00  0.00     0.046 C 
HETATM   18  C   UNL     1       1.075  13.643  23.728  0.00  0.00    -0.015 C 
HETATM   19  C   UNL     1       0.206  14.593  23.015  0.00  0.00     0.035 C 
HETATM   20  C   UNL     1       0.928  15.846  22.672  0.00  0.00     0.017 C 
HETATM   21  C   UNL     1      -1.106  14.399  23.780  0.00  0.00     0.154 C 
HETATM   22  C   UNL     1      -1.342  12.578  23.506  0.00  0.00     0.150 C 
HETATM   23  C   UNL     1      -0.422  10.878  24.175  0.00  0.00     0.039 C 
HETATM   24  C   UNL     1       0.455   9.470  25.494  0.00  0.00    -0.012 C 
HETATM   25  C   UNL     1      -0.769  10.532  26.496  0.00  0.00     0.010 C 
HETATM   26  C   UNL     1       1.813   8.025  26.447  0.00  0.00     0.049 C 
HETATM   27  C   UNL     1       3.201   6.363  26.864  0.00  0.00     0.019 C 
HETATM   28  C   UNL     1       3.852   5.109  25.929  0.00  0.00     0.203 C 
HETATM   29  O   UNL     1       3.177   4.063  25.971  0.00  0.00    -0.286 OA
HETATM   30  H   UNL     1       7.202   5.005  24.287  0.00  0.00     0.168 HD
ENDROOT
BRANCH   1  31
HETATM   31  N   UNL     1       4.641   3.929  29.193  0.00  0.00    -0.288 NA
HETATM   32  H   UNL     1       4.945   4.648  29.868  0.00  0.00     0.127 HD
BRANCH  31  33
HETATM   33  C   UNL     1       4.003   3.263  30.903  0.00  0.00     0.112 C 
BRANCH  33  34
HETATM   34  C   UNL     1       2.649   3.287  32.323  0.00  0.00     0.130 C 
BRANCH  34  35
HETATM   35  N   UNL     1       1.208   3.889  32.671  0.00  0.00    -0.420 N 
HETATM   36  C   UNL     1       1.034   5.339  32.676  0.00  0.00     0.142 C 
HETATM   37  C   UNL     1      -0.005   3.263  32.125  0.00  0.00     0.142 C 
ENDBRANCH  34  35
ENDBRANCH  33  34
ENDBRANCH  31  33
ENDBRANCH   1  31
BRANCH  22  38
HETATM   38  O   UNL     1      -2.622  12.823  22.376  0.00  0.00    -0.388 OA
HETATM   39  C   UNL     1      -2.518  13.173  20.851  0.00  0.00     0.202 C 
ENDBRANCH  22  38
BRANCH  21  40
HETATM   40  O   UNL     1      -1.174  15.175  24.989  0.00  0.00    -0.392 OA
HETATM   41  H   UNL     1      -0.425  15.755  25.161  0.00  0.00     0.210 HD
ENDBRANCH  21  40
BRANCH  14  42
HETATM   42  O   UNL     1       4.034  11.249  22.953  0.00  0.00    -0.384 OA
HETATM   43  C   UNL     1       5.099  10.501  22.503  0.00  0.00     0.202 C 
ENDBRANCH  14  42
BRANCH  15  44
HETATM   44  O   UNL     1       2.307  11.618  25.194  0.00  0.00    -0.291 OA
BRANCH  44  45
HETATM   45  C   UNL     1       3.314  12.483  25.454  0.00  0.00     0.359 C 
HETATM   46  N   UNL     1       4.463  11.843  25.759  0.00  0.00    -0.346 N 
HETATM   47  H   UNL     1       4.627  10.862  25.611  0.00  0.00     0.161 HD
HETATM   48  H   UNL     1       5.147  12.431  26.212  0.00  0.00     0.161 HD
HETATM   49  O   UNL     1       3.250  13.695  25.592  0.00  0.00    -0.239 OA
ENDBRANCH  44  45
ENDBRANCH  15  44
TORSDOF 9
ENDMDL
