MODEL 1
REMARK VINA RESULT:    -7.500      0.000      0.000
REMARK INTER + INTRA:         -10.769
REMARK INTER:                  -9.982
REMARK INTRA:                  -0.787
REMARK UNBOUND:                -0.858
REMARK  6 active torsions:
REMARK  status: ('A' for Active; 'I' for Inactive)
REMARK    1  A    between atoms: O_2  and  C_3 
REMARK    2  A    between atoms: C_3  and  C_4 
REMARK    3  A    between atoms: C_11  and  C_15 
REMARK    4  A    between atoms: C_12  and  O_14 
REMARK       I    between atoms: C_15  and  N_17 
REMARK    5  A    between atoms: N_17  and  C_19 
REMARK    6  A    between atoms: C_22  and  N_25 
ROOT
HETATM    1  C   UNL     1       6.203  13.587  24.650  0.00  0.00     0.260 C 
HETATM    2  O   UNL     1       6.007  12.418  24.996  0.00  0.00    -0.267 OA
HETATM    3  N   UNL     1       5.162  14.437  24.204  0.00  0.00    -0.318 N 
HETATM    4  C   UNL     1       5.359  15.763  23.614  0.00  0.00     0.159 C 
ENDROOT
BRANCH   1   5
HETATM    5  C   UNL     1       7.635  14.008  24.749  0.00  0.00     0.066 A 
HETATM    6  C   UNL     1       8.347  13.990  23.525  0.00  0.00     0.035 A 
HETATM    7  C   UNL     1       9.675  14.469  23.462  0.00  0.00     0.022 A 
HETATM    8  C   UNL     1      10.648  14.698  22.447  0.00  0.00     0.090 A 
HETATM    9  C   UNL     1      10.282  14.887  24.639  0.00  0.00     0.065 A 
HETATM   10  N   UNL     1      11.803  15.145  22.965  0.00  0.00    -0.176 NA
HETATM   11  N   UNL     1      11.545  15.264  24.277  0.00  0.00    -0.277 N 
HETATM   12  H   UNL     1      12.280  15.620  24.878  0.00  0.00     0.189 HD
HETATM   13  C   UNL     1       9.620  14.919  25.868  0.00  0.00     0.069 A 
HETATM   14  C   UNL     1       8.267  14.545  25.877  0.00  0.00     0.083 A 
BRANCH   8  15
HETATM   15  C   UNL     1      10.501  14.512  20.967  0.00  0.00     0.228 C 
BRANCH  15  16
HETATM   16  O   UNL     1       9.400  15.264  20.438  0.00  0.00    -0.390 OA
HETATM   17  C   UNL     1       8.470  14.423  19.769  0.00  0.00     0.201 C 
ENDBRANCH  15  16
ENDBRANCH   8  15
BRANCH  14  18
HETATM   18  O   UNL     1       7.615  14.840  27.043  0.00  0.00    -0.360 OA
HETATM   19  H   UNL     1       7.906  14.186  27.706  0.00  0.00     0.217 HD
ENDBRANCH  14  18
ENDBRANCH   1   5
BRANCH   3  20
HETATM   20  C   UNL     1       3.792  13.984  24.295  0.00  0.00     0.037 A 
HETATM   21  C   UNL     1       2.988  14.308  25.394  0.00  0.00     0.032 A 
HETATM   22  C   UNL     1       1.658  13.866  25.492  0.00  0.00     0.031 A 
HETATM   23  C   UNL     1       1.069  13.074  24.504  0.00  0.00     0.030 A 
HETATM   24  C   UNL     1       1.871  12.780  23.391  0.00  0.00     0.031 A 
HETATM   25  C   UNL     1       3.198  13.233  23.276  0.00  0.00     0.032 A 
BRANCH  23  26
HETATM   26  N   UNL     1      -0.241  12.646  24.565  0.00  0.00    -0.377 N 
HETATM   27  C   UNL     1      -1.172  12.748  23.430  0.00  0.00     0.149 C 
HETATM   28  C   UNL     1      -2.102  11.521  23.458  0.00  0.00     0.187 C 
HETATM   29  O   UNL     1      -2.798  11.397  24.713  0.00  0.00    -0.388 OA
HETATM   30  C   UNL     1      -1.860  11.301  25.801  0.00  0.00     0.187 C 
HETATM   31  C   UNL     1      -0.943  12.532  25.858  0.00  0.00     0.149 C 
ENDBRANCH  23  26
ENDBRANCH   3  20
TORSDOF 6
ENDMDL
MODEL 2
REMARK VINA RESULT:    -7.450      2.174      2.735
REMARK INTER + INTRA:         -10.703
REMARK INTER:                 -10.097
REMARK INTRA:                  -0.606
REMARK UNBOUND:                -0.858
REMARK  6 active torsions:
REMARK  status: ('A' for Active; 'I' for Inactive)
REMARK    1  A    between atoms: O_2  and  C_3 
REMARK    2  A    between atoms: C_3  and  C_4 
REMARK    3  A    between atoms: C_11  and  C_15 
REMARK    4  A    between atoms: C_12  and  O_14 
REMARK       I    between atoms: C_15  and  N_17 
REMARK    5  A    between atoms: N_17  and  C_19 
REMARK    6  A    between atoms: C_22  and  N_25 
ROOT
HETATM    1  C   UNL     1       7.957  13.759  23.686  0.00  0.00     0.260 C 
HETATM    2  O   UNL     1       7.650  12.853  24.467  0.00  0.00    -0.267 OA
HETATM    3  N   UNL     1       6.999  14.470  22.924  0.00  0.00    -0.318 N 
HETATM    4  C   UNL     1       7.317  15.422  21.858  0.00  0.00     0.159 C 
ENDROOT
BRANCH   1   5
HETATM    5  C   UNL     1       9.429  14.025  23.629  0.00  0.00     0.066 A 
HETATM    6  C   UNL     1      10.124  13.310  22.623  0.00  0.00     0.035 A 
HETATM    7  C   UNL     1      11.496  13.553  22.391  0.00  0.00     0.022 A 
HETATM    8  C   UNL     1      12.481  13.130  21.452  0.00  0.00     0.090 A 
HETATM    9  C   UNL     1      12.157  14.451  23.220  0.00  0.00     0.065 A 
HETATM   10  N   UNL     1      13.683  13.660  21.727  0.00  0.00    -0.176 NA
HETATM   11  N   UNL     1      13.451  14.460  22.781  0.00  0.00    -0.277 N 
HETATM   12  H   UNL     1      14.226  14.997  23.152  0.00  0.00     0.189 HD
HETATM   13  C   UNL     1      11.513  15.175  24.226  0.00  0.00     0.069 A 
HETATM   14  C   UNL     1      10.127  14.996  24.356  0.00  0.00     0.083 A 
BRANCH   8  15
HETATM   15  C   UNL     1      12.302  12.229  20.268  0.00  0.00     0.228 C 
BRANCH  15  16
HETATM   16  O   UNL     1      13.302  11.202  20.219  0.00  0.00    -0.390 OA
HETATM   17  C   UNL     1      12.963  10.105  21.057  0.00  0.00     0.201 C 
ENDBRANCH  15  16
ENDBRANCH   8  15
BRANCH  14  18
HETATM   18  O   UNL     1       9.522  15.912  25.174  0.00  0.00    -0.360 OA
HETATM   19  H   UNL     1       9.784  15.694  26.088  0.00  0.00     0.217 HD
ENDBRANCH  14  18
ENDBRANCH   1   5
BRANCH   3  20
HETATM   20  C   UNL     1       5.592  14.245  23.169  0.00  0.00     0.037 A 
HETATM   21  C   UNL     1       4.765  15.262  23.660  0.00  0.00     0.032 A 
HETATM   22  C   UNL     1       3.399  15.047  23.908  0.00  0.00     0.031 A 
HETATM   23  C   UNL     1       2.794  13.809  23.685  0.00  0.00     0.030 A 
HETATM   24  C   UNL     1       3.622  12.804  23.163  0.00  0.00     0.031 A 
HETATM   25  C   UNL     1       4.987  13.014  22.896  0.00  0.00     0.032 A 
BRANCH  23  26
HETATM   26  N   UNL     1       1.450  13.579  23.897  0.00  0.00    -0.377 N 
HETATM   27  C   UNL     1       0.477  13.445  22.802  0.00  0.00     0.149 C 
HETATM   28  C   UNL     1      -0.579  12.404  23.219  0.00  0.00     0.187 C 
HETATM   29  O   UNL     1      -1.215  12.747  24.465  0.00  0.00    -0.388 OA
HETATM   30  C   UNL     1      -0.236  12.870  25.513  0.00  0.00     0.187 C 
HETATM   31  C   UNL     1       0.811  13.943  25.176  0.00  0.00     0.149 C 
ENDBRANCH  23  26
ENDBRANCH   3  20
TORSDOF 6
ENDMDL
MODEL 3
REMARK VINA RESULT:    -7.401      2.428      3.828
REMARK INTER + INTRA:         -10.638
REMARK INTER:                  -9.805
REMARK INTRA:                  -0.833
REMARK UNBOUND:                -0.858
REMARK  6 active torsions:
REMARK  status: ('A' for Active; 'I' for Inactive)
REMARK    1  A    between atoms: O_2  and  C_3 
REMARK    2  A    between atoms: C_3  and  C_4 
REMARK    3  A    between atoms: C_11  and  C_15 
REMARK    4  A    between atoms: C_12  and  O_14 
REMARK       I    between atoms: C_15  and  N_17 
REMARK    5  A    between atoms: N_17  and  C_19 
REMARK    6  A    between atoms: C_22  and  N_25 
ROOT
HETATM    1  C   UNL     1       7.998  14.531  21.993  0.00  0.00     0.260 C 
HETATM    2  O   UNL     1       7.304  14.401  20.980  0.00  0.00    -0.267 OA
HETATM    3  N   UNL     1       7.446  14.620  23.293  0.00  0.00    -0.318 N 
HETATM    4  C   UNL     1       8.201  14.953  24.503  0.00  0.00     0.159 C 
ENDROOT
BRANCH   1   5
HETATM    5  C   UNL     1       9.466  14.583  21.709  0.00  0.00     0.066 A 
HETATM    6  C   UNL     1      10.097  13.319  21.601  0.00  0.00     0.035 A 
HETATM    7  C   UNL     1      11.456  13.227  21.227  0.00  0.00     0.022 A 
HETATM    8  C   UNL     1      12.382  12.185  20.928  0.00  0.00     0.090 A 
HETATM    9  C   UNL     1      12.171  14.403  21.041  0.00  0.00     0.065 A 
HETATM   10  N   UNL     1      13.603  12.674  20.658  0.00  0.00    -0.176 NA
HETATM   11  N   UNL     1      13.438  14.006  20.717  0.00  0.00    -0.277 N 
HETATM   12  H   UNL     1      14.238  14.595  20.516  0.00  0.00     0.189 HD
HETATM   13  C   UNL     1      11.592  15.670  21.140  0.00  0.00     0.069 A 
HETATM   14  C   UNL     1      10.214  15.726  21.400  0.00  0.00     0.083 A 
BRANCH   8  15
HETATM   15  C   UNL     1      12.127  10.709  20.878  0.00  0.00     0.228 C 
BRANCH  15  16
HETATM   16  O   UNL     1      12.824  10.009  21.918  0.00  0.00    -0.390 OA
HETATM   17  C   UNL     1      12.335  10.368  23.204  0.00  0.00     0.201 C 
ENDBRANCH  15  16
ENDBRANCH   8  15
BRANCH  14  18
HETATM   18  O   UNL     1       9.664  16.968  21.231  0.00  0.00    -0.360 OA
HETATM   19  H   UNL     1       9.204  16.961  20.371  0.00  0.00     0.217 HD
ENDBRANCH  14  18
ENDBRANCH   1   5
BRANCH   3  20
HETATM   20  C   UNL     1       6.028  14.400  23.475  0.00  0.00     0.037 A 
HETATM   21  C   UNL     1       5.492  13.109  23.539  0.00  0.00     0.032 A 
HETATM   22  C   UNL     1       4.114  12.888  23.708  0.00  0.00     0.031 A 
HETATM   23  C   UNL     1       3.207  13.944  23.815  0.00  0.00     0.030 A 
HETATM   24  C   UNL     1       3.755  15.234  23.781  0.00  0.00     0.031 A 
HETATM   25  C   UNL     1       5.134  15.464  23.630  0.00  0.00     0.032 A 
BRANCH  23  26
HETATM   26  N   UNL     1       1.853  13.754  24.005  0.00  0.00    -0.377 N 
HETATM   27  C   UNL     1       0.910  13.538  22.895  0.00  0.00     0.149 C 
HETATM   28  C   UNL     1      -0.175  12.554  23.369  0.00  0.00     0.187 C 
HETATM   29  O   UNL     1      -0.842  13.015  24.560  0.00  0.00    -0.388 OA
HETATM   30  C   UNL     1       0.107  13.216  25.623  0.00  0.00     0.187 C 
HETATM   31  C   UNL     1       1.183  14.239  25.225  0.00  0.00     0.149 C 
ENDBRANCH  23  26
ENDBRANCH   3  20
TORSDOF 6
ENDMDL
MODEL 4
REMARK VINA RESULT:    -7.382      2.375      9.827
REMARK INTER + INTRA:         -10.614
REMARK INTER:                  -9.851
REMARK INTRA:                  -0.763
REMARK UNBOUND:                -0.858
REMARK  6 active torsions:
REMARK  status: ('A' for Active; 'I' for Inactive)
REMARK    1  A    between atoms: O_2  and  C_3 
REMARK    2  A    between atoms: C_3  and  C_4 
REMARK    3  A    between atoms: C_11  and  C_15 
REMARK    4  A    between atoms: C_12  and  O_14 
REMARK       I    between atoms: C_15  and  N_17 
REMARK    5  A    between atoms: N_17  and  C_19 
REMARK    6  A    between atoms: C_22  and  N_25 
ROOT
HETATM    1  C   UNL     1       2.744  12.232  23.937  0.00  0.00     0.260 C 
HETATM    2  O   UNL     1       3.411  11.546  23.156  0.00  0.00    -0.267 OA
HETATM    3  N   UNL     1       3.277  13.353  24.616  0.00  0.00    -0.318 N 
HETATM    4  C   UNL     1       2.594  14.089  25.682  0.00  0.00     0.159 C 
ENDROOT
BRANCH   1   5
HETATM    5  C   UNL     1       1.332  11.761  24.090  0.00  0.00     0.066 A 
HETATM    6  C   UNL     1       0.393  12.417  23.257  0.00  0.00     0.035 A 
HETATM    7  C   UNL     1      -0.954  11.992  23.225  0.00  0.00     0.022 A 
HETATM    8  C   UNL     1      -2.126  12.314  22.481  0.00  0.00     0.090 A 
HETATM    9  C   UNL     1      -1.344  10.969  24.080  0.00  0.00     0.065 A 
HETATM   10  N   UNL     1      -3.186  11.605  22.901  0.00  0.00    -0.176 NA
HETATM   11  N   UNL     1      -2.680  10.796  23.847  0.00  0.00    -0.277 N 
HETATM   12  H   UNL     1      -3.305  10.136  24.295  0.00  0.00     0.189 HD
HETATM   13  C   UNL     1      -0.454  10.297  24.920  0.00  0.00     0.069 A 
HETATM   14  C   UNL     1       0.898  10.665  24.846  0.00  0.00     0.083 A 
BRANCH   8  15
HETATM   15  C   UNL     1      -2.265  13.289  21.351  0.00  0.00     0.228 C 
BRANCH  15  16
HETATM   16  O   UNL     1      -3.625  13.703  21.164  0.00  0.00    -0.390 OA
HETATM   17  C   UNL     1      -3.798  14.377  19.924  0.00  0.00     0.201 C 
ENDBRANCH  15  16
ENDBRANCH   8  15
BRANCH  14  18
HETATM   18  O   UNL     1       1.746   9.808  25.493  0.00  0.00    -0.360 OA
HETATM   19  H   UNL     1       2.001  10.237  26.332  0.00  0.00     0.217 HD
ENDBRANCH  14  18
ENDBRANCH   1   5
BRANCH   3  20
HETATM   20  C   UNL     1       4.604  13.820  24.279  0.00  0.00     0.037 A 
HETATM   21  C   UNL     1       5.747  13.226  24.828  0.00  0.00     0.032 A 
HETATM   22  C   UNL     1       7.039  13.679  24.511  0.00  0.00     0.031 A 
HETATM   23  C   UNL     1       7.252  14.749  23.639  0.00  0.00     0.030 A 
HETATM   24  C   UNL     1       6.103  15.317  23.069  0.00  0.00     0.031 A 
HETATM   25  C   UNL     1       4.807  14.859  23.367  0.00  0.00     0.032 A 
BRANCH  23  26
HETATM   26  N   UNL     1       8.510  15.197  23.293  0.00  0.00    -0.377 N 
HETATM   27  C   UNL     1       8.935  15.398  21.899  0.00  0.00     0.149 C 
HETATM   28  C   UNL     1       9.875  16.617  21.851  0.00  0.00     0.187 C 
HETATM   29  O   UNL     1      10.999  16.469  22.739  0.00  0.00    -0.388 OA
HETATM   30  C   UNL     1      10.549  16.274  24.092  0.00  0.00     0.187 C 
HETATM   31  C   UNL     1       9.653  15.031  24.210  0.00  0.00     0.149 C 
ENDBRANCH  23  26
ENDBRANCH   3  20
TORSDOF 6
ENDMDL
MODEL 5
REMARK VINA RESULT:    -7.272      1.915      3.433
REMARK INTER + INTRA:         -10.468
REMARK INTER:                 -10.041
REMARK INTRA:                  -0.427
REMARK UNBOUND:                -0.858
REMARK  6 active torsions:
REMARK  status: ('A' for Active; 'I' for Inactive)
REMARK    1  A    between atoms: O_2  and  C_3 
REMARK    2  A    between atoms: C_3  and  C_4 
REMARK    3  A    between atoms: C_11  and  C_15 
REMARK    4  A    between atoms: C_12  and  O_14 
REMARK       I    between atoms: C_15  and  N_17 
REMARK    5  A    between atoms: N_17  and  C_19 
REMARK    6  A    between atoms: C_22  and  N_25 
ROOT
HETATM    1  C   UNL     1       7.523  14.680  23.982  0.00  0.00     0.260 C 
HETATM    2  O   UNL     1       7.030  15.108  25.031  0.00  0.00    -0.267 OA
HETATM    3  N   UNL     1       6.780  13.930  23.039  0.00  0.00    -0.318 N 
HETATM    4  C   UNL     1       7.352  13.248  21.876  0.00  0.00     0.159 C 
ENDROOT
BRANCH   1   5
HETATM    5  C   UNL     1       8.967  15.031  23.814  0.00  0.00     0.066 A 
HETATM    6  C   UNL     1       9.851  14.346  24.683  0.00  0.00     0.035 A 
HETATM    7  C   UNL     1      11.249  14.504  24.553  0.00  0.00     0.022 A 
HETATM    8  C   UNL     1      12.417  13.939  25.142  0.00  0.00     0.090 A 
HETATM    9  C   UNL     1      11.726  15.399  23.604  0.00  0.00     0.065 A 
HETATM   10  N   UNL     1      13.535  14.502  24.656  0.00  0.00    -0.176 NA
HETATM   11  N   UNL     1      13.087  15.360  23.725  0.00  0.00    -0.277 N 
HETATM   12  H   UNL     1      13.771  15.888  23.195  0.00  0.00     0.189 HD
HETATM   13  C   UNL     1      10.893  16.099  22.729  0.00  0.00     0.069 A 
HETATM   14  C   UNL     1       9.516  15.833  22.807  0.00  0.00     0.083 A 
BRANCH   8  15
HETATM   15  C   UNL     1      12.500  12.847  26.165  0.00  0.00     0.228 C 
BRANCH  15  16
HETATM   16  O   UNL     1      11.818  13.195  27.378  0.00  0.00    -0.390 OA
HETATM   17  C   UNL     1      12.461  14.273  28.046  0.00  0.00     0.201 C 
ENDBRANCH  15  16
ENDBRANCH   8  15
BRANCH  14  18
HETATM   18  O   UNL     1       8.790  16.347  21.767  0.00  0.00    -0.360 OA
HETATM   19  H   UNL     1       8.030  15.750  21.628  0.00  0.00     0.217 HD
ENDBRANCH  14  18
ENDBRANCH   1   5
BRANCH   3  20
HETATM   20  C   UNL     1       5.353  13.781  23.219  0.00  0.00     0.037 A 
HETATM   21  C   UNL     1       4.521  14.891  23.405  0.00  0.00     0.032 A 
HETATM   22  C   UNL     1       3.135  14.752  23.588  0.00  0.00     0.031 A 
HETATM   23  C   UNL     1       2.515  13.501  23.603  0.00  0.00     0.030 A 
HETATM   24  C   UNL     1       3.350  12.396  23.385  0.00  0.00     0.031 A 
HETATM   25  C   UNL     1       4.736  12.527  23.183  0.00  0.00     0.032 A 
BRANCH  23  26
HETATM   26  N   UNL     1       1.153  13.340  23.758  0.00  0.00    -0.377 N 
HETATM   27  C   UNL     1       0.219  13.273  22.622  0.00  0.00     0.149 C 
HETATM   28  C   UNL     1      -0.905  12.283  22.980  0.00  0.00     0.187 C 
HETATM   29  O   UNL     1      -1.573  12.641  24.205  0.00  0.00    -0.388 OA
HETATM   30  C   UNL     1      -0.633  12.697  25.292  0.00  0.00     0.187 C 
HETATM   31  C   UNL     1       0.482  13.718  25.015  0.00  0.00     0.149 C 
ENDBRANCH  23  26
ENDBRANCH   3  20
TORSDOF 6
ENDMDL
MODEL 6
REMARK VINA RESULT:    -7.195      1.851      2.475
REMARK INTER + INTRA:         -10.367
REMARK INTER:                  -9.495
REMARK INTRA:                  -0.872
REMARK UNBOUND:                -0.858
REMARK  6 active torsions:
REMARK  status: ('A' for Active; 'I' for Inactive)
REMARK    1  A    between atoms: O_2  and  C_3 
REMARK    2  A    between atoms: C_3  and  C_4 
REMARK    3  A    between atoms: C_11  and  C_15 
REMARK    4  A    between atoms: C_12  and  O_14 
REMARK       I    between atoms: C_15  and  N_17 
REMARK    5  A    between atoms: N_17  and  C_19 
REMARK    6  A    between atoms: C_22  and  N_25 
ROOT
HETATM    1  C   UNL     1       8.063  14.096  24.975  0.00  0.00     0.260 C 
HETATM    2  O   UNL     1       7.530  15.163  25.293  0.00  0.00    -0.267 OA
HETATM    3  N   UNL     1       7.320  12.928  24.679  0.00  0.00    -0.318 N 
HETATM    4  C   UNL     1       7.897  11.598  24.475  0.00  0.00     0.159 C 
ENDROOT
BRANCH   1   5
HETATM    5  C   UNL     1       9.557  14.162  24.936  0.00  0.00     0.066 A 
HETATM    6  C   UNL     1      10.119  14.158  23.635  0.00  0.00     0.035 A 
HETATM    7  C   UNL     1      11.510  14.327  23.456  0.00  0.00     0.022 A 
HETATM    8  C   UNL     1      12.404  14.473  22.356  0.00  0.00     0.090 A 
HETATM    9  C   UNL     1      12.314  14.424  24.585  0.00  0.00     0.065 A 
HETATM   10  N   UNL     1      13.679  14.567  22.768  0.00  0.00    -0.176 NA
HETATM   11  N   UNL     1      13.589  14.552  24.108  0.00  0.00    -0.277 N 
HETATM   12  H   UNL     1      14.443  14.642  24.644  0.00  0.00     0.189 HD
HETATM   13  C   UNL     1      11.805  14.428  25.885  0.00  0.00     0.069 A 
HETATM   14  C   UNL     1      10.409  14.374  26.026  0.00  0.00     0.083 A 
BRANCH   8  15
HETATM   15  C   UNL     1      12.071  14.539  20.896  0.00  0.00     0.228 C 
BRANCH  15  16
HETATM   16  O   UNL     1      12.606  13.422  20.173  0.00  0.00    -0.390 OA
HETATM   17  C   UNL     1      11.732  12.302  20.222  0.00  0.00     0.201 C 
ENDBRANCH  15  16
ENDBRANCH   8  15
BRANCH  14  18
HETATM   18  O   UNL     1       9.967  14.640  27.294  0.00  0.00    -0.360 OA
HETATM   19  H   UNL     1      10.753  14.857  27.830  0.00  0.00     0.217 HD
ENDBRANCH  14  18
ENDBRANCH   1   5
BRANCH   3  20
HETATM   20  C   UNL     1       5.879  13.011  24.592  0.00  0.00     0.037 A 
HETATM   21  C   UNL     1       5.058  12.580  25.641  0.00  0.00     0.032 A 
HETATM   22  C   UNL     1       3.657  12.650  25.559  0.00  0.00     0.031 A 
HETATM   23  C   UNL     1       3.008  13.145  24.427  0.00  0.00     0.030 A 
HETATM   24  C   UNL     1       3.837  13.604  23.392  0.00  0.00     0.031 A 
HETATM   25  C   UNL     1       5.241  13.554  23.472  0.00  0.00     0.032 A 
BRANCH  23  26
HETATM   26  N   UNL     1       1.636  13.246  24.331  0.00  0.00    -0.377 N 
HETATM   27  C   UNL     1       0.927  13.348  23.045  0.00  0.00     0.149 C 
HETATM   28  C   UNL     1      -0.409  12.592  23.170  0.00  0.00     0.187 C 
HETATM   29  O   UNL     1      -1.208  13.080  24.264  0.00  0.00    -0.388 OA
HETATM   30  C   UNL     1      -0.486  12.966  25.504  0.00  0.00     0.187 C 
HETATM   31  C   UNL     1       0.832  13.755  25.458  0.00  0.00     0.149 C 
ENDBRANCH  23  26
ENDBRANCH   3  20
TORSDOF 6
ENDMDL
MODEL 7
REMARK VINA RESULT:    -7.120      1.933      2.808
REMARK INTER + INTRA:         -10.267
REMARK INTER:                  -9.341
REMARK INTRA:                  -0.926
REMARK UNBOUND:                -0.858
REMARK  6 active torsions:
REMARK  status: ('A' for Active; 'I' for Inactive)
REMARK    1  A    between atoms: O_2  and  C_3 
REMARK    2  A    between atoms: C_3  and  C_4 
REMARK    3  A    between atoms: C_11  and  C_15 
REMARK    4  A    between atoms: C_12  and  O_14 
REMARK       I    between atoms: C_15  and  N_17 
REMARK    5  A    between atoms: N_17  and  C_19 
REMARK    6  A    between atoms: C_22  and  N_25 
ROOT
HETATM    1  C   UNL     1       6.170  13.932  23.234  0.00  0.00     0.260 C 
HETATM    2  O   UNL     1       5.705  13.442  22.200  0.00  0.00    -0.267 OA
HETATM    3  N   UNL     1       5.372  14.234  24.363  0.00  0.00    -0.318 N 
HETATM    4  C   UNL     1       5.832  14.976  25.539  0.00  0.00     0.159 C 
ENDROOT
BRANCH   1   5
HETATM    5  C   UNL     1       7.646  14.169  23.172  0.00  0.00     0.066 A 
HETATM    6  C   UNL     1       8.430  13.231  23.887  0.00  0.00     0.035 A 
HETATM    7  C   UNL     1       9.841  13.278  23.819  0.00  0.00     0.022 A 
HETATM    8  C   UNL     1      10.929  12.490  24.292  0.00  0.00     0.090 A 
HETATM    9  C   UNL     1      10.433  14.306  23.096  0.00  0.00     0.065 A 
HETATM   10  N   UNL     1      12.111  13.033  23.960  0.00  0.00    -0.176 NA
HETATM   11  N   UNL     1      11.779  14.109  23.229  0.00  0.00    -0.277 N 
HETATM   12  H   UNL     1      12.527  14.670  22.839  0.00  0.00     0.189 HD
HETATM   13  C   UNL     1       9.700  15.253  22.379  0.00  0.00     0.069 A 
HETATM   14  C   UNL     1       8.303  15.112  22.373  0.00  0.00     0.083 A 
BRANCH   8  15
HETATM   15  C   UNL     1      10.874  11.201  25.056  0.00  0.00     0.228 C 
BRANCH  15  16
HETATM   16  O   UNL     1      10.456  10.106  24.230  0.00  0.00    -0.390 OA
HETATM   17  C   UNL     1       9.208   9.576  24.659  0.00  0.00     0.201 C 
ENDBRANCH  15  16
ENDBRANCH   8  15
BRANCH  14  18
HETATM   18  O   UNL     1       7.667  15.904  21.456  0.00  0.00    -0.360 OA
HETATM   19  H   UNL     1       8.352  16.452  21.028  0.00  0.00     0.217 HD
ENDBRANCH  14  18
ENDBRANCH   1   5
BRANCH   3  20
HETATM   20  C   UNL     1       3.986  13.820  24.381  0.00  0.00     0.037 A 
HETATM   21  C   UNL     1       3.617  12.524  24.759  0.00  0.00     0.032 A 
HETATM   22  C   UNL     1       2.273  12.114  24.771  0.00  0.00     0.031 A 
HETATM   23  C   UNL     1       1.236  12.973  24.401  0.00  0.00     0.030 A 
HETATM   24  C   UNL     1       1.612  14.279  24.055  0.00  0.00     0.031 A 
HETATM   25  C   UNL     1       2.953  14.704  24.056  0.00  0.00     0.032 A 
BRANCH  23  26
HETATM   26  N   UNL     1      -0.093  12.602  24.427  0.00  0.00    -0.377 N 
HETATM   27  C   UNL     1      -0.965  12.661  23.244  0.00  0.00     0.149 C 
HETATM   28  C   UNL     1      -1.947  11.476  23.308  0.00  0.00     0.187 C 
HETATM   29  O   UNL     1      -2.704  11.465  24.533  0.00  0.00    -0.388 OA
HETATM   30  C   UNL     1      -1.822  11.407  25.669  0.00  0.00     0.187 C 
HETATM   31  C   UNL     1      -0.857  12.603  25.689  0.00  0.00     0.149 C 
ENDBRANCH  23  26
ENDBRANCH   3  20
TORSDOF 6
ENDMDL
MODEL 8
REMARK VINA RESULT:    -7.114      2.228     10.218
REMARK INTER + INTRA:         -10.260
REMARK INTER:                  -9.741
REMARK INTRA:                  -0.519
REMARK UNBOUND:                -0.858
REMARK  6 active torsions:
REMARK  status: ('A' for Active; 'I' for Inactive)
REMARK    1  A    between atoms: O_2  and  C_3 
REMARK    2  A    between atoms: C_3  and  C_4 
REMARK    3  A    between atoms: C_11  and  C_15 
REMARK    4  A    between atoms: C_12  and  O_14 
REMARK       I    between atoms: C_15  and  N_17 
REMARK    5  A    between atoms: N_17  and  C_19 
REMARK    6  A    between atoms: C_22  and  N_25 
ROOT
HETATM    1  C   UNL     1       2.235  12.796  23.831  0.00  0.00     0.260 C 
HETATM    2  O   UNL     1       2.833  12.080  23.022  0.00  0.00    -0.267 OA
HETATM    3  N   UNL     1       2.882  13.806  24.582  0.00  0.00    -0.318 N 
HETATM    4  C   UNL     1       2.266  14.558  25.678  0.00  0.00     0.159 C 
ENDROOT
BRANCH   1   5
HETATM    5  C   UNL     1       0.774  12.491  23.933  0.00  0.00     0.066 A 
HETATM    6  C   UNL     1       0.350  12.029  25.203  0.00  0.00     0.035 A 
HETATM    7  C   UNL     1      -1.022  11.810  25.463  0.00  0.00     0.022 A 
HETATM    8  C   UNL     1      -1.821  11.458  26.590  0.00  0.00     0.090 A 
HETATM    9  C   UNL     1      -1.927  11.989  24.426  0.00  0.00     0.065 A 
HETATM   10  N   UNL     1      -3.117  11.344  26.258  0.00  0.00    -0.176 NA
HETATM   11  N   UNL     1      -3.149  11.685  24.959  0.00  0.00    -0.277 N 
HETATM   12  H   UNL     1      -4.048  11.699  24.492  0.00  0.00     0.189 HD
HETATM   13  C   UNL     1      -1.554  12.439  23.158  0.00  0.00     0.069 A 
HETATM   14  C   UNL     1      -0.201  12.757  22.964  0.00  0.00     0.083 A 
BRANCH   8  15
HETATM   15  C   UNL     1      -1.377  11.237  28.004  0.00  0.00     0.228 C 
BRANCH  15  16
HETATM   16  O   UNL     1      -2.093  10.162  28.629  0.00  0.00    -0.390 OA
HETATM   17  C   UNL     1      -1.210   9.259  29.281  0.00  0.00     0.201 C 
ENDBRANCH  15  16
ENDBRANCH   8  15
BRANCH  14  18
HETATM   18  O   UNL     1       0.052  13.428  21.798  0.00  0.00    -0.360 OA
HETATM   19  H   UNL     1       1.008  13.628  21.786  0.00  0.00     0.217 HD
ENDBRANCH  14  18
ENDBRANCH   1   5
BRANCH   3  20
HETATM   20  C   UNL     1       4.262  14.127  24.295  0.00  0.00     0.037 A 
HETATM   21  C   UNL     1       4.603  15.142  23.394  0.00  0.00     0.032 A 
HETATM   22  C   UNL     1       5.942  15.454  23.105  0.00  0.00     0.031 A 
HETATM   23  C   UNL     1       7.004  14.764  23.694  0.00  0.00     0.030 A 
HETATM   24  C   UNL     1       6.655  13.770  24.619  0.00  0.00     0.031 A 
HETATM   25  C   UNL     1       5.317  13.462  24.928  0.00  0.00     0.032 A 
BRANCH  23  26
HETATM   26  N   UNL     1       8.327  15.066  23.444  0.00  0.00    -0.377 N 
HETATM   27  C   UNL     1       8.913  15.044  22.095  0.00  0.00     0.149 C 
HETATM   28  C   UNL     1       9.959  16.172  22.005  0.00  0.00     0.187 C 
HETATM   29  O   UNL     1      10.965  16.062  23.030  0.00  0.00    -0.388 OA
HETATM   30  C   UNL     1      10.358  16.086  24.335  0.00  0.00     0.187 C 
HETATM   31  C   UNL     1       9.347  14.941  24.502  0.00  0.00     0.149 C 
ENDBRANCH  23  26
ENDBRANCH   3  20
TORSDOF 6
ENDMDL
MODEL 9
REMARK VINA RESULT:    -6.702      2.388      2.715
REMARK INTER + INTRA:          -9.715
REMARK INTER:                  -8.857
REMARK INTRA:                  -0.858
REMARK UNBOUND:                -0.858
REMARK  6 active torsions:
REMARK  status: ('A' for Active; 'I' for Inactive)
REMARK    1  A    between atoms: O_2  and  C_3 
REMARK    2  A    between atoms: C_3  and  C_4 
REMARK    3  A    between atoms: C_11  and  C_15 
REMARK    4  A    between atoms: C_12  and  O_14 
REMARK       I    between atoms: C_15  and  N_17 
REMARK    5  A    between atoms: N_17  and  C_19 
REMARK    6  A    between atoms: C_22  and  N_25 
ROOT
HETATM    1  C   UNL     1       7.755  12.043  24.099  0.00  0.00     0.260 C 
HETATM    2  O   UNL     1       7.193  11.030  23.672  0.00  0.00    -0.267 OA
HETATM    3  N   UNL     1       7.053  13.229  24.419  0.00  0.00    -0.318 N 
HETATM    4  C   UNL     1       7.681  14.509  24.754  0.00  0.00     0.159 C 
ENDROOT
BRANCH   1   5
HETATM    5  C   UNL     1       9.237  11.890  24.241  0.00  0.00     0.066 A 
HETATM    6  C   UNL     1       9.965  11.995  23.031  0.00  0.00     0.035 A 
HETATM    7  C   UNL     1      11.377  11.978  23.042  0.00  0.00     0.022 A 
HETATM    8  C   UNL     1      12.425  12.150  22.091  0.00  0.00     0.090 A 
HETATM    9  C   UNL     1      12.026  11.784  24.255  0.00  0.00     0.065 A 
HETATM   10  N   UNL     1      13.633  11.990  22.655  0.00  0.00    -0.176 NA
HETATM   11  N   UNL     1      13.359  11.789  23.955  0.00  0.00    -0.277 N 
HETATM   12  H   UNL     1      14.137  11.669  24.593  0.00  0.00     0.189 HD
HETATM   13  C   UNL     1      11.349  11.672  25.471  0.00  0.00     0.069 A 
HETATM   14  C   UNL     1       9.952  11.807  25.442  0.00  0.00     0.083 A 
BRANCH   8  15
HETATM   15  C   UNL     1      12.305  12.482  20.634  0.00  0.00     0.228 C 
BRANCH  15  16
HETATM   16  O   UNL     1      12.894  13.752  20.323  0.00  0.00    -0.390 OA
HETATM   17  C   UNL     1      12.044  14.827  20.701  0.00  0.00     0.201 C 
ENDBRANCH  15  16
ENDBRANCH   8  15
BRANCH  14  18
HETATM   18  O   UNL     1       9.379  11.944  26.677  0.00  0.00    -0.360 OA
HETATM   19  H   UNL     1      10.100  12.141  27.305  0.00  0.00     0.217 HD
ENDBRANCH  14  18
ENDBRANCH   1   5
BRANCH   3  20
HETATM   20  C   UNL     1       5.607  13.223  24.397  0.00  0.00     0.037 A 
HETATM   21  C   UNL     1       4.862  12.758  25.487  0.00  0.00     0.032 A 
HETATM   22  C   UNL     1       3.457  12.742  25.468  0.00  0.00     0.031 A 
HETATM   23  C   UNL     1       2.729  13.182  24.361  0.00  0.00     0.030 A 
HETATM   24  C   UNL     1       3.482  13.677  23.286  0.00  0.00     0.031 A 
HETATM   25  C   UNL     1       4.888  13.712  23.302  0.00  0.00     0.032 A 
BRANCH  23  26
HETATM   26  N   UNL     1       1.350  13.199  24.327  0.00  0.00    -0.377 N 
HETATM   27  C   UNL     1       0.581  13.455  23.099  0.00  0.00     0.149 C 
HETATM   28  C   UNL     1      -0.696  12.596  23.141  0.00  0.00     0.187 C 
HETATM   29  O   UNL     1      -1.477  12.843  24.325  0.00  0.00    -0.388 OA
HETATM   30  C   UNL     1      -0.697  12.584  25.506  0.00  0.00     0.187 C 
HETATM   31  C   UNL     1       0.564  13.462  25.547  0.00  0.00     0.149 C 
ENDBRANCH  23  26
ENDBRANCH   3  20
TORSDOF 6
ENDMDL
