MODEL 1
REMARK VINA RESULT:    -7.692      0.000      0.000
REMARK INTER + INTRA:         -12.201
REMARK INTER:                 -10.449
REMARK INTRA:                  -1.752
REMARK UNBOUND:                -1.812
REMARK  7 active torsions:
REMARK  status: ('A' for Active; 'I' for Inactive)
REMARK    1  A    between atoms: C_2  and  N_4 
REMARK    2  A    between atoms: N_4  and  S_6 
REMARK    3  A    between atoms: S_6  and  C_9 
REMARK    4  A    between atoms: C_11  and  C_12 
REMARK    5  A    between atoms: N_17  and  C_18 
REMARK    6  A    between atoms: C_25  and  O_26 
REMARK    7  A    between atoms: C_28  and  O_29 
ROOT
HETATM    1  C   UNL     1       3.316   8.272  22.919  0.00  0.00     0.108 C 
HETATM    2  C   UNL     1       2.378   8.947  23.726  0.00  0.00     0.041 C 
HETATM    3  C   UNL     1       2.501  10.315  24.007  0.00  0.00     0.023 C 
HETATM    4  C   UNL     1       3.693  10.939  23.620  0.00  0.00     0.078 C 
HETATM    5  C   UNL     1       4.689  10.243  22.929  0.00  0.00     0.075 C 
HETATM    6  C   UNL     1       4.485   8.919  22.539  0.00  0.00     0.091 C 
ENDROOT
BRANCH   3   7
HETATM    7  C   UNL     1       1.286  11.094  24.488  0.00  0.00     0.277 C 
HETATM    8  N   UNL     1       0.814  11.981  23.393  0.00  0.00    -0.156 NA
HETATM    9  N   UNL     1      -0.431  11.872  23.253  0.00  0.00    -0.093 NA
HETATM   10  C   UNL     1      -0.927  10.955  24.160  0.00  0.00     0.369 C 
HETATM   11  O   UNL     1      -2.119  10.765  24.343  0.00  0.00    -0.243 OA
HETATM   12  N   UNL     1       0.121  10.351  24.837  0.00  0.00    -0.264 N 
BRANCH  12  13
HETATM   13  C   UNL     1       0.009   9.403  25.885  0.00  0.00     0.080 A 
HETATM   14  C   UNL     1       0.182   9.794  27.219  0.00  0.00     0.033 A 
HETATM   15  C   UNL     1       0.082   8.871  28.270  0.00  0.00     0.002 A 
HETATM   16  C   UNL     1      -0.198   7.537  27.999  0.00  0.00     0.003 A 
HETATM   17  C   UNL     1      -0.386   7.127  26.682  0.00  0.00     0.044 A 
HETATM   18  C   UNL     1      -0.283   8.051  25.643  0.00  0.00     0.143 A 
HETATM   19  F   UNL     1      -0.414   7.589  24.388  0.00  0.00    -0.204 F 
ENDBRANCH  12  13
ENDBRANCH   3   7
BRANCH   4  20
HETATM   20  O   UNL     1       3.951  12.262  23.834  0.00  0.00    -0.360 OA
HETATM   21  H   UNL     1       3.177  12.703  24.223  0.00  0.00     0.217 HD
ENDBRANCH   4  20
BRANCH   1  22
HETATM   22  S   UNL     1       2.870   6.645  22.332  0.00  0.00     0.246 S 
HETATM   23  O   UNL     1       3.436   6.509  21.005  0.00  0.00    -0.206 OA
HETATM   24  O   UNL     1       1.451   6.430  22.511  0.00  0.00    -0.206 OA
BRANCH  22  25
HETATM   25  N   UNL     1       3.746   5.595  23.411  0.00  0.00    -0.207 NA
HETATM   26  C   UNL     1       4.397   4.465  22.687  0.00  0.00     0.130 C 
BRANCH  25  27
HETATM   27  C   UNL     1       3.084   5.171  24.707  0.00  0.00     0.065 C 
HETATM   28  C   UNL     1       3.758   3.924  25.301  0.00  0.00     0.027 C 
HETATM   29  C   UNL     1       3.145   6.237  25.804  0.00  0.00     0.027 C 
ENDBRANCH  25  27
ENDBRANCH  22  25
ENDBRANCH   1  22
BRANCH   6  30
HETATM   30  O   UNL     1       5.410   8.317  21.743  0.00  0.00    -0.359 OA
HETATM   31  H   UNL     1       5.070   8.237  20.835  0.00  0.00     0.217 HD
ENDBRANCH   6  30
TORSDOF 7
ENDMDL
MODEL 2
REMARK VINA RESULT:    -6.941      2.848      6.402
REMARK INTER + INTRA:         -11.188
REMARK INTER:                 -10.391
REMARK INTRA:                  -0.797
REMARK UNBOUND:                -1.812
REMARK  7 active torsions:
REMARK  status: ('A' for Active; 'I' for Inactive)
REMARK    1  A    between atoms: C_2  and  N_4 
REMARK    2  A    between atoms: N_4  and  S_6 
REMARK    3  A    between atoms: S_6  and  C_9 
REMARK    4  A    between atoms: C_11  and  C_12 
REMARK    5  A    between atoms: N_17  and  C_18 
REMARK    6  A    between atoms: C_25  and  O_26 
REMARK    7  A    between atoms: C_28  and  O_29 
ROOT
HETATM    1  C   UNL     1       1.800   7.208  25.340  0.00  0.00     0.108 C 
HETATM    2  C   UNL     1       2.983   7.256  24.575  0.00  0.00     0.041 C 
HETATM    3  C   UNL     1       3.154   6.455  23.436  0.00  0.00     0.023 C 
HETATM    4  C   UNL     1       2.189   5.467  23.203  0.00  0.00     0.078 C 
HETATM    5  C   UNL     1       1.073   5.327  24.034  0.00  0.00     0.075 C 
HETATM    6  C   UNL     1       0.854   6.224  25.078  0.00  0.00     0.091 C 
ENDROOT
BRANCH   3   7
HETATM    7  C   UNL     1       4.208   6.832  22.406  0.00  0.00     0.277 C 
HETATM    8  N   UNL     1       4.094   5.920  21.240  0.00  0.00    -0.156 NA
HETATM    9  N   UNL     1       4.104   6.580  20.170  0.00  0.00    -0.093 NA
HETATM   10  C   UNL     1       4.206   7.929  20.452  0.00  0.00     0.369 C 
HETATM   11  O   UNL     1       4.384   8.785  19.600  0.00  0.00    -0.243 OA
HETATM   12  N   UNL     1       4.126   8.129  21.822  0.00  0.00    -0.264 N 
BRANCH  12  13
HETATM   13  C   UNL     1       4.251   9.368  22.498  0.00  0.00     0.080 A 
HETATM   14  C   UNL     1       3.122  10.010  23.021  0.00  0.00     0.033 A 
HETATM   15  C   UNL     1       3.223  11.240  23.688  0.00  0.00     0.002 A 
HETATM   16  C   UNL     1       4.463  11.845  23.844  0.00  0.00     0.003 A 
HETATM   17  C   UNL     1       5.603  11.220  23.345  0.00  0.00     0.044 A 
HETATM   18  C   UNL     1       5.492   9.998  22.681  0.00  0.00     0.143 A 
HETATM   19  F   UNL     1       6.616   9.470  22.167  0.00  0.00    -0.204 F 
ENDBRANCH  12  13
ENDBRANCH   3   7
BRANCH   4  20
HETATM   20  O   UNL     1       2.232   4.614  22.138  0.00  0.00    -0.360 OA
HETATM   21  H   UNL     1       2.519   5.083  21.336  0.00  0.00     0.217 HD
ENDBRANCH   4  20
BRANCH   1  22
HETATM   22  S   UNL     1       1.542   8.513  26.532  0.00  0.00     0.246 S 
HETATM   23  O   UNL     1       2.624   9.461  26.355  0.00  0.00    -0.206 OA
HETATM   24  O   UNL     1       1.318   7.945  27.842  0.00  0.00    -0.206 OA
BRANCH  22  25
HETATM   25  N   UNL     1       0.068   9.255  25.973  0.00  0.00    -0.207 NA
HETATM   26  C   UNL     1       0.011   9.335  24.484  0.00  0.00     0.130 C 
BRANCH  25  27
HETATM   27  C   UNL     1      -0.411  10.520  26.656  0.00  0.00     0.065 C 
HETATM   28  C   UNL     1      -1.197  11.419  25.687  0.00  0.00     0.027 C 
HETATM   29  C   UNL     1      -1.353  10.260  27.835  0.00  0.00     0.027 C 
ENDBRANCH  25  27
ENDBRANCH  22  25
ENDBRANCH   1  22
BRANCH   6  30
HETATM   30  O   UNL     1      -0.313   6.150  25.775  0.00  0.00    -0.359 OA
HETATM   31  H   UNL     1      -0.750   5.297  25.608  0.00  0.00     0.217 HD
ENDBRANCH   6  30
TORSDOF 7
ENDMDL
MODEL 3
REMARK VINA RESULT:    -6.921      1.795      3.283
REMARK INTER + INTRA:         -11.160
REMARK INTER:                 -10.781
REMARK INTRA:                  -0.379
REMARK UNBOUND:                -1.812
REMARK  7 active torsions:
REMARK  status: ('A' for Active; 'I' for Inactive)
REMARK    1  A    between atoms: C_2  and  N_4 
REMARK    2  A    between atoms: N_4  and  S_6 
REMARK    3  A    between atoms: S_6  and  C_9 
REMARK    4  A    between atoms: C_11  and  C_12 
REMARK    5  A    between atoms: N_17  and  C_18 
REMARK    6  A    between atoms: C_25  and  O_26 
REMARK    7  A    between atoms: C_28  and  O_29 
ROOT
HETATM    1  C   UNL     1       3.111   7.572  22.943  0.00  0.00     0.108 C 
HETATM    2  C   UNL     1       2.055   7.599  23.877  0.00  0.00     0.041 C 
HETATM    3  C   UNL     1       1.860   8.693  24.733  0.00  0.00     0.023 C 
HETATM    4  C   UNL     1       2.867   9.666  24.761  0.00  0.00     0.078 C 
HETATM    5  C   UNL     1       3.986   9.582  23.926  0.00  0.00     0.075 C 
HETATM    6  C   UNL     1       4.089   8.558  22.985  0.00  0.00     0.091 C 
ENDROOT
BRANCH   3   7
HETATM    7  C   UNL     1       0.506   8.895  25.395  0.00  0.00     0.277 C 
HETATM    8  N   UNL     1       0.591   8.464  26.814  0.00  0.00    -0.156 NA
HETATM    9  N   UNL     1       0.083   9.337  27.563  0.00  0.00    -0.093 NA
HETATM   10  C   UNL     1      -0.369  10.400  26.806  0.00  0.00     0.369 C 
HETATM   11  O   UNL     1      -1.035  11.318  27.260  0.00  0.00    -0.243 OA
HETATM   12  N   UNL     1       0.006  10.226  25.482  0.00  0.00    -0.264 N 
BRANCH  12  13
HETATM   13  C   UNL     1      -0.326  11.075  24.397  0.00  0.00     0.080 A 
HETATM   14  C   UNL     1       0.660  11.848  23.771  0.00  0.00     0.033 A 
HETATM   15  C   UNL     1       0.352  12.699  22.700  0.00  0.00     0.002 A 
HETATM   16  C   UNL     1      -0.954  12.786  22.236  0.00  0.00     0.003 A 
HETATM   17  C   UNL     1      -1.950  12.017  22.833  0.00  0.00     0.044 A 
HETATM   18  C   UNL     1      -1.635  11.175  23.898  0.00  0.00     0.143 A 
HETATM   19  F   UNL     1      -2.645  10.503  24.476  0.00  0.00    -0.204 F 
ENDBRANCH  12  13
ENDBRANCH   3   7
BRANCH   4  20
HETATM   20  O   UNL     1       2.812  10.779  25.549  0.00  0.00    -0.360 OA
HETATM   21  H   UNL     1       2.361  11.505  25.085  0.00  0.00     0.217 HD
ENDBRANCH   4  20
BRANCH   1  22
HETATM   22  S   UNL     1       3.046   6.319  21.672  0.00  0.00     0.246 S 
HETATM   23  O   UNL     1       3.851   6.801  20.567  0.00  0.00    -0.206 OA
HETATM   24  O   UNL     1       1.673   5.941  21.423  0.00  0.00    -0.206 OA
BRANCH  22  25
HETATM   25  N   UNL     1       3.880   4.980  22.413  0.00  0.00    -0.207 NA
HETATM   26  C   UNL     1       4.081   3.849  21.461  0.00  0.00     0.130 C 
BRANCH  25  27
HETATM   27  C   UNL     1       3.443   4.528  23.792  0.00  0.00     0.065 C 
HETATM   28  C   UNL     1       2.188   3.643  23.722  0.00  0.00     0.027 C 
HETATM   29  C   UNL     1       4.497   3.693  24.526  0.00  0.00     0.027 C 
ENDBRANCH  25  27
ENDBRANCH  22  25
ENDBRANCH   1  22
BRANCH   6  30
HETATM   30  O   UNL     1       5.115   8.587  22.091  0.00  0.00    -0.359 OA
HETATM   31  H   UNL     1       4.794   8.347  21.204  0.00  0.00     0.217 HD
ENDBRANCH   6  30
TORSDOF 7
ENDMDL
MODEL 4
REMARK VINA RESULT:    -6.893      2.124      5.264
REMARK INTER + INTRA:         -11.122
REMARK INTER:                  -9.177
REMARK INTRA:                  -1.945
REMARK UNBOUND:                -1.812
REMARK  7 active torsions:
REMARK  status: ('A' for Active; 'I' for Inactive)
REMARK    1  A    between atoms: C_2  and  N_4 
REMARK    2  A    between atoms: N_4  and  S_6 
REMARK    3  A    between atoms: S_6  and  C_9 
REMARK    4  A    between atoms: C_11  and  C_12 
REMARK    5  A    between atoms: N_17  and  C_18 
REMARK    6  A    between atoms: C_25  and  O_26 
REMARK    7  A    between atoms: C_28  and  O_29 
ROOT
HETATM    1  C   UNL     1       3.355  10.196  23.509  0.00  0.00     0.108 C 
HETATM    2  C   UNL     1       2.507   9.084  23.329  0.00  0.00     0.041 C 
HETATM    3  C   UNL     1       2.966   7.899  22.736  0.00  0.00     0.023 C 
HETATM    4  C   UNL     1       4.239   7.932  22.152  0.00  0.00     0.078 C 
HETATM    5  C   UNL     1       5.040   9.076  22.213  0.00  0.00     0.075 C 
HETATM    6  C   UNL     1       4.617  10.196  22.929  0.00  0.00     0.091 C 
ENDROOT
BRANCH   3   7
HETATM    7  C   UNL     1       2.195   6.606  22.950  0.00  0.00     0.277 C 
HETATM    8  N   UNL     1       2.866   5.511  22.202  0.00  0.00    -0.156 NA
HETATM    9  N   UNL     1       3.001   4.502  22.939  0.00  0.00    -0.093 NA
HETATM   10  C   UNL     1       2.488   4.765  24.194  0.00  0.00     0.369 C 
HETATM   11  O   UNL     1       2.356   3.914  25.061  0.00  0.00    -0.243 OA
HETATM   12  N   UNL     1       2.116   6.098  24.279  0.00  0.00    -0.264 N 
BRANCH  12  13
HETATM   13  C   UNL     1       1.495   6.727  25.387  0.00  0.00     0.080 A 
HETATM   14  C   UNL     1       0.112   6.623  25.581  0.00  0.00     0.033 A 
HETATM   15  C   UNL     1      -0.523   7.244  26.666  0.00  0.00     0.002 A 
HETATM   16  C   UNL     1       0.222   7.979  27.579  0.00  0.00     0.003 A 
HETATM   17  C   UNL     1       1.601   8.087  27.415  0.00  0.00     0.044 A 
HETATM   18  C   UNL     1       2.223   7.467  26.332  0.00  0.00     0.143 A 
HETATM   19  F   UNL     1       3.546   7.654  26.189  0.00  0.00    -0.204 F 
ENDBRANCH  12  13
ENDBRANCH   3   7
BRANCH   4  20
HETATM   20  O   UNL     1       4.809   6.856  21.536  0.00  0.00    -0.360 OA
HETATM   21  H   UNL     1       4.614   6.864  20.584  0.00  0.00     0.217 HD
ENDBRANCH   4  20
BRANCH   1  22
HETATM   22  S   UNL     1       2.780  11.497  24.590  0.00  0.00     0.246 S 
HETATM   23  O   UNL     1       3.357  12.733  24.102  0.00  0.00    -0.206 OA
HETATM   24  O   UNL     1       2.998  11.121  25.969  0.00  0.00    -0.206 OA
BRANCH  22  25
HETATM   25  N   UNL     1       1.067  11.529  24.272  0.00  0.00    -0.207 NA
HETATM   26  C   UNL     1       0.561  12.918  24.072  0.00  0.00     0.130 C 
BRANCH  25  27
HETATM   27  C   UNL     1       0.154  10.680  25.134  0.00  0.00     0.065 C 
HETATM   28  C   UNL     1      -0.384  11.475  26.334  0.00  0.00     0.027 C 
HETATM   29  C   UNL     1      -1.082  10.163  24.392  0.00  0.00     0.027 C 
ENDBRANCH  25  27
ENDBRANCH  22  25
ENDBRANCH   1  22
BRANCH   6  30
HETATM   30  O   UNL     1       5.480  11.237  23.092  0.00  0.00    -0.359 OA
HETATM   31  H   UNL     1       6.243  11.136  22.497  0.00  0.00     0.217 HD
ENDBRANCH   6  30
TORSDOF 7
ENDMDL
MODEL 5
REMARK VINA RESULT:    -6.890      3.193      6.298
REMARK INTER + INTRA:         -11.118
REMARK INTER:                  -9.822
REMARK INTRA:                  -1.296
REMARK UNBOUND:                -1.812
REMARK  7 active torsions:
REMARK  status: ('A' for Active; 'I' for Inactive)
REMARK    1  A    between atoms: C_2  and  N_4 
REMARK    2  A    between atoms: N_4  and  S_6 
REMARK    3  A    between atoms: S_6  and  C_9 
REMARK    4  A    between atoms: C_11  and  C_12 
REMARK    5  A    between atoms: N_17  and  C_18 
REMARK    6  A    between atoms: C_25  and  O_26 
REMARK    7  A    between atoms: C_28  and  O_29 
ROOT
HETATM    1  C   UNL     1       1.613   7.873  25.812  0.00  0.00     0.108 C 
HETATM    2  C   UNL     1       2.758   7.531  25.064  0.00  0.00     0.041 C 
HETATM    3  C   UNL     1       2.658   7.017  23.762  0.00  0.00     0.023 C 
HETATM    4  C   UNL     1       1.378   6.674  23.311  0.00  0.00     0.078 C 
HETATM    5  C   UNL     1       0.244   6.892  24.099  0.00  0.00     0.075 C 
HETATM    6  C   UNL     1       0.355   7.531  25.334  0.00  0.00     0.091 C 
ENDROOT
BRANCH   3   7
HETATM    7  C   UNL     1       3.866   7.075  22.840  0.00  0.00     0.277 C 
HETATM    8  N   UNL     1       3.718   6.043  21.782  0.00  0.00    -0.156 NA
HETATM    9  N   UNL     1       3.957   6.541  20.653  0.00  0.00    -0.093 NA
HETATM   10  C   UNL     1       4.265   7.881  20.787  0.00  0.00     0.369 C 
HETATM   11  O   UNL     1       4.682   8.573  19.871  0.00  0.00    -0.243 OA
HETATM   12  N   UNL     1       4.077   8.276  22.103  0.00  0.00    -0.264 N 
BRANCH  12  13
HETATM   13  C   UNL     1       4.347   9.559  22.641  0.00  0.00     0.080 A 
HETATM   14  C   UNL     1       3.314  10.335  23.183  0.00  0.00     0.033 A 
HETATM   15  C   UNL     1       3.557  11.609  23.714  0.00  0.00     0.002 A 
HETATM   16  C   UNL     1       4.846  12.127  23.715  0.00  0.00     0.003 A 
HETATM   17  C   UNL     1       5.893  11.369  23.194  0.00  0.00     0.044 A 
HETATM   18  C   UNL     1       5.640  10.104  22.665  0.00  0.00     0.143 A 
HETATM   19  F   UNL     1       6.676   9.442  22.122  0.00  0.00    -0.204 F 
ENDBRANCH  12  13
ENDBRANCH   3   7
BRANCH   4  20
HETATM   20  O   UNL     1       1.134   6.160  22.070  0.00  0.00    -0.360 OA
HETATM   21  H   UNL     1       1.816   5.510  21.829  0.00  0.00     0.217 HD
ENDBRANCH   4  20
BRANCH   1  22
HETATM   22  S   UNL     1       1.861   8.846  27.289  0.00  0.00     0.246 S 
HETATM   23  O   UNL     1       0.733   9.750  27.389  0.00  0.00    -0.206 OA
HETATM   24  O   UNL     1       3.199   9.394  27.297  0.00  0.00    -0.206 OA
BRANCH  22  25
HETATM   25  N   UNL     1       1.725   7.658  28.556  0.00  0.00    -0.207 NA
HETATM   26  C   UNL     1       0.320   7.508  29.034  0.00  0.00     0.130 C 
BRANCH  25  27
HETATM   27  C   UNL     1       2.738   7.682  29.684  0.00  0.00     0.065 C 
HETATM   28  C   UNL     1       2.090   8.101  31.013  0.00  0.00     0.027 C 
HETATM   29  C   UNL     1       3.388   6.321  29.951  0.00  0.00     0.027 C 
ENDBRANCH  25  27
ENDBRANCH  22  25
ENDBRANCH   1  22
BRANCH   6  30
HETATM   30  O   UNL     1      -0.781   7.859  26.008  0.00  0.00    -0.359 OA
HETATM   31  H   UNL     1      -0.564   8.394  26.791  0.00  0.00     0.217 HD
ENDBRANCH   6  30
TORSDOF 7
ENDMDL
MODEL 6
REMARK VINA RESULT:    -6.834      2.141      5.587
REMARK INTER + INTRA:         -11.042
REMARK INTER:                  -9.665
REMARK INTRA:                  -1.377
REMARK UNBOUND:                -1.812
REMARK  7 active torsions:
REMARK  status: ('A' for Active; 'I' for Inactive)
REMARK    1  A    between atoms: C_2  and  N_4 
REMARK    2  A    between atoms: N_4  and  S_6 
REMARK    3  A    between atoms: S_6  and  C_9 
REMARK    4  A    between atoms: C_11  and  C_12 
REMARK    5  A    between atoms: N_17  and  C_18 
REMARK    6  A    between atoms: C_25  and  O_26 
REMARK    7  A    between atoms: C_28  and  O_29 
ROOT
HETATM    1  C   UNL     1       3.015  10.374  23.714  0.00  0.00     0.108 C 
HETATM    2  C   UNL     1       2.295   9.180  23.504  0.00  0.00     0.041 C 
HETATM    3  C   UNL     1       2.885   8.066  22.889  0.00  0.00     0.023 C 
HETATM    4  C   UNL     1       4.149   8.251  22.317  0.00  0.00     0.078 C 
HETATM    5  C   UNL     1       4.820   9.474  22.409  0.00  0.00     0.075 C 
HETATM    6  C   UNL     1       4.273  10.525  23.145  0.00  0.00     0.091 C 
ENDROOT
BRANCH   3   7
HETATM    7  C   UNL     1       2.259   6.692  23.069  0.00  0.00     0.277 C 
HETATM    8  N   UNL     1       3.075   5.687  22.341  0.00  0.00    -0.156 NA
HETATM    9  N   UNL     1       3.298   4.693  23.078  0.00  0.00    -0.093 NA
HETATM   10  C   UNL     1       2.714   4.885  24.315  0.00  0.00     0.369 C 
HETATM   11  O   UNL     1       2.647   4.017  25.172  0.00  0.00    -0.243 OA
HETATM   12  N   UNL     1       2.189   6.166  24.392  0.00  0.00    -0.264 N 
BRANCH  12  13
HETATM   13  C   UNL     1       1.461   6.712  25.478  0.00  0.00     0.080 A 
HETATM   14  C   UNL     1       0.079   6.513  25.580  0.00  0.00     0.033 A 
HETATM   15  C   UNL     1      -0.661   7.050  26.643  0.00  0.00     0.002 A 
HETATM   16  C   UNL     1      -0.024   7.795  27.627  0.00  0.00     0.003 A 
HETATM   17  C   UNL     1       1.352   7.996  27.555  0.00  0.00     0.044 A 
HETATM   18  C   UNL     1       2.080   7.460  26.493  0.00  0.00     0.143 A 
HETATM   19  F   UNL     1       3.394   7.735  26.442  0.00  0.00    -0.204 F 
ENDBRANCH  12  13
ENDBRANCH   3   7
BRANCH   4  20
HETATM   20  O   UNL     1       4.838   7.257  21.682  0.00  0.00    -0.360 OA
HETATM   21  H   UNL     1       5.049   7.517  20.769  0.00  0.00     0.217 HD
ENDBRANCH   4  20
BRANCH   1  22
HETATM   22  S   UNL     1       2.296  11.579  24.819  0.00  0.00     0.246 S 
HETATM   23  O   UNL     1       3.397  12.276  25.453  0.00  0.00    -0.206 OA
HETATM   24  O   UNL     1       1.296  10.948  25.652  0.00  0.00    -0.206 OA
BRANCH  22  25
HETATM   25  N   UNL     1       1.509  12.681  23.722  0.00  0.00    -0.207 NA
HETATM   26  C   UNL     1       1.374  14.048  24.303  0.00  0.00     0.130 C 
BRANCH  25  27
HETATM   27  C   UNL     1       0.262  12.215  22.997  0.00  0.00     0.065 C 
HETATM   28  C   UNL     1      -0.985  12.341  23.888  0.00  0.00     0.027 C 
HETATM   29  C   UNL     1      -0.050  13.022  21.733  0.00  0.00     0.027 C 
ENDBRANCH  25  27
ENDBRANCH  22  25
ENDBRANCH   1  22
BRANCH   6  30
HETATM   30  O   UNL     1       5.016  11.650  23.338  0.00  0.00    -0.359 OA
HETATM   31  H   UNL     1       5.484  11.600  24.189  0.00  0.00     0.217 HD
ENDBRANCH   6  30
TORSDOF 7
ENDMDL
MODEL 7
REMARK VINA RESULT:    -6.824      2.313      4.717
REMARK INTER + INTRA:         -11.029
REMARK INTER:                  -9.715
REMARK INTRA:                  -1.314
REMARK UNBOUND:                -1.812
REMARK  7 active torsions:
REMARK  status: ('A' for Active; 'I' for Inactive)
REMARK    1  A    between atoms: C_2  and  N_4 
REMARK    2  A    between atoms: N_4  and  S_6 
REMARK    3  A    between atoms: S_6  and  C_9 
REMARK    4  A    between atoms: C_11  and  C_12 
REMARK    5  A    between atoms: N_17  and  C_18 
REMARK    6  A    between atoms: C_25  and  O_26 
REMARK    7  A    between atoms: C_28  and  O_29 
ROOT
HETATM    1  C   UNL     1       2.377   7.425  22.889  0.00  0.00     0.108 C 
HETATM    2  C   UNL     1       2.145   8.752  23.304  0.00  0.00     0.041 C 
HETATM    3  C   UNL     1       1.143   9.065  24.234  0.00  0.00     0.023 C 
HETATM    4  C   UNL     1       0.256   8.040  24.582  0.00  0.00     0.078 C 
HETATM    5  C   UNL     1       0.401   6.745  24.073  0.00  0.00     0.075 C 
HETATM    6  C   UNL     1       1.487   6.425  23.259  0.00  0.00     0.091 C 
ENDROOT
BRANCH   3   7
HETATM    7  C   UNL     1       1.201  10.389  24.981  0.00  0.00     0.277 C 
HETATM    8  N   UNL     1       2.507  10.495  25.680  0.00  0.00    -0.156 NA
HETATM    9  N   UNL     1       3.025  11.620  25.466  0.00  0.00    -0.093 NA
HETATM   10  C   UNL     1       2.202  12.366  24.643  0.00  0.00     0.369 C 
HETATM   11  O   UNL     1       2.388  13.547  24.394  0.00  0.00    -0.243 OA
HETATM   12  N   UNL     1       1.141  11.586  24.209  0.00  0.00    -0.264 N 
BRANCH  12  13
HETATM   13  C   UNL     1       0.059  12.015  23.402  0.00  0.00     0.080 A 
HETATM   14  C   UNL     1       0.293  12.666  22.184  0.00  0.00     0.033 A 
HETATM   15  C   UNL     1      -0.764  13.105  21.374  0.00  0.00     0.002 A 
HETATM   16  C   UNL     1      -2.078  12.893  21.771  0.00  0.00     0.003 A 
HETATM   17  C   UNL     1      -2.337  12.236  22.971  0.00  0.00     0.044 A 
HETATM   18  C   UNL     1      -1.280  11.805  23.771  0.00  0.00     0.143 A 
HETATM   19  F   UNL     1      -1.587  11.231  24.947  0.00  0.00    -0.204 F 
ENDBRANCH  12  13
ENDBRANCH   3   7
BRANCH   4  20
HETATM   20  O   UNL     1      -0.769   8.204  25.469  0.00  0.00    -0.360 OA
HETATM   21  H   UNL     1      -1.564   8.533  25.015  0.00  0.00     0.217 HD
ENDBRANCH   4  20
BRANCH   1  22
HETATM   22  S   UNL     1       3.893   7.098  22.001  0.00  0.00     0.246 S 
HETATM   23  O   UNL     1       3.531   6.342  20.819  0.00  0.00    -0.206 OA
HETATM   24  O   UNL     1       4.883   6.555  22.903  0.00  0.00    -0.206 OA
BRANCH  22  25
HETATM   25  N   UNL     1       4.392   8.691  21.500  0.00  0.00    -0.207 NA
HETATM   26  C   UNL     1       4.518   8.797  20.017  0.00  0.00     0.130 C 
BRANCH  25  27
HETATM   27  C   UNL     1       5.529   9.362  22.244  0.00  0.00     0.065 C 
HETATM   28  C   UNL     1       6.556   9.968  21.274  0.00  0.00     0.027 C 
HETATM   29  C   UNL     1       5.075  10.517  23.142  0.00  0.00     0.027 C 
ENDBRANCH  25  27
ENDBRANCH  22  25
ENDBRANCH   1  22
BRANCH   6  30
HETATM   30  O   UNL     1       1.680   5.126  22.901  0.00  0.00    -0.359 OA
HETATM   31  H   UNL     1       0.866   4.613  23.048  0.00  0.00     0.217 HD
ENDBRANCH   6  30
TORSDOF 7
ENDMDL
MODEL 8
REMARK VINA RESULT:    -6.662      2.651      4.321
REMARK INTER + INTRA:         -10.811
REMARK INTER:                 -10.130
REMARK INTRA:                  -0.681
REMARK UNBOUND:                -1.812
REMARK  7 active torsions:
REMARK  status: ('A' for Active; 'I' for Inactive)
REMARK    1  A    between atoms: C_2  and  N_4 
REMARK    2  A    between atoms: N_4  and  S_6 
REMARK    3  A    between atoms: S_6  and  C_9 
REMARK    4  A    between atoms: C_11  and  C_12 
REMARK    5  A    between atoms: N_17  and  C_18 
REMARK    6  A    between atoms: C_25  and  O_26 
REMARK    7  A    between atoms: C_28  and  O_29 
ROOT
HETATM    1  C   UNL     1       2.830   6.170  22.508  0.00  0.00     0.108 C 
HETATM    2  C   UNL     1       2.829   7.525  22.895  0.00  0.00     0.041 C 
HETATM    3  C   UNL     1       2.282   7.939  24.119  0.00  0.00     0.023 C 
HETATM    4  C   UNL     1       1.564   6.984  24.849  0.00  0.00     0.078 C 
HETATM    5  C   UNL     1       1.450   5.662  24.408  0.00  0.00     0.075 C 
HETATM    6  C   UNL     1       2.119   5.242  23.258  0.00  0.00     0.091 C 
ENDROOT
BRANCH   3   7
HETATM    7  C   UNL     1       2.677   9.289  24.698  0.00  0.00     0.277 C 
HETATM    8  N   UNL     1       4.003   9.681  24.155  0.00  0.00    -0.156 NA
HETATM    9  N   UNL     1       3.971  10.871  23.751  0.00  0.00    -0.093 NA
HETATM   10  C   UNL     1       2.709  11.399  23.943  0.00  0.00     0.369 C 
HETATM   11  O   UNL     1       2.437  12.578  23.777  0.00  0.00    -0.243 OA
HETATM   12  N   UNL     1       1.849  10.407  24.391  0.00  0.00    -0.264 N 
BRANCH  12  13
HETATM   13  C   UNL     1       0.490  10.575  24.756  0.00  0.00     0.080 A 
HETATM   14  C   UNL     1      -0.469  10.912  23.792  0.00  0.00     0.033 A 
HETATM   15  C   UNL     1      -1.817  11.090  24.133  0.00  0.00     0.002 A 
HETATM   16  C   UNL     1      -2.228  10.929  25.450  0.00  0.00     0.003 A 
HETATM   17  C   UNL     1      -1.295  10.582  26.424  0.00  0.00     0.044 A 
HETATM   18  C   UNL     1       0.044  10.409  26.076  0.00  0.00     0.143 A 
HETATM   19  F   UNL     1       0.910  10.134  27.066  0.00  0.00    -0.204 F 
ENDBRANCH  12  13
ENDBRANCH   3   7
BRANCH   4  20
HETATM   20  O   UNL     1       0.974   7.248  26.052  0.00  0.00    -0.360 OA
HETATM   21  H   UNL     1       1.198   6.559  26.700  0.00  0.00     0.217 HD
ENDBRANCH   4  20
BRANCH   1  22
HETATM   22  S   UNL     1       3.864   5.715  21.124  0.00  0.00     0.246 S 
HETATM   23  O   UNL     1       4.939   4.900  21.654  0.00  0.00    -0.206 OA
HETATM   24  O   UNL     1       4.196   6.891  20.351  0.00  0.00    -0.206 OA
BRANCH  22  25
HETATM   25  N   UNL     1       2.814   4.692  20.183  0.00  0.00    -0.207 NA
HETATM   26  C   UNL     1       3.376   3.321  20.011  0.00  0.00     0.130 C 
BRANCH  25  27
HETATM   27  C   UNL     1       2.206   5.251  18.912  0.00  0.00     0.065 C 
HETATM   28  C   UNL     1       3.273   5.909  18.021  0.00  0.00     0.027 C 
HETATM   29  C   UNL     1       1.534   4.189  18.036  0.00  0.00     0.027 C 
ENDBRANCH  25  27
ENDBRANCH  22  25
ENDBRANCH   1  22
BRANCH   6  30
HETATM   30  O   UNL     1       2.108   3.919  22.938  0.00  0.00    -0.359 OA
HETATM   31  H   UNL     1       1.200   3.571  22.983  0.00  0.00     0.217 HD
ENDBRANCH   6  30
TORSDOF 7
ENDMDL
MODEL 9
REMARK VINA RESULT:    -6.580      2.253      5.654
REMARK INTER + INTRA:         -10.700
REMARK INTER:                  -8.889
REMARK INTRA:                  -1.812
REMARK UNBOUND:                -1.812
REMARK  7 active torsions:
REMARK  status: ('A' for Active; 'I' for Inactive)
REMARK    1  A    between atoms: C_2  and  N_4 
REMARK    2  A    between atoms: N_4  and  S_6 
REMARK    3  A    between atoms: S_6  and  C_9 
REMARK    4  A    between atoms: C_11  and  C_12 
REMARK    5  A    between atoms: N_17  and  C_18 
REMARK    6  A    between atoms: C_25  and  O_26 
REMARK    7  A    between atoms: C_28  and  O_29 
ROOT
HETATM    1  C   UNL     1       1.988  11.399  23.868  0.00  0.00     0.108 C 
HETATM    2  C   UNL     1       1.604  10.054  23.692  0.00  0.00     0.041 C 
HETATM    3  C   UNL     1       2.552   9.025  23.596  0.00  0.00     0.023 C 
HETATM    4  C   UNL     1       3.895   9.408  23.484  0.00  0.00     0.078 C 
HETATM    5  C   UNL     1       4.277  10.752  23.529  0.00  0.00     0.075 C 
HETATM    6  C   UNL     1       3.329  11.747  23.764  0.00  0.00     0.091 C 
ENDROOT
BRANCH   3   7
HETATM    7  C   UNL     1       2.127   7.587  23.849  0.00  0.00     0.277 C 
HETATM    8  N   UNL     1       2.853   6.694  22.910  0.00  0.00    -0.156 NA
HETATM    9  N   UNL     1       3.338   5.714  23.530  0.00  0.00    -0.093 NA
HETATM   10  C   UNL     1       3.036   5.814  24.875  0.00  0.00     0.369 C 
HETATM   11  O   UNL     1       3.256   4.926  25.684  0.00  0.00    -0.243 OA
HETATM   12  N   UNL     1       2.416   7.028  25.127  0.00  0.00    -0.264 N 
BRANCH  12  13
HETATM   13  C   UNL     1       1.905   7.467  26.374  0.00  0.00     0.080 A 
HETATM   14  C   UNL     1       2.768   7.939  27.371  0.00  0.00     0.033 A 
HETATM   15  C   UNL     1       2.284   8.370  28.614  0.00  0.00     0.002 A 
HETATM   16  C   UNL     1       0.920   8.339  28.877  0.00  0.00     0.003 A 
HETATM   17  C   UNL     1       0.040   7.886  27.897  0.00  0.00     0.044 A 
HETATM   18  C   UNL     1       0.531   7.457  26.665  0.00  0.00     0.143 A 
HETATM   19  F   UNL     1      -0.356   6.973  25.779  0.00  0.00    -0.204 F 
ENDBRANCH  12  13
ENDBRANCH   3   7
BRANCH   4  20
HETATM   20  O   UNL     1       4.922   8.515  23.378  0.00  0.00    -0.360 OA
HETATM   21  H   UNL     1       5.062   8.054  24.223  0.00  0.00     0.217 HD
ENDBRANCH   4  20
BRANCH   1  22
HETATM   22  S   UNL     1       0.715  12.559  24.341  0.00  0.00     0.246 S 
HETATM   23  O   UNL     1       1.326  13.872  24.346  0.00  0.00    -0.206 OA
HETATM   24  O   UNL     1       0.047  12.094  25.536  0.00  0.00    -0.206 OA
BRANCH  22  25
HETATM   25  N   UNL     1      -0.394  12.476  23.000  0.00  0.00    -0.207 NA
HETATM   26  C   UNL     1       0.089  13.259  21.825  0.00  0.00     0.130 C 
BRANCH  25  27
HETATM   27  C   UNL     1      -1.874  12.660  23.270  0.00  0.00     0.065 C 
HETATM   28  C   UNL     1      -2.643  12.997  21.983  0.00  0.00     0.027 C 
HETATM   29  C   UNL     1      -2.552  11.411  23.842  0.00  0.00     0.027 C 
ENDBRANCH  25  27
ENDBRANCH  22  25
ENDBRANCH   1  22
BRANCH   6  30
HETATM   30  O   UNL     1       3.752  13.028  23.947  0.00  0.00    -0.359 OA
HETATM   31  H   UNL     1       4.283  13.318  23.185  0.00  0.00     0.217 HD
ENDBRANCH   6  30
TORSDOF 7
ENDMDL
