MODEL 1
REMARK VINA RESULT:    -7.318      0.000      0.000
REMARK INTER + INTRA:         -10.601
REMARK INTER:                  -9.221
REMARK INTRA:                  -1.380
REMARK UNBOUND:                -1.357
REMARK  6 active torsions:
REMARK  status: ('A' for Active; 'I' for Inactive)
REMARK    1  A    between atoms: O_1  and  C_2 
REMARK    2  A    between atoms: C_2  and  C_4 
REMARK    3  A    between atoms: C_6  and  C_7 
REMARK    4  A    between atoms: N_13  and  C_14 
REMARK    5  A    between atoms: C_21  and  O_22 
REMARK    6  A    between atoms: C_24  and  O_25 
ROOT
HETATM    1  C   UNL     1       6.288  11.615  20.932  0.00  0.00     0.071 C 
HETATM    2  C   UNL     1       6.611  12.167  22.186  0.00  0.00     0.039 C 
HETATM    3  C   UNL     1       7.828  12.825  22.368  0.00  0.00     0.046 C 
HETATM    4  C   UNL     1       8.680  12.966  21.250  0.00  0.00     0.082 C 
HETATM    5  C   UNL     1       8.426  12.311  20.048  0.00  0.00     0.075 C 
HETATM    6  C   UNL     1       7.228  11.628  19.897  0.00  0.00     0.085 C 
ENDROOT
BRANCH   3   7
HETATM    7  C   UNL     1       8.197  13.496  23.640  0.00  0.00     0.172 A 
HETATM    8  N   UNL     1       9.402  13.336  24.130  0.00  0.00    -0.151 NA
HETATM    9  N   UNL     1       9.425  14.098  25.250  0.00  0.00    -0.226 N 
HETATM   10  H   UNL     1      10.176  14.067  25.931  0.00  0.00     0.194 HD
HETATM   11  C   UNL     1       8.193  14.691  25.471  0.00  0.00     0.349 A 
HETATM   12  O   UNL     1       7.888  15.296  26.485  0.00  0.00    -0.245 OA
HETATM   13  N   UNL     1       7.414  14.352  24.372  0.00  0.00    -0.241 N 
BRANCH  13  14
HETATM   14  C   UNL     1       6.031  14.617  24.404  0.00  0.00     0.084 A 
HETATM   15  C   UNL     1       5.189  13.663  25.004  0.00  0.00     0.033 A 
HETATM   16  C   UNL     1       3.801  13.747  24.876  0.00  0.00     0.002 A 
HETATM   17  C   UNL     1       3.237  14.772  24.123  0.00  0.00     0.003 A 
HETATM   18  C   UNL     1       4.060  15.740  23.546  0.00  0.00     0.044 A 
HETATM   19  C   UNL     1       5.446  15.671  23.701  0.00  0.00     0.143 A 
HETATM   20  F   UNL     1       6.211  16.577  23.070  0.00  0.00    -0.204 F 
ENDBRANCH  13  14
ENDBRANCH   3   7
BRANCH   4  21
HETATM   21  O   UNL     1       9.766  13.804  21.228  0.00  0.00    -0.360 OA
HETATM   22  H   UNL     1      10.529  13.310  21.606  0.00  0.00     0.217 HD
ENDBRANCH   4  21
BRANCH   1  23
HETATM   23  C   UNL     1       4.899  11.107  20.739  0.00  0.00     0.179 C 
HETATM   24  O   UNL     1       4.668   9.995  20.317  0.00  0.00    -0.646 OA
BRANCH  23  25
HETATM   25  O   UNL     1       3.942  11.938  21.201  0.00  0.00    -0.773 OA
HETATM   26  H   UNL     1       3.580  12.534  20.504  0.00  0.00     0.167 HD
ENDBRANCH  23  25
ENDBRANCH   1  23
BRANCH   6  27
HETATM   27  O   UNL     1       6.947  11.030  18.698  0.00  0.00    -0.360 OA
HETATM   28  H   UNL     1       7.419  10.173  18.663  0.00  0.00     0.217 HD
ENDBRANCH   6  27
TORSDOF 6
ENDMDL
MODEL 2
REMARK VINA RESULT:    -7.009      2.983      4.363
REMARK INTER + INTRA:         -10.210
REMARK INTER:                  -8.801
REMARK INTRA:                  -1.409
REMARK UNBOUND:                -1.357
REMARK  6 active torsions:
REMARK  status: ('A' for Active; 'I' for Inactive)
REMARK    1  A    between atoms: O_1  and  C_2 
REMARK    2  A    between atoms: C_2  and  C_4 
REMARK    3  A    between atoms: C_6  and  C_7 
REMARK    4  A    between atoms: N_13  and  C_14 
REMARK    5  A    between atoms: C_21  and  O_22 
REMARK    6  A    between atoms: C_24  and  O_25 
ROOT
HETATM    1  C   UNL     1       5.422  10.689  20.382  0.00  0.00     0.071 C 
HETATM    2  C   UNL     1       4.587  11.613  21.040  0.00  0.00     0.039 C 
HETATM    3  C   UNL     1       4.299  11.453  22.395  0.00  0.00     0.046 C 
HETATM    4  C   UNL     1       4.916  10.386  23.084  0.00  0.00     0.082 C 
HETATM    5  C   UNL     1       5.634   9.398  22.413  0.00  0.00     0.075 C 
HETATM    6  C   UNL     1       5.878   9.552  21.057  0.00  0.00     0.085 C 
ENDROOT
BRANCH   3   7
HETATM    7  C   UNL     1       3.490  12.431  23.165  0.00  0.00     0.172 A 
HETATM    8  N   UNL     1       2.184  12.325  23.174  0.00  0.00    -0.151 NA
HETATM    9  N   UNL     1       1.759  13.324  23.986  0.00  0.00    -0.226 N 
HETATM   10  H   UNL     1       0.787  13.594  24.077  0.00  0.00     0.194 HD
HETATM   11  C   UNL     1       2.828  14.081  24.438  0.00  0.00     0.349 A 
HETATM   12  O   UNL     1       2.722  15.130  25.050  0.00  0.00    -0.245 OA
HETATM   13  N   UNL     1       3.965  13.446  23.957  0.00  0.00    -0.241 N 
BRANCH  13  14
HETATM   14  C   UNL     1       5.209  14.098  24.057  0.00  0.00     0.084 A 
HETATM   15  C   UNL     1       5.545  15.037  23.064  0.00  0.00     0.033 A 
HETATM   16  C   UNL     1       6.839  15.553  22.971  0.00  0.00     0.002 A 
HETATM   17  C   UNL     1       7.823  15.118  23.854  0.00  0.00     0.003 A 
HETATM   18  C   UNL     1       7.496  14.208  24.860  0.00  0.00     0.044 A 
HETATM   19  C   UNL     1       6.193  13.716  24.970  0.00  0.00     0.143 A 
HETATM   20  F   UNL     1       5.932  12.786  25.903  0.00  0.00    -0.204 F 
ENDBRANCH  13  14
ENDBRANCH   3   7
BRANCH   4  21
HETATM   21  O   UNL     1       4.927  10.272  24.451  0.00  0.00    -0.360 OA
HETATM   22  H   UNL     1       5.308   9.392  24.672  0.00  0.00     0.217 HD
ENDBRANCH   4  21
BRANCH   1  23
HETATM   23  C   UNL     1       5.858  11.020  18.994  0.00  0.00     0.179 C 
HETATM   24  O   UNL     1       5.069  11.265  18.108  0.00  0.00    -0.646 OA
BRANCH  23  25
HETATM   25  O   UNL     1       7.193  11.152  18.856  0.00  0.00    -0.773 OA
HETATM   26  H   UNL     1       7.699  10.771  19.611  0.00  0.00     0.167 HD
ENDBRANCH  23  25
ENDBRANCH   1  23
BRANCH   6  27
HETATM   27  O   UNL     1       6.632   8.614  20.403  0.00  0.00    -0.360 OA
HETATM   28  H   UNL     1       6.900   7.930  21.048  0.00  0.00     0.217 HD
ENDBRANCH   6  27
TORSDOF 6
ENDMDL
MODEL 3
REMARK VINA RESULT:    -6.976      2.034      3.074
REMARK INTER + INTRA:         -10.168
REMARK INTER:                  -8.736
REMARK INTRA:                  -1.433
REMARK UNBOUND:                -1.357
REMARK  6 active torsions:
REMARK  status: ('A' for Active; 'I' for Inactive)
REMARK    1  A    between atoms: O_1  and  C_2 
REMARK    2  A    between atoms: C_2  and  C_4 
REMARK    3  A    between atoms: C_6  and  C_7 
REMARK    4  A    between atoms: N_13  and  C_14 
REMARK    5  A    between atoms: C_21  and  O_22 
REMARK    6  A    between atoms: C_24  and  O_25 
ROOT
HETATM    1  C   UNL     1       5.836  10.555  20.413  0.00  0.00     0.071 C 
HETATM    2  C   UNL     1       6.571  11.309  21.348  0.00  0.00     0.039 C 
HETATM    3  C   UNL     1       6.568  10.946  22.695  0.00  0.00     0.046 C 
HETATM    4  C   UNL     1       5.864   9.780  23.068  0.00  0.00     0.082 C 
HETATM    5  C   UNL     1       5.032   9.110  22.174  0.00  0.00     0.075 C 
HETATM    6  C   UNL     1       5.016   9.508  20.846  0.00  0.00     0.085 C 
ENDROOT
BRANCH   3   7
HETATM    7  C   UNL     1       7.382  11.650  23.718  0.00  0.00     0.172 A 
HETATM    8  N   UNL     1       8.392  11.032  24.280  0.00  0.00    -0.151 NA
HETATM    9  N   UNL     1       8.937  11.948  25.117  0.00  0.00    -0.226 N 
HETATM   10  H   UNL     1       9.648  11.722  25.804  0.00  0.00     0.194 HD
HETATM   11  C   UNL     1       8.212  13.128  25.100  0.00  0.00     0.349 A 
HETATM   12  O   UNL     1       8.385  14.056  25.870  0.00  0.00    -0.245 OA
HETATM   13  N   UNL     1       7.238  12.953  24.126  0.00  0.00    -0.241 N 
BRANCH  13  14
HETATM   14  C   UNL     1       6.195  13.893  24.022  0.00  0.00     0.084 A 
HETATM   15  C   UNL     1       6.472  15.122  23.395  0.00  0.00     0.033 A 
HETATM   16  C   UNL     1       5.563  16.180  23.454  0.00  0.00     0.002 A 
HETATM   17  C   UNL     1       4.375  16.033  24.163  0.00  0.00     0.003 A 
HETATM   18  C   UNL     1       4.076  14.811  24.767  0.00  0.00     0.044 A 
HETATM   19  C   UNL     1       4.973  13.744  24.681  0.00  0.00     0.143 A 
HETATM   20  F   UNL     1       4.687  12.607  25.335  0.00  0.00    -0.204 F 
ENDBRANCH  13  14
ENDBRANCH   3   7
BRANCH   4  21
HETATM   21  O   UNL     1       5.994   9.176  24.292  0.00  0.00    -0.360 OA
HETATM   22  H   UNL     1       5.890   9.873  24.979  0.00  0.00     0.217 HD
ENDBRANCH   4  21
BRANCH   1  23
HETATM   23  C   UNL     1       6.037  10.863  18.968  0.00  0.00     0.179 C 
HETATM   24  O   UNL     1       5.125  10.862  18.170  0.00  0.00    -0.646 OA
BRANCH  23  25
HETATM   25  O   UNL     1       7.287  11.271  18.663  0.00  0.00    -0.773 OA
HETATM   26  H   UNL     1       7.381  12.251  18.655  0.00  0.00     0.167 HD
ENDBRANCH  23  25
ENDBRANCH   1  23
BRANCH   6  27
HETATM   27  O   UNL     1       4.244   8.817  19.950  0.00  0.00    -0.360 OA
HETATM   28  H   UNL     1       3.799   9.462  19.365  0.00  0.00     0.217 HD
ENDBRANCH   6  27
TORSDOF 6
ENDMDL
MODEL 4
REMARK VINA RESULT:    -6.906      1.623      2.587
REMARK INTER + INTRA:         -10.080
REMARK INTER:                  -8.662
REMARK INTRA:                  -1.418
REMARK UNBOUND:                -1.357
REMARK  6 active torsions:
REMARK  status: ('A' for Active; 'I' for Inactive)
REMARK    1  A    between atoms: O_1  and  C_2 
REMARK    2  A    between atoms: C_2  and  C_4 
REMARK    3  A    between atoms: C_6  and  C_7 
REMARK    4  A    between atoms: N_13  and  C_14 
REMARK    5  A    between atoms: C_21  and  O_22 
REMARK    6  A    between atoms: C_24  and  O_25 
ROOT
HETATM    1  C   UNL     1       5.764  10.840  20.525  0.00  0.00     0.071 C 
HETATM    2  C   UNL     1       6.445  11.662  21.443  0.00  0.00     0.039 C 
HETATM    3  C   UNL     1       6.413  11.364  22.806  0.00  0.00     0.046 C 
HETATM    4  C   UNL     1       5.735  10.194  23.214  0.00  0.00     0.082 C 
HETATM    5  C   UNL     1       4.953   9.454  22.330  0.00  0.00     0.075 C 
HETATM    6  C   UNL     1       4.965   9.787  20.985  0.00  0.00     0.085 C 
ENDROOT
BRANCH   3   7
HETATM    7  C   UNL     1       7.172  12.144  23.817  0.00  0.00     0.172 A 
HETATM    8  N   UNL     1       8.320  11.689  24.255  0.00  0.00    -0.151 NA
HETATM    9  N   UNL     1       8.763  12.638  25.116  0.00  0.00    -0.226 N 
HETATM   10  H   UNL     1       9.558  12.506  25.731  0.00  0.00     0.194 HD
HETATM   11  C   UNL     1       7.840  13.663  25.240  0.00  0.00     0.349 A 
HETATM   12  O   UNL     1       7.909  14.560  26.063  0.00  0.00    -0.245 OA
HETATM   13  N   UNL     1       6.833  13.370  24.329  0.00  0.00    -0.241 N 
BRANCH  13  14
HETATM   14  C   UNL     1       5.634  14.107  24.372  0.00  0.00     0.084 A 
HETATM   15  C   UNL     1       4.485  13.472  24.878  0.00  0.00     0.033 A 
HETATM   16  C   UNL     1       3.223  14.055  24.746  0.00  0.00     0.002 A 
HETATM   17  C   UNL     1       3.089  15.271  24.082  0.00  0.00     0.003 A 
HETATM   18  C   UNL     1       4.224  15.924  23.599  0.00  0.00     0.044 A 
HETATM   19  C   UNL     1       5.488  15.353  23.760  0.00  0.00     0.143 A 
HETATM   20  F   UNL     1       6.549  15.973  23.218  0.00  0.00    -0.204 F 
ENDBRANCH  13  14
ENDBRANCH   3   7
BRANCH   4  21
HETATM   21  O   UNL     1       5.847   9.654  24.470  0.00  0.00    -0.360 OA
HETATM   22  H   UNL     1       5.651  10.368  25.118  0.00  0.00     0.217 HD
ENDBRANCH   4  21
BRANCH   1  23
HETATM   23  C   UNL     1       5.999  11.085  19.073  0.00  0.00     0.179 C 
HETATM   24  O   UNL     1       5.092  11.254  18.288  0.00  0.00    -0.646 OA
BRANCH  23  25
HETATM   25  O   UNL     1       7.300  11.234  18.746  0.00  0.00    -0.773 OA
HETATM   26  H   UNL     1       7.900  10.668  19.284  0.00  0.00     0.167 HD
ENDBRANCH  23  25
ENDBRANCH   1  23
BRANCH   6  27
HETATM   27  O   UNL     1       4.244   9.029  20.102  0.00  0.00    -0.360 OA
HETATM   28  H   UNL     1       4.857   8.415  19.651  0.00  0.00     0.217 HD
ENDBRANCH   6  27
TORSDOF 6
ENDMDL
MODEL 5
REMARK VINA RESULT:    -6.771      2.242      3.413
REMARK INTER + INTRA:          -9.910
REMARK INTER:                  -8.639
REMARK INTRA:                  -1.271
REMARK UNBOUND:                -1.357
REMARK  6 active torsions:
REMARK  status: ('A' for Active; 'I' for Inactive)
REMARK    1  A    between atoms: O_1  and  C_2 
REMARK    2  A    between atoms: C_2  and  C_4 
REMARK    3  A    between atoms: C_6  and  C_7 
REMARK    4  A    between atoms: N_13  and  C_14 
REMARK    5  A    between atoms: C_21  and  O_22 
REMARK    6  A    between atoms: C_24  and  O_25 
ROOT
HETATM    1  C   UNL     1       5.456  10.037  22.330  0.00  0.00     0.071 C 
HETATM    2  C   UNL     1       6.460  11.022  22.390  0.00  0.00     0.039 C 
HETATM    3  C   UNL     1       7.152  11.387  21.236  0.00  0.00     0.046 C 
HETATM    4  C   UNL     1       6.772  10.785  20.016  0.00  0.00     0.082 C 
HETATM    5  C   UNL     1       5.875   9.720  19.972  0.00  0.00     0.075 C 
HETATM    6  C   UNL     1       5.224   9.344  21.137  0.00  0.00     0.085 C 
ENDROOT
BRANCH   3   7
HETATM    7  C   UNL     1       8.167  12.471  21.216  0.00  0.00     0.172 A 
HETATM    8  N   UNL     1       9.252  12.327  20.495  0.00  0.00    -0.151 NA
HETATM    9  N   UNL     1       9.933  13.488  20.659  0.00  0.00    -0.226 N 
HETATM   10  H   UNL     1      10.887  13.624  20.344  0.00  0.00     0.194 HD
HETATM   11  C   UNL     1       9.271  14.330  21.537  0.00  0.00     0.349 A 
HETATM   12  O   UNL     1       9.735  15.365  21.985  0.00  0.00    -0.245 OA
HETATM   13  N   UNL     1       8.077  13.689  21.840  0.00  0.00    -0.241 N 
BRANCH  13  14
HETATM   14  C   UNL     1       7.277  14.187  22.887  0.00  0.00     0.084 A 
HETATM   15  C   UNL     1       6.164  14.978  22.550  0.00  0.00     0.033 A 
HETATM   16  C   UNL     1       5.462  15.685  23.528  0.00  0.00     0.002 A 
HETATM   17  C   UNL     1       5.881  15.633  24.854  0.00  0.00     0.003 A 
HETATM   18  C   UNL     1       6.967  14.831  25.205  0.00  0.00     0.044 A 
HETATM   19  C   UNL     1       7.649  14.100  24.230  0.00  0.00     0.143 A 
HETATM   20  F   UNL     1       8.735  13.398  24.592  0.00  0.00    -0.204 F 
ENDBRANCH  13  14
ENDBRANCH   3   7
BRANCH   4  21
HETATM   21  O   UNL     1       7.185  11.237  18.788  0.00  0.00    -0.360 OA
HETATM   22  H   UNL     1       6.611  10.815  18.109  0.00  0.00     0.217 HD
ENDBRANCH   4  21
BRANCH   1  23
HETATM   23  C   UNL     1       4.614   9.834  23.544  0.00  0.00     0.179 C 
HETATM   24  O   UNL     1       5.088   9.749  24.656  0.00  0.00    -0.646 OA
BRANCH  23  25
HETATM   25  O   UNL     1       3.287   9.892  23.307  0.00  0.00    -0.773 OA
HETATM   26  H   UNL     1       3.064  10.374  22.477  0.00  0.00     0.167 HD
ENDBRANCH  23  25
ENDBRANCH   1  23
BRANCH   6  27
HETATM   27  O   UNL     1       4.299   8.336  21.090  0.00  0.00    -0.360 OA
HETATM   28  H   UNL     1       4.749   7.519  20.794  0.00  0.00     0.217 HD
ENDBRANCH   6  27
TORSDOF 6
ENDMDL
MODEL 6
REMARK VINA RESULT:    -6.648      3.140      5.221
REMARK INTER + INTRA:          -9.754
REMARK INTER:                  -8.399
REMARK INTRA:                  -1.355
REMARK UNBOUND:                -1.357
REMARK  6 active torsions:
REMARK  status: ('A' for Active; 'I' for Inactive)
REMARK    1  A    between atoms: O_1  and  C_2 
REMARK    2  A    between atoms: C_2  and  C_4 
REMARK    3  A    between atoms: C_6  and  C_7 
REMARK    4  A    between atoms: N_13  and  C_14 
REMARK    5  A    between atoms: C_21  and  O_22 
REMARK    6  A    between atoms: C_24  and  O_25 
ROOT
HETATM    1  C   UNL     1       7.489  14.657  22.503  0.00  0.00     0.071 C 
HETATM    2  C   UNL     1       6.768  13.637  21.853  0.00  0.00     0.039 C 
HETATM    3  C   UNL     1       7.431  12.728  21.029  0.00  0.00     0.046 C 
HETATM    4  C   UNL     1       8.836  12.831  20.922  0.00  0.00     0.082 C 
HETATM    5  C   UNL     1       9.534  13.912  21.455  0.00  0.00     0.075 C 
HETATM    6  C   UNL     1       8.852  14.829  22.240  0.00  0.00     0.085 C 
ENDROOT
BRANCH   3   7
HETATM    7  C   UNL     1       6.744  11.585  20.377  0.00  0.00     0.172 A 
HETATM    8  N   UNL     1       6.992  11.314  19.119  0.00  0.00    -0.151 NA
HETATM    9  N   UNL     1       6.252  10.211  18.849  0.00  0.00    -0.226 N 
HETATM   10  H   UNL     1       6.116   9.845  17.913  0.00  0.00     0.194 HD
HETATM   11  C   UNL     1       5.502   9.836  19.952  0.00  0.00     0.349 A 
HETATM   12  O   UNL     1       4.634   8.981  19.940  0.00  0.00    -0.245 OA
HETATM   13  N   UNL     1       5.885  10.696  20.973  0.00  0.00    -0.241 N 
BRANCH  13  14
HETATM   14  C   UNL     1       5.139  10.719  22.167  0.00  0.00     0.084 A 
HETATM   15  C   UNL     1       5.492   9.815  23.185  0.00  0.00     0.033 A 
HETATM   16  C   UNL     1       4.667   9.625  24.296  0.00  0.00     0.002 A 
HETATM   17  C   UNL     1       3.465  10.318  24.391  0.00  0.00     0.003 A 
HETATM   18  C   UNL     1       3.116  11.239  23.402  0.00  0.00     0.044 A 
HETATM   19  C   UNL     1       3.957  11.449  22.307  0.00  0.00     0.143 A 
HETATM   20  F   UNL     1       3.556  12.287  21.337  0.00  0.00    -0.204 F 
ENDBRANCH  13  14
ENDBRANCH   3   7
BRANCH   4  21
HETATM   21  O   UNL     1       9.626  11.858  20.365  0.00  0.00    -0.360 OA
HETATM   22  H   UNL     1      10.114  12.267  19.615  0.00  0.00     0.217 HD
ENDBRANCH   4  21
BRANCH   1  23
HETATM   23  C   UNL     1       6.767  15.469  23.525  0.00  0.00     0.179 C 
HETATM   24  O   UNL     1       5.754  16.083  23.269  0.00  0.00    -0.646 OA
BRANCH  23  25
HETATM   25  O   UNL     1       7.263  15.345  24.773  0.00  0.00    -0.773 OA
HETATM   26  H   UNL     1       6.880  14.583  25.267  0.00  0.00     0.167 HD
ENDBRANCH  23  25
ENDBRANCH   1  23
BRANCH   6  27
HETATM   27  O   UNL     1       9.543  15.863  22.814  0.00  0.00    -0.360 OA
HETATM   28  H   UNL     1       9.794  15.599  23.722  0.00  0.00     0.217 HD
ENDBRANCH   6  27
TORSDOF 6
ENDMDL
MODEL 7
REMARK VINA RESULT:    -6.627      2.468      5.134
REMARK INTER + INTRA:          -9.728
REMARK INTER:                  -8.469
REMARK INTRA:                  -1.259
REMARK UNBOUND:                -1.357
REMARK  6 active torsions:
REMARK  status: ('A' for Active; 'I' for Inactive)
REMARK    1  A    between atoms: O_1  and  C_2 
REMARK    2  A    between atoms: C_2  and  C_4 
REMARK    3  A    between atoms: C_6  and  C_7 
REMARK    4  A    between atoms: N_13  and  C_14 
REMARK    5  A    between atoms: C_21  and  O_22 
REMARK    6  A    between atoms: C_24  and  O_25 
ROOT
HETATM    1  C   UNL     1       3.819  13.698  22.887  0.00  0.00     0.071 C 
HETATM    2  C   UNL     1       5.007  13.544  22.147  0.00  0.00     0.039 C 
HETATM    3  C   UNL     1       6.148  14.265  22.498  0.00  0.00     0.046 C 
HETATM    4  C   UNL     1       6.085  15.093  23.641  0.00  0.00     0.082 C 
HETATM    5  C   UNL     1       4.881  15.348  24.295  0.00  0.00     0.075 C 
HETATM    6  C   UNL     1       3.747  14.652  23.908  0.00  0.00     0.085 C 
ENDROOT
BRANCH   3   7
HETATM    7  C   UNL     1       7.451  14.093  21.808  0.00  0.00     0.172 A 
HETATM    8  N   UNL     1       8.271  15.111  21.710  0.00  0.00    -0.151 NA
HETATM    9  N   UNL     1       9.363  14.617  21.077  0.00  0.00    -0.226 N 
HETATM   10  H   UNL     1      10.114  15.200  20.724  0.00  0.00     0.194 HD
HETATM   11  C   UNL     1       9.180  13.286  20.741  0.00  0.00     0.349 A 
HETATM   12  O   UNL     1       9.933  12.644  20.029  0.00  0.00    -0.245 OA
HETATM   13  N   UNL     1       7.955  12.927  21.288  0.00  0.00    -0.241 N 
BRANCH  13  14
HETATM   14  C   UNL     1       7.378  11.695  20.929  0.00  0.00     0.084 A 
HETATM   15  C   UNL     1       6.773  11.591  19.663  0.00  0.00     0.033 A 
HETATM   16  C   UNL     1       5.991  10.484  19.327  0.00  0.00     0.002 A 
HETATM   17  C   UNL     1       5.781   9.477  20.263  0.00  0.00     0.003 A 
HETATM   18  C   UNL     1       6.398   9.553  21.513  0.00  0.00     0.044 A 
HETATM   19  C   UNL     1       7.204  10.647  21.835  0.00  0.00     0.143 A 
HETATM   20  F   UNL     1       7.721  10.725  23.072  0.00  0.00    -0.204 F 
ENDBRANCH  13  14
ENDBRANCH   3   7
BRANCH   4  21
HETATM   21  O   UNL     1       7.189  15.644  24.238  0.00  0.00    -0.360 OA
HETATM   22  H   UNL     1       6.978  16.582  24.445  0.00  0.00     0.217 HD
ENDBRANCH   4  21
BRANCH   1  23
HETATM   23  C   UNL     1       2.698  12.757  22.597  0.00  0.00     0.179 C 
HETATM   24  O   UNL     1       2.116  12.152  23.471  0.00  0.00    -0.646 OA
BRANCH  23  25
HETATM   25  O   UNL     1       2.310  12.749  21.305  0.00  0.00    -0.773 OA
HETATM   26  H   UNL     1       2.674  11.986  20.798  0.00  0.00     0.167 HD
ENDBRANCH  23  25
ENDBRANCH   1  23
BRANCH   6  27
HETATM   27  O   UNL     1       2.574  14.856  24.584  0.00  0.00    -0.360 OA
HETATM   28  H   UNL     1       2.507  14.186  25.294  0.00  0.00     0.217 HD
ENDBRANCH   6  27
TORSDOF 6
ENDMDL
MODEL 8
REMARK VINA RESULT:    -6.568      2.736      5.205
REMARK INTER + INTRA:          -9.653
REMARK INTER:                  -8.296
REMARK INTRA:                  -1.357
REMARK UNBOUND:                -1.357
REMARK  6 active torsions:
REMARK  status: ('A' for Active; 'I' for Inactive)
REMARK    1  A    between atoms: O_1  and  C_2 
REMARK    2  A    between atoms: C_2  and  C_4 
REMARK    3  A    between atoms: C_6  and  C_7 
REMARK    4  A    between atoms: N_13  and  C_14 
REMARK    5  A    between atoms: C_21  and  O_22 
REMARK    6  A    between atoms: C_24  and  O_25 
ROOT
HETATM    1  C   UNL     1       3.902  14.198  23.453  0.00  0.00     0.071 C 
HETATM    2  C   UNL     1       5.144  13.546  23.330  0.00  0.00     0.039 C 
HETATM    3  C   UNL     1       5.300  12.507  22.413  0.00  0.00     0.046 C 
HETATM    4  C   UNL     1       4.203  12.181  21.586  0.00  0.00     0.082 C 
HETATM    5  C   UNL     1       2.940  12.730  21.793  0.00  0.00     0.075 C 
HETATM    6  C   UNL     1       2.793  13.736  22.737  0.00  0.00     0.085 C 
ENDROOT
BRANCH   3   7
HETATM    7  C   UNL     1       6.601  11.831  22.179  0.00  0.00     0.172 A 
HETATM    8  N   UNL     1       6.640  10.526  22.061  0.00  0.00    -0.151 NA
HETATM    9  N   UNL     1       7.942  10.238  21.818  0.00  0.00    -0.226 N 
HETATM   10  H   UNL     1       8.316   9.296  21.826  0.00  0.00     0.194 HD
HETATM   11  C   UNL     1       8.715  11.387  21.839  0.00  0.00     0.349 A 
HETATM   12  O   UNL     1       9.933  11.401  21.809  0.00  0.00    -0.245 OA
HETATM   13  N   UNL     1       7.819  12.436  22.002  0.00  0.00    -0.241 N 
BRANCH  13  14
HETATM   14  C   UNL     1       8.315  13.723  22.287  0.00  0.00     0.084 A 
HETATM   15  C   UNL     1       8.584  14.583  21.208  0.00  0.00     0.033 A 
HETATM   16  C   UNL     1       9.280  15.779  21.396  0.00  0.00     0.002 A 
HETATM   17  C   UNL     1       9.742  16.117  22.664  0.00  0.00     0.003 A 
HETATM   18  C   UNL     1       9.458  15.286  23.749  0.00  0.00     0.044 A 
HETATM   19  C   UNL     1       8.735  14.106  23.563  0.00  0.00     0.143 A 
HETATM   20  F   UNL     1       8.544  13.294  24.615  0.00  0.00    -0.204 F 
ENDBRANCH  13  14
ENDBRANCH   3   7
BRANCH   4  21
HETATM   21  O   UNL     1       4.301  11.372  20.483  0.00  0.00    -0.360 OA
HETATM   22  H   UNL     1       3.560  11.604  19.878  0.00  0.00     0.217 HD
ENDBRANCH   4  21
BRANCH   1  23
HETATM   23  C   UNL     1       3.848  15.428  24.296  0.00  0.00     0.179 C 
HETATM   24  O   UNL     1       4.384  16.464  23.967  0.00  0.00    -0.646 OA
BRANCH  23  25
HETATM   25  O   UNL     1       3.046  15.318  25.375  0.00  0.00    -0.773 OA
HETATM   26  H   UNL     1       2.464  14.524  25.344  0.00  0.00     0.167 HD
ENDBRANCH  23  25
ENDBRANCH   1  23
BRANCH   6  27
HETATM   27  O   UNL     1       1.566  14.320  22.906  0.00  0.00    -0.360 OA
HETATM   28  H   UNL     1       1.702  15.259  23.144  0.00  0.00     0.217 HD
ENDBRANCH   6  27
TORSDOF 6
ENDMDL
MODEL 9
REMARK VINA RESULT:    -5.954      2.310      3.357
REMARK INTER + INTRA:          -8.878
REMARK INTER:                  -7.659
REMARK INTRA:                  -1.218
REMARK UNBOUND:                -1.357
REMARK  6 active torsions:
REMARK  status: ('A' for Active; 'I' for Inactive)
REMARK    1  A    between atoms: O_1  and  C_2 
REMARK    2  A    between atoms: C_2  and  C_4 
REMARK    3  A    between atoms: C_6  and  C_7 
REMARK    4  A    between atoms: N_13  and  C_14 
REMARK    5  A    between atoms: C_21  and  O_22 
REMARK    6  A    between atoms: C_24  and  O_25 
ROOT
HETATM    1  C   UNL     1       5.352  10.311  19.745  0.00  0.00     0.071 C 
HETATM    2  C   UNL     1       6.254  11.389  19.831  0.00  0.00     0.039 C 
HETATM    3  C   UNL     1       7.111  11.497  20.927  0.00  0.00     0.046 C 
HETATM    4  C   UNL     1       7.082  10.471  21.896  0.00  0.00     0.082 C 
HETATM    5  C   UNL     1       6.105   9.477  21.883  0.00  0.00     0.075 C 
HETATM    6  C   UNL     1       5.236   9.407  20.806  0.00  0.00     0.085 C 
ENDROOT
BRANCH   3   7
HETATM    7  C   UNL     1       8.137  12.564  21.042  0.00  0.00     0.172 A 
HETATM    8  N   UNL     1       9.246  12.472  20.349  0.00  0.00    -0.151 NA
HETATM    9  N   UNL     1       9.933  13.602  20.642  0.00  0.00    -0.226 N 
HETATM   10  H   UNL     1      10.899  13.754  20.374  0.00  0.00     0.194 HD
HETATM   11  C   UNL     1       9.249  14.370  21.570  0.00  0.00     0.349 A 
HETATM   12  O   UNL     1       9.708  15.353  22.127  0.00  0.00    -0.245 OA
HETATM   13  N   UNL     1       8.038  13.721  21.772  0.00  0.00    -0.241 N 
BRANCH  13  14
HETATM   14  C   UNL     1       7.208  14.132  22.832  0.00  0.00     0.084 A 
HETATM   15  C   UNL     1       6.176  15.045  22.548  0.00  0.00     0.033 A 
HETATM   16  C   UNL     1       5.461  15.665  23.574  0.00  0.00     0.002 A 
HETATM   17  C   UNL     1       5.787  15.402  24.901  0.00  0.00     0.003 A 
HETATM   18  C   UNL     1       6.790  14.477  25.197  0.00  0.00     0.044 A 
HETATM   19  C   UNL     1       7.483  13.835  24.168  0.00  0.00     0.143 A 
HETATM   20  F   UNL     1       8.491  13.009  24.488  0.00  0.00    -0.204 F 
ENDBRANCH  13  14
ENDBRANCH   3   7
BRANCH   4  21
HETATM   21  O   UNL     1       8.037  10.321  22.869  0.00  0.00    -0.360 OA
HETATM   22  H   UNL     1       7.582  10.363  23.740  0.00  0.00     0.217 HD
ENDBRANCH   4  21
BRANCH   1  23
HETATM   23  C   UNL     1       4.609  10.134  18.464  0.00  0.00     0.179 C 
HETATM   24  O   UNL     1       3.930   9.157  18.237  0.00  0.00    -0.646 OA
BRANCH  23  25
HETATM   25  O   UNL     1       4.654  11.210  17.651  0.00  0.00    -0.773 OA
HETATM   26  H   UNL     1       4.825  12.051  18.134  0.00  0.00     0.167 HD
ENDBRANCH  23  25
ENDBRANCH   1  23
BRANCH   6  27
HETATM   27  O   UNL     1       4.310   8.399  20.758  0.00  0.00    -0.360 OA
HETATM   28  H   UNL     1       3.425   8.785  20.914  0.00  0.00     0.217 HD
ENDBRANCH   6  27
TORSDOF 6
ENDMDL
