MODEL 1
REMARK VINA RESULT:    -9.313      0.000      0.000
REMARK INTER + INTRA:         -12.862
REMARK INTER:                 -11.230
REMARK INTRA:                  -1.632
REMARK UNBOUND:                -1.099
REMARK  5 active torsions:
REMARK  status: ('A' for Active; 'I' for Inactive)
REMARK    1  A    between atoms: C_6  and  C_7 
REMARK    2  A    between atoms: C_7  and  C_8 
REMARK    3  A    between atoms: C_15  and  C_19 
REMARK    4  A    between atoms: C_16  and  O_18 
REMARK    5  A    between atoms: N_23  and  C_24 
ROOT
HETATM    1  C   UNL     1      -0.520  16.256  21.903  0.00  0.00     0.071 A 
HETATM    2  N   UNL     1      -1.152  16.926  20.923  0.00  0.00    -0.178 NA
HETATM    3  N   UNL     1      -1.989  16.025  20.395  0.00  0.00    -0.277 N 
HETATM    4  H   UNL     1      -2.563  16.305  19.610  0.00  0.00     0.189 HD
HETATM    5  C   UNL     1      -0.957  14.896  21.975  0.00  0.00     0.020 A 
HETATM    6  C   UNL     1      -1.910  14.784  20.970  0.00  0.00     0.065 A 
HETATM    7  C   UNL     1      -0.619  13.737  22.723  0.00  0.00     0.032 A 
HETATM    8  C   UNL     1      -1.263  12.500  22.482  0.00  0.00     0.027 A 
HETATM    9  C   UNL     1      -2.207  12.470  21.436  0.00  0.00     0.080 A 
HETATM   10  C   UNL     1      -2.555  13.592  20.664  0.00  0.00     0.069 A 
ENDROOT
BRANCH   8  11
HETATM   11  C   UNL     1      -0.844  11.256  23.192  0.00  0.00     0.073 C 
HETATM   12  C   UNL     1       0.268  10.468  22.888  0.00  0.00     0.053 C 
HETATM   13  C   UNL     1       0.428   9.571  23.938  0.00  0.00     0.141 C 
HETATM   14  N   UNL     1      -0.508   9.722  24.856  0.00  0.00    -0.179 NA
HETATM   15  N   UNL     1      -1.396  10.625  24.330  0.00  0.00    -0.234 N 
BRANCH  15  16
HETATM   16  C   UNL     1      -2.664  10.725  24.995  0.00  0.00     0.059 A 
HETATM   17  C   UNL     1      -2.669  10.807  26.407  0.00  0.00     0.031 A 
HETATM   18  C   UNL     1      -3.862  10.904  27.126  0.00  0.00     0.002 A 
HETATM   19  C   UNL     1      -5.071  10.922  26.443  0.00  0.00     0.000 A 
HETATM   20  C   UNL     1      -5.085  10.809  25.055  0.00  0.00     0.002 A 
HETATM   21  C   UNL     1      -3.888  10.686  24.331  0.00  0.00     0.031 A 
ENDBRANCH  15  16
ENDBRANCH   8  11
BRANCH   9  22
HETATM   22  O   UNL     1      -2.825  11.308  21.046  0.00  0.00    -0.360 OA
HETATM   23  H   UNL     1      -2.137  10.622  21.106  0.00  0.00     0.217 HD
ENDBRANCH   9  22
BRANCH   1  24
HETATM   24  C   UNL     1       0.618  16.894  22.629  0.00  0.00     0.100 C 
BRANCH  24  25
HETATM   25  C   UNL     1       1.928  16.247  22.235  0.00  0.00    -0.052 A 
HETATM   26  C   UNL     1       2.446  16.365  20.934  0.00  0.00     0.007 A 
HETATM   27  C   UNL     1       3.534  15.590  20.525  0.00  0.00     0.001 A 
HETATM   28  C   UNL     1       4.122  14.689  21.411  0.00  0.00     0.000 A 
HETATM   29  C   UNL     1       3.643  14.585  22.714  0.00  0.00     0.001 A 
HETATM   30  C   UNL     1       2.558  15.363  23.126  0.00  0.00     0.007 A 
ENDBRANCH  24  25
ENDBRANCH   1  24
TORSDOF 5
ENDMDL
MODEL 2
REMARK VINA RESULT:    -9.007      2.705      4.927
REMARK INTER + INTRA:         -12.476
REMARK INTER:                 -10.553
REMARK INTRA:                  -1.923
REMARK UNBOUND:                -1.099
REMARK  5 active torsions:
REMARK  status: ('A' for Active; 'I' for Inactive)
REMARK    1  A    between atoms: C_6  and  C_7 
REMARK    2  A    between atoms: C_7  and  C_8 
REMARK    3  A    between atoms: C_15  and  C_19 
REMARK    4  A    between atoms: C_16  and  O_18 
REMARK    5  A    between atoms: N_23  and  C_24 
ROOT
HETATM    1  C   UNL     1      -0.740  16.598  20.770  0.00  0.00     0.071 A 
HETATM    2  N   UNL     1       0.338  16.946  20.045  0.00  0.00    -0.178 NA
HETATM    3  N   UNL     1       1.378  16.623  20.824  0.00  0.00    -0.277 N 
HETATM    4  H   UNL     1       2.311  16.821  20.486  0.00  0.00     0.189 HD
HETATM    5  C   UNL     1      -0.366  16.064  22.043  0.00  0.00     0.020 A 
HETATM    6  C   UNL     1       1.024  16.105  22.041  0.00  0.00     0.065 A 
HETATM    7  C   UNL     1      -1.031  15.613  23.214  0.00  0.00     0.032 A 
HETATM    8  C   UNL     1      -0.301  15.176  24.345  0.00  0.00     0.027 A 
HETATM    9  C   UNL     1       1.104  15.261  24.265  0.00  0.00     0.080 A 
HETATM   10  C   UNL     1       1.796  15.717  23.130  0.00  0.00     0.069 A 
ENDROOT
BRANCH   8  11
HETATM   11  C   UNL     1      -0.989  14.796  25.613  0.00  0.00     0.073 C 
HETATM   12  C   UNL     1      -0.777  15.367  26.869  0.00  0.00     0.053 C 
HETATM   13  C   UNL     1      -1.790  14.905  27.701  0.00  0.00     0.141 C 
HETATM   14  N   UNL     1      -2.599  14.075  27.070  0.00  0.00    -0.179 NA
HETATM   15  N   UNL     1      -2.021  13.858  25.846  0.00  0.00    -0.234 N 
BRANCH  15  16
HETATM   16  C   UNL     1      -2.538  12.753  25.090  0.00  0.00     0.059 A 
HETATM   17  C   UNL     1      -3.934  12.527  25.115  0.00  0.00     0.031 A 
HETATM   18  C   UNL     1      -4.513  11.470  24.408  0.00  0.00     0.002 A 
HETATM   19  C   UNL     1      -3.703  10.625  23.662  0.00  0.00     0.000 A 
HETATM   20  C   UNL     1      -2.324  10.814  23.653  0.00  0.00     0.002 A 
HETATM   21  C   UNL     1      -1.736  11.860  24.383  0.00  0.00     0.031 A 
ENDBRANCH  15  16
ENDBRANCH   8  11
BRANCH   9  22
HETATM   22  O   UNL     1       1.914  14.958  25.330  0.00  0.00    -0.360 OA
HETATM   23  H   UNL     1       2.792  15.300  25.087  0.00  0.00     0.217 HD
ENDBRANCH   9  22
BRANCH   1  24
HETATM   24  C   UNL     1      -2.108  16.954  20.290  0.00  0.00     0.100 C 
BRANCH  24  25
HETATM   25  C   UNL     1      -3.076  15.824  20.563  0.00  0.00    -0.052 A 
HETATM   26  C   UNL     1      -4.275  16.035  21.266  0.00  0.00     0.007 A 
HETATM   27  C   UNL     1      -5.049  14.957  21.699  0.00  0.00     0.001 A 
HETATM   28  C   UNL     1      -4.639  13.652  21.434  0.00  0.00     0.000 A 
HETATM   29  C   UNL     1      -3.473  13.425  20.708  0.00  0.00     0.001 A 
HETATM   30  C   UNL     1      -2.699  14.503  20.271  0.00  0.00     0.007 A 
ENDBRANCH  24  25
ENDBRANCH   1  24
TORSDOF 5
ENDMDL
MODEL 3
REMARK VINA RESULT:    -8.686      2.014      6.274
REMARK INTER + INTRA:         -12.070
REMARK INTER:                  -9.935
REMARK INTRA:                  -2.136
REMARK UNBOUND:                -1.099
REMARK  5 active torsions:
REMARK  status: ('A' for Active; 'I' for Inactive)
REMARK    1  A    between atoms: C_6  and  C_7 
REMARK    2  A    between atoms: C_7  and  C_8 
REMARK    3  A    between atoms: C_15  and  C_19 
REMARK    4  A    between atoms: C_16  and  O_18 
REMARK    5  A    between atoms: N_23  and  C_24 
ROOT
HETATM    1  C   UNL     1      -1.735  10.764  24.144  0.00  0.00     0.071 A 
HETATM    2  N   UNL     1      -2.121  10.389  25.377  0.00  0.00    -0.178 NA
HETATM    3  N   UNL     1      -3.123  11.225  25.677  0.00  0.00    -0.277 N 
HETATM    4  H   UNL     1      -3.561  11.143  26.585  0.00  0.00     0.189 HD
HETATM    5  C   UNL     1      -2.499  11.876  23.671  0.00  0.00     0.020 A 
HETATM    6  C   UNL     1      -3.388  12.151  24.704  0.00  0.00     0.065 A 
HETATM    7  C   UNL     1      -2.505  12.718  22.528  0.00  0.00     0.032 A 
HETATM    8  C   UNL     1      -3.419  13.793  22.417  0.00  0.00     0.027 A 
HETATM    9  C   UNL     1      -4.278  14.010  23.514  0.00  0.00     0.080 A 
HETATM   10  C   UNL     1      -4.289  13.208  24.668  0.00  0.00     0.069 A 
ENDROOT
BRANCH   8  11
HETATM   11  C   UNL     1      -3.366  14.742  21.268  0.00  0.00     0.073 C 
HETATM   12  C   UNL     1      -4.255  14.785  20.192  0.00  0.00     0.053 C 
HETATM   13  C   UNL     1      -3.996  15.961  19.499  0.00  0.00     0.141 C 
HETATM   14  N   UNL     1      -3.004  16.640  20.043  0.00  0.00    -0.179 NA
HETATM   15  N   UNL     1      -2.490  15.823  21.016  0.00  0.00    -0.234 N 
BRANCH  15  16
HETATM   16  C   UNL     1      -1.209  16.197  21.544  0.00  0.00     0.059 A 
HETATM   17  C   UNL     1      -0.199  16.578  20.629  0.00  0.00     0.031 A 
HETATM   18  C   UNL     1       1.074  16.953  21.065  0.00  0.00     0.002 A 
HETATM   19  C   UNL     1       1.357  16.954  22.424  0.00  0.00     0.000 A 
HETATM   20  C   UNL     1       0.385  16.550  23.335  0.00  0.00     0.002 A 
HETATM   21  C   UNL     1      -0.888  16.148  22.899  0.00  0.00     0.031 A 
ENDBRANCH  15  16
ENDBRANCH   8  11
BRANCH   9  22
HETATM   22  O   UNL     1      -5.139  15.077  23.564  0.00  0.00    -0.360 OA
HETATM   23  H   UNL     1      -5.037  15.444  24.461  0.00  0.00     0.217 HD
ENDBRANCH   9  22
BRANCH   1  24
HETATM   24  C   UNL     1      -0.520  10.155  23.527  0.00  0.00     0.100 C 
BRANCH  24  25
HETATM   25  C   UNL     1       0.330  11.219  22.867  0.00  0.00    -0.052 A 
HETATM   26  C   UNL     1       1.031  12.174  23.622  0.00  0.00     0.007 A 
HETATM   27  C   UNL     1       1.630  13.275  23.005  0.00  0.00     0.001 A 
HETATM   28  C   UNL     1       1.540  13.434  21.623  0.00  0.00     0.000 A 
HETATM   29  C   UNL     1       0.881  12.479  20.856  0.00  0.00     0.001 A 
HETATM   30  C   UNL     1       0.284  11.375  21.472  0.00  0.00     0.007 A 
ENDBRANCH  24  25
ENDBRANCH   1  24
TORSDOF 5
ENDMDL
MODEL 4
REMARK VINA RESULT:    -8.602      3.007      6.272
REMARK INTER + INTRA:         -11.963
REMARK INTER:                 -10.440
REMARK INTRA:                  -1.523
REMARK UNBOUND:                -1.099
REMARK  5 active torsions:
REMARK  status: ('A' for Active; 'I' for Inactive)
REMARK    1  A    between atoms: C_6  and  C_7 
REMARK    2  A    between atoms: C_7  and  C_8 
REMARK    3  A    between atoms: C_15  and  C_19 
REMARK    4  A    between atoms: C_16  and  O_18 
REMARK    5  A    between atoms: N_23  and  C_24 
ROOT
HETATM    1  C   UNL     1      -2.495  12.273  22.089  0.00  0.00     0.071 A 
HETATM    2  N   UNL     1      -3.180  11.122  21.960  0.00  0.00    -0.178 NA
HETATM    3  N   UNL     1      -3.469  10.768  23.218  0.00  0.00    -0.277 N 
HETATM    4  H   UNL     1      -3.971   9.903  23.369  0.00  0.00     0.189 HD
HETATM    5  C   UNL     1      -2.334  12.636  23.463  0.00  0.00     0.020 A 
HETATM    6  C   UNL     1      -2.977  11.624  24.166  0.00  0.00     0.065 A 
HETATM    7  C   UNL     1      -1.672  13.657  24.194  0.00  0.00     0.032 A 
HETATM    8  C   UNL     1      -1.695  13.673  25.609  0.00  0.00     0.027 A 
HETATM    9  C   UNL     1      -2.358  12.604  26.245  0.00  0.00     0.080 A 
HETATM   10  C   UNL     1      -3.010  11.568  25.555  0.00  0.00     0.069 A 
ENDROOT
BRANCH   8  11
HETATM   11  C   UNL     1      -0.920  14.683  26.386  0.00  0.00     0.073 C 
HETATM   12  C   UNL     1      -1.304  15.265  27.596  0.00  0.00     0.053 C 
HETATM   13  C   UNL     1      -0.195  15.942  28.091  0.00  0.00     0.141 C 
HETATM   14  N   UNL     1       0.838  15.848  27.275  0.00  0.00    -0.179 NA
HETATM   15  N   UNL     1       0.360  15.235  26.146  0.00  0.00    -0.234 N 
BRANCH  15  16
HETATM   16  C   UNL     1       1.205  15.296  24.988  0.00  0.00     0.059 A 
HETATM   17  C   UNL     1       0.851  16.191  23.952  0.00  0.00     0.031 A 
HETATM   18  C   UNL     1       1.621  16.305  22.793  0.00  0.00     0.002 A 
HETATM   19  C   UNL     1       2.763  15.527  22.653  0.00  0.00     0.000 A 
HETATM   20  C   UNL     1       3.108  14.617  23.649  0.00  0.00     0.002 A 
HETATM   21  C   UNL     1       2.321  14.481  24.804  0.00  0.00     0.031 A 
ENDBRANCH  15  16
ENDBRANCH   8  11
BRANCH   9  22
HETATM   22  O   UNL     1      -2.365  12.460  27.609  0.00  0.00    -0.360 OA
HETATM   23  H   UNL     1      -1.869  13.226  27.948  0.00  0.00     0.217 HD
ENDBRANCH   9  22
BRANCH   1  24
HETATM   24  C   UNL     1      -1.860  12.900  20.893  0.00  0.00     0.100 C 
BRANCH  24  25
HETATM   25  C   UNL     1      -2.373  14.311  20.699  0.00  0.00    -0.052 A 
HETATM   26  C   UNL     1      -3.623  14.565  20.110  0.00  0.00     0.007 A 
HETATM   27  C   UNL     1      -3.988  15.862  19.740  0.00  0.00     0.001 A 
HETATM   28  C   UNL     1      -3.111  16.923  19.957  0.00  0.00     0.000 A 
HETATM   29  C   UNL     1      -1.884  16.694  20.572  0.00  0.00     0.001 A 
HETATM   30  C   UNL     1      -1.519  15.398  20.946  0.00  0.00     0.007 A 
ENDBRANCH  24  25
ENDBRANCH   1  24
TORSDOF 5
ENDMDL
MODEL 5
REMARK VINA RESULT:    -8.574      3.107      6.840
REMARK INTER + INTRA:         -11.929
REMARK INTER:                 -10.488
REMARK INTRA:                  -1.441
REMARK UNBOUND:                -1.099
REMARK  5 active torsions:
REMARK  status: ('A' for Active; 'I' for Inactive)
REMARK    1  A    between atoms: C_6  and  C_7 
REMARK    2  A    between atoms: C_7  and  C_8 
REMARK    3  A    between atoms: C_15  and  C_19 
REMARK    4  A    between atoms: C_16  and  O_18 
REMARK    5  A    between atoms: N_23  and  C_24 
ROOT
HETATM    1  C   UNL     1      -2.878  12.417  27.300  0.00  0.00     0.071 A 
HETATM    2  N   UNL     1      -2.994  13.254  28.347  0.00  0.00    -0.178 NA
HETATM    3  N   UNL     1      -2.501  14.414  27.897  0.00  0.00    -0.277 N 
HETATM    4  H   UNL     1      -2.465  15.199  28.534  0.00  0.00     0.189 HD
HETATM    5  C   UNL     1      -2.276  13.063  26.176  0.00  0.00     0.020 A 
HETATM    6  C   UNL     1      -2.039  14.363  26.609  0.00  0.00     0.065 A 
HETATM    7  C   UNL     1      -1.850  12.693  24.873  0.00  0.00     0.032 A 
HETATM    8  C   UNL     1      -1.229  13.631  24.014  0.00  0.00     0.027 A 
HETATM    9  C   UNL     1      -1.014  14.923  24.536  0.00  0.00     0.080 A 
HETATM   10  C   UNL     1      -1.408  15.321  25.824  0.00  0.00     0.069 A 
ENDROOT
BRANCH   8  11
HETATM   11  C   UNL     1      -0.688  13.226  22.684  0.00  0.00     0.073 C 
HETATM   12  C   UNL     1       0.467  12.474  22.459  0.00  0.00     0.053 C 
HETATM   13  C   UNL     1       0.461  12.114  21.117  0.00  0.00     0.141 C 
HETATM   14  N   UNL     1      -0.591  12.601  20.485  0.00  0.00    -0.179 NA
HETATM   15  N   UNL     1      -1.208  13.431  21.386  0.00  0.00    -0.234 N 
BRANCH  15  16
HETATM   16  C   UNL     1      -2.196  14.322  20.849  0.00  0.00     0.059 A 
HETATM   17  C   UNL     1      -1.903  15.705  20.830  0.00  0.00     0.031 A 
HETATM   18  C   UNL     1      -2.814  16.636  20.326  0.00  0.00     0.002 A 
HETATM   19  C   UNL     1      -4.034  16.196  19.829  0.00  0.00     0.000 A 
HETATM   20  C   UNL     1      -4.352  14.841  19.870  0.00  0.00     0.002 A 
HETATM   21  C   UNL     1      -3.448  13.906  20.400  0.00  0.00     0.031 A 
ENDBRANCH  15  16
ENDBRANCH   8  11
BRANCH   9  22
HETATM   22  O   UNL     1      -0.337  15.889  23.833  0.00  0.00    -0.360 OA
HETATM   23  H   UNL     1      -1.003  16.289  23.246  0.00  0.00     0.217 HD
ENDBRANCH   9  22
BRANCH   1  24
HETATM   24  C   UNL     1      -3.186  10.966  27.469  0.00  0.00     0.100 C 
BRANCH  24  25
HETATM   25  C   UNL     1      -1.909  10.161  27.565  0.00  0.00    -0.052 A 
HETATM   26  C   UNL     1      -1.326   9.565  26.433  0.00  0.00     0.007 A 
HETATM   27  C   UNL     1      -0.278   8.651  26.565  0.00  0.00     0.001 A 
HETATM   28  C   UNL     1       0.205   8.322  27.830  0.00  0.00     0.000 A 
HETATM   29  C   UNL     1      -0.336   8.929  28.959  0.00  0.00     0.001 A 
HETATM   30  C   UNL     1      -1.382   9.846  28.828  0.00  0.00     0.007 A 
ENDBRANCH  24  25
ENDBRANCH   1  24
TORSDOF 5
ENDMDL
MODEL 6
REMARK VINA RESULT:    -8.561      1.859      3.138
REMARK INTER + INTRA:         -11.912
REMARK INTER:                  -9.814
REMARK INTRA:                  -2.098
REMARK UNBOUND:                -1.099
REMARK  5 active torsions:
REMARK  status: ('A' for Active; 'I' for Inactive)
REMARK    1  A    between atoms: C_6  and  C_7 
REMARK    2  A    between atoms: C_7  and  C_8 
REMARK    3  A    between atoms: C_15  and  C_19 
REMARK    4  A    between atoms: C_16  and  O_18 
REMARK    5  A    between atoms: N_23  and  C_24 
ROOT
HETATM    1  C   UNL     1      -1.555  16.207  21.396  0.00  0.00     0.071 A 
HETATM    2  N   UNL     1      -2.131  16.287  20.182  0.00  0.00    -0.178 NA
HETATM    3  N   UNL     1      -3.128  15.396  20.231  0.00  0.00    -0.277 N 
HETATM    4  H   UNL     1      -3.696  15.265  19.404  0.00  0.00     0.189 HD
HETATM    5  C   UNL     1      -2.195  15.226  22.216  0.00  0.00     0.020 A 
HETATM    6  C   UNL     1      -3.211  14.715  21.416  0.00  0.00     0.065 A 
HETATM    7  C   UNL     1      -2.001  14.667  23.507  0.00  0.00     0.032 A 
HETATM    8  C   UNL     1      -2.843  13.638  23.991  0.00  0.00     0.027 A 
HETATM    9  C   UNL     1      -3.841  13.169  23.112  0.00  0.00     0.080 A 
HETATM   10  C   UNL     1      -4.052  13.686  21.823  0.00  0.00     0.069 A 
ENDROOT
BRANCH   8  11
HETATM   11  C   UNL     1      -2.584  12.977  25.303  0.00  0.00     0.073 C 
HETATM   12  C   UNL     1      -3.022  13.424  26.552  0.00  0.00     0.053 C 
HETATM   13  C   UNL     1      -2.785  12.395  27.456  0.00  0.00     0.141 C 
HETATM   14  N   UNL     1      -2.216  11.355  26.875  0.00  0.00    -0.179 NA
HETATM   15  N   UNL     1      -1.923  11.763  25.599  0.00  0.00    -0.234 N 
BRANCH  15  16
HETATM   16  C   UNL     1      -1.021  10.926  24.860  0.00  0.00     0.059 A 
HETATM   17  C   UNL     1      -0.969   9.552  25.189  0.00  0.00     0.031 A 
HETATM   18  C   UNL     1      -0.115   8.674  24.518  0.00  0.00     0.002 A 
HETATM   19  C   UNL     1       0.700   9.158  23.503  0.00  0.00     0.000 A 
HETATM   20  C   UNL     1       0.685  10.514  23.189  0.00  0.00     0.002 A 
HETATM   21  C   UNL     1      -0.154  11.404  23.880  0.00  0.00     0.031 A 
ENDBRANCH  15  16
ENDBRANCH   8  11
BRANCH   9  22
HETATM   22  O   UNL     1      -4.654  12.111  23.432  0.00  0.00    -0.360 OA
HETATM   23  H   UNL     1      -5.251  12.010  22.670  0.00  0.00     0.217 HD
ENDBRANCH   9  22
BRANCH   1  24
HETATM   24  C   UNL     1      -0.291  16.952  21.672  0.00  0.00     0.100 C 
BRANCH  24  25
HETATM   25  C   UNL     1       0.840  15.988  21.955  0.00  0.00    -0.052 A 
HETATM   26  C   UNL     1       1.236  15.020  21.016  0.00  0.00     0.007 A 
HETATM   27  C   UNL     1       2.127  14.003  21.369  0.00  0.00     0.001 A 
HETATM   28  C   UNL     1       2.637  13.941  22.664  0.00  0.00     0.000 A 
HETATM   29  C   UNL     1       2.284  14.913  23.596  0.00  0.00     0.001 A 
HETATM   30  C   UNL     1       1.396  15.933  23.243  0.00  0.00     0.007 A 
ENDBRANCH  24  25
ENDBRANCH   1  24
TORSDOF 5
ENDMDL
MODEL 7
REMARK VINA RESULT:    -8.482      1.622      3.150
REMARK INTER + INTRA:         -11.812
REMARK INTER:                 -10.049
REMARK INTRA:                  -1.763
REMARK UNBOUND:                -1.099
REMARK  5 active torsions:
REMARK  status: ('A' for Active; 'I' for Inactive)
REMARK    1  A    between atoms: C_6  and  C_7 
REMARK    2  A    between atoms: C_7  and  C_8 
REMARK    3  A    between atoms: C_15  and  C_19 
REMARK    4  A    between atoms: C_16  and  O_18 
REMARK    5  A    between atoms: N_23  and  C_24 
ROOT
HETATM    1  C   UNL     1      -0.898  16.367  21.953  0.00  0.00     0.071 A 
HETATM    2  N   UNL     1      -1.343  16.644  20.714  0.00  0.00    -0.178 NA
HETATM    3  N   UNL     1      -2.428  15.872  20.573  0.00  0.00    -0.277 N 
HETATM    4  H   UNL     1      -2.923  15.897  19.692  0.00  0.00     0.189 HD
HETATM    5  C   UNL     1      -1.711  15.381  22.594  0.00  0.00     0.020 A 
HETATM    6  C   UNL     1      -2.693  15.079  21.658  0.00  0.00     0.065 A 
HETATM    7  C   UNL     1      -1.700  14.665  23.821  0.00  0.00     0.032 A 
HETATM    8  C   UNL     1      -2.686  13.692  24.107  0.00  0.00     0.027 A 
HETATM    9  C   UNL     1      -3.638  13.438  23.099  0.00  0.00     0.080 A 
HETATM   10  C   UNL     1      -3.671  14.113  21.867  0.00  0.00     0.069 A 
ENDROOT
BRANCH   8  11
HETATM   11  C   UNL     1      -2.624  12.866  25.348  0.00  0.00     0.073 C 
HETATM   12  C   UNL     1      -3.234  13.164  26.568  0.00  0.00     0.053 C 
HETATM   13  C   UNL     1      -3.137  12.025  27.359  0.00  0.00     0.141 C 
HETATM   14  N   UNL     1      -2.497  11.052  26.737  0.00  0.00    -0.179 NA
HETATM   15  N   UNL     1      -2.020  11.609  25.578  0.00  0.00    -0.234 N 
BRANCH  15  16
HETATM   16  C   UNL     1      -1.026  10.849  24.875  0.00  0.00     0.059 A 
HETATM   17  C   UNL     1      -0.998   9.449  25.071  0.00  0.00     0.031 A 
HETATM   18  C   UNL     1      -0.060   8.641  24.425  0.00  0.00     0.002 A 
HETATM   19  C   UNL     1       0.866   9.223  23.569  0.00  0.00     0.000 A 
HETATM   20  C   UNL     1       0.874  10.604  23.390  0.00  0.00     0.002 A 
HETATM   21  C   UNL     1      -0.052  11.421  24.058  0.00  0.00     0.031 A 
ENDBRANCH  15  16
ENDBRANCH   8  11
BRANCH   9  22
HETATM   22  O   UNL     1      -4.583  12.451  23.222  0.00  0.00    -0.360 OA
HETATM   23  H   UNL     1      -5.335  12.874  23.673  0.00  0.00     0.217 HD
ENDBRANCH   9  22
BRANCH   1  24
HETATM   24  C   UNL     1       0.404  16.928  22.420  0.00  0.00     0.100 C 
BRANCH  24  25
HETATM   25  C   UNL     1       1.510  15.908  22.258  0.00  0.00    -0.052 A 
HETATM   26  C   UNL     1       1.956  15.127  23.337  0.00  0.00     0.007 A 
HETATM   27  C   UNL     1       3.114  14.352  23.229  0.00  0.00     0.001 A 
HETATM   28  C   UNL     1       3.839  14.344  22.039  0.00  0.00     0.000 A 
HETATM   29  C   UNL     1       3.392  15.084  20.949  0.00  0.00     0.001 A 
HETATM   30  C   UNL     1       2.232  15.856  21.054  0.00  0.00     0.007 A 
ENDBRANCH  24  25
ENDBRANCH   1  24
TORSDOF 5
ENDMDL
MODEL 8
REMARK VINA RESULT:    -8.164      2.409      6.744
REMARK INTER + INTRA:         -11.410
REMARK INTER:                 -10.312
REMARK INTRA:                  -1.099
REMARK UNBOUND:                -1.099
REMARK  5 active torsions:
REMARK  status: ('A' for Active; 'I' for Inactive)
REMARK    1  A    between atoms: C_6  and  C_7 
REMARK    2  A    between atoms: C_7  and  C_8 
REMARK    3  A    between atoms: C_15  and  C_19 
REMARK    4  A    between atoms: C_16  and  O_18 
REMARK    5  A    between atoms: N_23  and  C_24 
ROOT
HETATM    1  C   UNL     1      -0.743  10.349  24.559  0.00  0.00     0.071 A 
HETATM    2  N   UNL     1      -1.344   9.844  25.652  0.00  0.00    -0.178 NA
HETATM    3  N   UNL     1      -1.864  10.914  26.266  0.00  0.00    -0.277 N 
HETATM    4  H   UNL     1      -2.353  10.776  27.140  0.00  0.00     0.189 HD
HETATM    5  C   UNL     1      -0.872  11.772  24.500  0.00  0.00     0.020 A 
HETATM    6  C   UNL     1      -1.603  12.102  25.635  0.00  0.00     0.065 A 
HETATM    7  C   UNL     1      -0.409  12.820  23.662  0.00  0.00     0.032 A 
HETATM    8  C   UNL     1      -0.713  14.172  23.949  0.00  0.00     0.027 A 
HETATM    9  C   UNL     1      -1.449  14.421  25.126  0.00  0.00     0.080 A 
HETATM   10  C   UNL     1      -1.910  13.411  25.987  0.00  0.00     0.069 A 
ENDROOT
BRANCH   8  11
HETATM   11  C   UNL     1      -0.147  15.285  23.132  0.00  0.00     0.073 C 
HETATM   12  C   UNL     1       0.972  16.057  23.453  0.00  0.00     0.053 C 
HETATM   13  C   UNL     1       1.296  16.792  22.319  0.00  0.00     0.141 C 
HETATM   14  N   UNL     1       0.456  16.557  21.328  0.00  0.00    -0.179 NA
HETATM   15  N   UNL     1      -0.536  15.777  21.865  0.00  0.00    -0.234 N 
BRANCH  15  16
HETATM   16  C   UNL     1      -1.728  15.643  21.078  0.00  0.00     0.059 A 
HETATM   17  C   UNL     1      -2.217  16.790  20.411  0.00  0.00     0.031 A 
HETATM   18  C   UNL     1      -3.373  16.740  19.629  0.00  0.00     0.002 A 
HETATM   19  C   UNL     1      -4.058  15.539  19.501  0.00  0.00     0.000 A 
HETATM   20  C   UNL     1      -3.609  14.408  20.177  0.00  0.00     0.002 A 
HETATM   21  C   UNL     1      -2.462  14.461  20.984  0.00  0.00     0.031 A 
ENDBRANCH  15  16
ENDBRANCH   8  11
BRANCH   9  22
HETATM   22  O   UNL     1      -1.722  15.694  25.558  0.00  0.00    -0.360 OA
HETATM   23  H   UNL     1      -1.031  16.252  25.158  0.00  0.00     0.217 HD
ENDBRANCH   9  22
BRANCH   1  24
HETATM   24  C   UNL     1       0.093   9.465  23.694  0.00  0.00     0.100 C 
BRANCH  24  25
HETATM   25  C   UNL     1       1.303   8.969  24.456  0.00  0.00    -0.052 A 
HETATM   26  C   UNL     1       1.964   9.777  25.396  0.00  0.00     0.007 A 
HETATM   27  C   UNL     1       3.197   9.392  25.929  0.00  0.00     0.001 A 
HETATM   28  C   UNL     1       3.785   8.193  25.532  0.00  0.00     0.000 A 
HETATM   29  C   UNL     1       3.127   7.363  24.628  0.00  0.00     0.001 A 
HETATM   30  C   UNL     1       1.891   7.745  24.098  0.00  0.00     0.007 A 
ENDBRANCH  24  25
ENDBRANCH   1  24
TORSDOF 5
ENDMDL
MODEL 9
REMARK VINA RESULT:    -8.159      1.951      6.892
REMARK INTER + INTRA:         -11.404
REMARK INTER:                 -10.381
REMARK INTRA:                  -1.023
REMARK UNBOUND:                -1.099
REMARK  5 active torsions:
REMARK  status: ('A' for Active; 'I' for Inactive)
REMARK    1  A    between atoms: C_6  and  C_7 
REMARK    2  A    between atoms: C_7  and  C_8 
REMARK    3  A    between atoms: C_15  and  C_19 
REMARK    4  A    between atoms: C_16  and  O_18 
REMARK    5  A    between atoms: N_23  and  C_24 
ROOT
HETATM    1  C   UNL     1      -1.225  10.779  23.739  0.00  0.00     0.071 A 
HETATM    2  N   UNL     1      -1.622  10.236  24.904  0.00  0.00    -0.178 NA
HETATM    3  N   UNL     1      -2.698  10.954  25.252  0.00  0.00    -0.277 N 
HETATM    4  H   UNL     1      -3.159  10.734  26.125  0.00  0.00     0.189 HD
HETATM    5  C   UNL     1      -2.059  11.877  23.361  0.00  0.00     0.020 A 
HETATM    6  C   UNL     1      -3.002  11.963  24.378  0.00  0.00     0.065 A 
HETATM    7  C   UNL     1      -2.093  12.842  22.320  0.00  0.00     0.032 A 
HETATM    8  C   UNL     1      -3.087  13.850  22.291  0.00  0.00     0.027 A 
HETATM    9  C   UNL     1      -3.997  13.873  23.367  0.00  0.00     0.080 A 
HETATM   10  C   UNL     1      -3.984  12.945  24.422  0.00  0.00     0.069 A 
ENDROOT
BRANCH   8  11
HETATM   11  C   UNL     1      -3.070  14.927  21.259  0.00  0.00     0.073 C 
HETATM   12  C   UNL     1      -4.020  15.121  20.254  0.00  0.00     0.053 C 
HETATM   13  C   UNL     1      -3.764  16.363  19.687  0.00  0.00     0.141 C 
HETATM   14  N   UNL     1      -2.718  16.946  20.242  0.00  0.00    -0.179 NA
HETATM   15  N   UNL     1      -2.174  16.006  21.080  0.00  0.00    -0.234 N 
BRANCH  15  16
HETATM   16  C   UNL     1      -0.852  16.280  21.564  0.00  0.00     0.059 A 
HETATM   17  C   UNL     1       0.131  16.673  20.626  0.00  0.00     0.031 A 
HETATM   18  C   UNL     1       1.442  16.954  21.019  0.00  0.00     0.002 A 
HETATM   19  C   UNL     1       1.789  16.849  22.359  0.00  0.00     0.000 A 
HETATM   20  C   UNL     1       0.842  16.432  23.291  0.00  0.00     0.002 A 
HETATM   21  C   UNL     1      -0.470  16.124  22.895  0.00  0.00     0.031 A 
ENDBRANCH  15  16
ENDBRANCH   8  11
BRANCH   9  22
HETATM   22  O   UNL     1      -4.943  14.858  23.499  0.00  0.00    -0.360 OA
HETATM   23  H   UNL     1      -5.239  15.050  22.591  0.00  0.00     0.217 HD
ENDBRANCH   9  22
BRANCH   1  24
HETATM   24  C   UNL     1       0.056  10.339  23.110  0.00  0.00     0.100 C 
BRANCH  24  25
HETATM   25  C   UNL     1       0.889   9.554  24.099  0.00  0.00    -0.052 A 
HETATM   26  C   UNL     1       1.645  10.192  25.097  0.00  0.00     0.007 A 
HETATM   27  C   UNL     1       2.573   9.478  25.859  0.00  0.00     0.001 A 
HETATM   28  C   UNL     1       2.756   8.114  25.637  0.00  0.00     0.000 A 
HETATM   29  C   UNL     1       1.990   7.459  24.677  0.00  0.00     0.001 A 
HETATM   30  C   UNL     1       1.058   8.171  23.917  0.00  0.00     0.007 A 
ENDBRANCH  24  25
ENDBRANCH   1  24
TORSDOF 5
ENDMDL
