MODEL 1
REMARK VINA RESULT:    -9.219      0.000      0.000
REMARK INTER + INTRA:         -12.129
REMARK INTER:                 -11.058
REMARK INTRA:                  -1.071
REMARK UNBOUND:                -0.485
REMARK  5 active torsions:
REMARK  status: ('A' for Active; 'I' for Inactive)
REMARK    1  A    between atoms: C_7  and  N_8 
REMARK       I    between atoms: N_8  and  C_10 
REMARK    2  A    between atoms: C_10  and  C_12 
REMARK    3  A    between atoms: C_14  and  O_15 
REMARK    4  A    between atoms: C_22  and  C_23 
REMARK    5  A    between atoms: C_23  and  C_24 
ROOT
HETATM    1  C   UNL     1       6.649  14.345  24.907  0.00  0.00     0.066 C 
HETATM    2  C   UNL     1       7.305  15.061  23.884  0.00  0.00     0.035 C 
HETATM    3  C   UNL     1       7.354  14.094  26.103  0.00  0.00     0.083 C 
HETATM    4  C   UNL     1       8.704  14.437  26.251  0.00  0.00     0.069 C 
HETATM    5  C   UNL     1       9.348  14.978  25.134  0.00  0.00     0.065 A 
HETATM    6  C   UNL     1       8.696  15.271  23.943  0.00  0.00     0.020 A 
HETATM    7  N   UNL     1      10.646  15.343  24.927  0.00  0.00    -0.277 N 
HETATM    8  H   UNL     1      11.408  15.307  25.597  0.00  0.00     0.189 HD
HETATM    9  N   UNL     1      10.917  15.747  23.678  0.00  0.00    -0.178 NA
HETATM   10  C   UNL     1       9.734  15.686  23.042  0.00  0.00     0.071 A 
ENDROOT
BRANCH   1  11
HETATM   11  C   UNL     1       5.237  13.844  24.786  0.00  0.00     0.260 C 
HETATM   12  N   UNL     1       4.150  14.747  24.652  0.00  0.00    -0.318 N 
HETATM   13  C   UNL     1       4.315  16.199  24.502  0.00  0.00     0.159 C 
HETATM   14  O   UNL     1       5.120  12.617  24.799  0.00  0.00    -0.267 OA
BRANCH  12  15
HETATM   15  C   UNL     1       2.780  14.291  24.673  0.00  0.00     0.037 A 
HETATM   16  C   UNL     1       2.175  13.879  23.471  0.00  0.00     0.036 A 
HETATM   17  C   UNL     1       0.841  13.447  23.418  0.00  0.00    -0.060 A 
HETATM   18  C   UNL     1       0.211  13.111  22.099  0.00  0.00     0.048 C 
HETATM   19  C   UNL     1       0.098  13.402  24.597  0.00  0.00     0.007 A 
HETATM   20  C   UNL     1       0.686  13.778  25.804  0.00  0.00     0.003 A 
HETATM   21  C   UNL     1       2.014  14.227  25.841  0.00  0.00     0.030 A 
ENDBRANCH  12  15
ENDBRANCH   1  11
BRANCH   3  22
HETATM   22  O   UNL     1       6.784  13.505  27.205  0.00  0.00    -0.360 OA
HETATM   23  H   UNL     1       6.104  14.126  27.555  0.00  0.00     0.217 HD
ENDBRANCH   3  22
BRANCH  10  24
HETATM   24  C   UNL     1       9.687  16.009  21.566  0.00  0.00     0.100 C 
BRANCH  24  25
HETATM   25  C   UNL     1       9.633  14.742  20.714  0.00  0.00    -0.052 A 
HETATM   26  C   UNL     1       8.499  14.356  19.986  0.00  0.00     0.007 A 
HETATM   27  C   UNL     1       8.497  13.204  19.199  0.00  0.00     0.001 A 
HETATM   28  C   UNL     1       9.601  12.354  19.199  0.00  0.00     0.007 A 
HETATM   29  C   UNL     1      10.696  12.624  20.020  0.00  0.00    -0.061 A 
HETATM   30  C   UNL     1      10.724  13.839  20.741  0.00  0.00     0.014 A 
HETATM   31  C   UNL     1      11.803  11.612  20.116  0.00  0.00     0.048 C 
ENDBRANCH  24  25
ENDBRANCH  10  24
TORSDOF 5
ENDMDL
MODEL 2
REMARK VINA RESULT:    -9.180      3.713      5.744
REMARK INTER + INTRA:         -12.080
REMARK INTER:                 -10.930
REMARK INTRA:                  -1.150
REMARK UNBOUND:                -0.485
REMARK  5 active torsions:
REMARK  status: ('A' for Active; 'I' for Inactive)
REMARK    1  A    between atoms: C_7  and  N_8 
REMARK       I    between atoms: N_8  and  C_10 
REMARK    2  A    between atoms: C_10  and  C_12 
REMARK    3  A    between atoms: C_14  and  O_15 
REMARK    4  A    between atoms: C_22  and  C_23 
REMARK    5  A    between atoms: C_23  and  C_24 
ROOT
HETATM    1  C   UNL     1       3.978  10.655  24.082  0.00  0.00     0.066 C 
HETATM    2  C   UNL     1       4.820  11.556  24.766  0.00  0.00     0.035 C 
HETATM    3  C   UNL     1       4.578   9.667  23.273  0.00  0.00     0.083 C 
HETATM    4  C   UNL     1       5.960   9.633  23.049  0.00  0.00     0.069 C 
HETATM    5  C   UNL     1       6.719  10.666  23.608  0.00  0.00     0.065 A 
HETATM    6  C   UNL     1       6.185  11.646  24.436  0.00  0.00     0.020 A 
HETATM    7  N   UNL     1       8.049  10.961  23.522  0.00  0.00    -0.277 N 
HETATM    8  H   UNL     1       8.763  10.434  23.029  0.00  0.00     0.189 HD
HETATM    9  N   UNL     1       8.405  12.101  24.131  0.00  0.00    -0.178 NA
HETATM   10  C   UNL     1       7.267  12.558  24.681  0.00  0.00     0.071 A 
ENDROOT
BRANCH   1  11
HETATM   11  C   UNL     1       2.478  10.692  24.180  0.00  0.00     0.260 C 
HETATM   12  N   UNL     1       1.752  11.862  23.837  0.00  0.00    -0.318 N 
HETATM   13  C   UNL     1       2.372  13.061  23.259  0.00  0.00     0.159 C 
HETATM   14  O   UNL     1       1.959   9.641  24.559  0.00  0.00    -0.267 OA
BRANCH  12  15
HETATM   15  C   UNL     1       0.328  11.960  24.055  0.00  0.00     0.037 A 
HETATM   16  C   UNL     1      -0.196  11.648  25.323  0.00  0.00     0.036 A 
HETATM   17  C   UNL     1      -1.570  11.701  25.596  0.00  0.00    -0.060 A 
HETATM   18  C   UNL     1      -2.089  11.265  26.934  0.00  0.00     0.048 C 
HETATM   19  C   UNL     1      -2.444  12.097  24.585  0.00  0.00     0.007 A 
HETATM   20  C   UNL     1      -1.945  12.440  23.329  0.00  0.00     0.003 A 
HETATM   21  C   UNL     1      -0.570  12.363  23.063  0.00  0.00     0.030 A 
ENDBRANCH  12  15
ENDBRANCH   1  11
BRANCH   3  22
HETATM   22  O   UNL     1       3.868   8.671  22.648  0.00  0.00    -0.360 OA
HETATM   23  H   UNL     1       3.639   8.991  21.746  0.00  0.00     0.217 HD
ENDBRANCH   3  22
BRANCH  10  24
HETATM   24  C   UNL     1       7.290  13.890  25.394  0.00  0.00     0.100 C 
BRANCH  24  25
HETATM   25  C   UNL     1       6.056  14.729  25.064  0.00  0.00    -0.052 A 
HETATM   26  C   UNL     1       5.852  15.332  23.816  0.00  0.00     0.007 A 
HETATM   27  C   UNL     1       4.699  16.070  23.545  0.00  0.00     0.001 A 
HETATM   28  C   UNL     1       3.765  16.306  24.552  0.00  0.00     0.007 A 
HETATM   29  C   UNL     1       3.998  15.845  25.848  0.00  0.00    -0.061 A 
HETATM   30  C   UNL     1       5.121  15.022  26.087  0.00  0.00     0.014 A 
HETATM   31  C   UNL     1       3.052  16.244  26.945  0.00  0.00     0.048 C 
ENDBRANCH  24  25
ENDBRANCH  10  24
TORSDOF 5
ENDMDL
MODEL 3
REMARK VINA RESULT:    -9.115      4.523      6.664
REMARK INTER + INTRA:         -11.997
REMARK INTER:                 -10.865
REMARK INTRA:                  -1.132
REMARK UNBOUND:                -0.485
REMARK  5 active torsions:
REMARK  status: ('A' for Active; 'I' for Inactive)
REMARK    1  A    between atoms: C_7  and  N_8 
REMARK       I    between atoms: N_8  and  C_10 
REMARK    2  A    between atoms: C_10  and  C_12 
REMARK    3  A    between atoms: C_14  and  O_15 
REMARK    4  A    between atoms: C_22  and  C_23 
REMARK    5  A    between atoms: C_23  and  C_24 
ROOT
HETATM    1  C   UNL     1       6.342  11.112  21.508  0.00  0.00     0.066 C 
HETATM    2  C   UNL     1       6.716  11.810  22.675  0.00  0.00     0.035 C 
HETATM    3  C   UNL     1       7.147  11.258  20.358  0.00  0.00     0.083 C 
HETATM    4  C   UNL     1       8.225  12.153  20.319  0.00  0.00     0.069 C 
HETATM    5  C   UNL     1       8.429  12.951  21.449  0.00  0.00     0.065 A 
HETATM    6  C   UNL     1       7.687  12.828  22.617  0.00  0.00     0.020 A 
HETATM    7  N   UNL     1       9.324  13.949  21.701  0.00  0.00    -0.277 N 
HETATM    8  H   UNL     1      10.057  14.288  21.084  0.00  0.00     0.189 HD
HETATM    9  N   UNL     1       9.160  14.556  22.886  0.00  0.00    -0.178 NA
HETATM   10  C   UNL     1       8.137  13.900  23.460  0.00  0.00     0.071 A 
ENDROOT
BRANCH   1  11
HETATM   11  C   UNL     1       5.137  10.218  21.433  0.00  0.00     0.260 C 
HETATM   12  N   UNL     1       5.188   8.881  21.906  0.00  0.00    -0.318 N 
HETATM   13  C   UNL     1       6.350   8.310  22.599  0.00  0.00     0.159 C 
HETATM   14  O   UNL     1       4.132  10.744  20.952  0.00  0.00    -0.267 OA
BRANCH  12  15
HETATM   15  C   UNL     1       4.085   7.968  21.717  0.00  0.00     0.037 A 
HETATM   16  C   UNL     1       3.954   7.295  20.488  0.00  0.00     0.036 A 
HETATM   17  C   UNL     1       2.894   6.413  20.230  0.00  0.00    -0.060 A 
HETATM   18  C   UNL     1       2.743   5.796  18.872  0.00  0.00     0.048 C 
HETATM   19  C   UNL     1       1.954   6.177  21.232  0.00  0.00     0.007 A 
HETATM   20  C   UNL     1       2.080   6.810  22.468  0.00  0.00     0.003 A 
HETATM   21  C   UNL     1       3.133   7.706  22.706  0.00  0.00     0.030 A 
ENDBRANCH  12  15
ENDBRANCH   1  11
BRANCH   3  22
HETATM   22  O   UNL     1       6.946  10.547  19.202  0.00  0.00    -0.360 OA
HETATM   23  H   UNL     1       6.184   9.941  19.355  0.00  0.00     0.217 HD
ENDBRANCH   3  22
BRANCH  10  24
HETATM   24  C   UNL     1       7.628  14.380  24.799  0.00  0.00     0.100 C 
BRANCH  24  25
HETATM   25  C   UNL     1       6.236  15.001  24.684  0.00  0.00    -0.052 A 
HETATM   26  C   UNL     1       5.744  15.560  23.497  0.00  0.00     0.007 A 
HETATM   27  C   UNL     1       4.457  16.096  23.425  0.00  0.00     0.001 A 
HETATM   28  C   UNL     1       3.666  16.175  24.569  0.00  0.00     0.007 A 
HETATM   29  C   UNL     1       4.171  15.760  25.803  0.00  0.00    -0.061 A 
HETATM   30  C   UNL     1       5.437  15.136  25.845  0.00  0.00     0.014 A 
HETATM   31  C   UNL     1       3.354  15.998  27.042  0.00  0.00     0.048 C 
ENDBRANCH  24  25
ENDBRANCH  10  24
TORSDOF 5
ENDMDL
MODEL 4
REMARK VINA RESULT:    -9.086      4.582      7.072
REMARK INTER + INTRA:         -11.962
REMARK INTER:                 -11.379
REMARK INTRA:                  -0.583
REMARK UNBOUND:                -0.485
REMARK  5 active torsions:
REMARK  status: ('A' for Active; 'I' for Inactive)
REMARK    1  A    between atoms: C_7  and  N_8 
REMARK       I    between atoms: N_8  and  C_10 
REMARK    2  A    between atoms: C_10  and  C_12 
REMARK    3  A    between atoms: C_14  and  O_15 
REMARK    4  A    between atoms: C_22  and  C_23 
REMARK    5  A    between atoms: C_23  and  C_24 
ROOT
HETATM    1  C   UNL     1       6.868  11.303  21.616  0.00  0.00     0.066 C 
HETATM    2  C   UNL     1       6.275  12.471  22.139  0.00  0.00     0.035 C 
HETATM    3  C   UNL     1       8.151  10.942  22.081  0.00  0.00     0.083 C 
HETATM    4  C   UNL     1       8.881  11.763  22.949  0.00  0.00     0.069 C 
HETATM    5  C   UNL     1       8.313  12.996  23.285  0.00  0.00     0.065 A 
HETATM    6  C   UNL     1       7.043  13.389  22.880  0.00  0.00     0.020 A 
HETATM    7  N   UNL     1       8.784  14.036  24.032  0.00  0.00    -0.277 N 
HETATM    8  H   UNL     1       9.670  14.086  24.525  0.00  0.00     0.189 HD
HETATM    9  N   UNL     1       7.979  15.109  24.061  0.00  0.00    -0.178 NA
HETATM   10  C   UNL     1       6.908  14.745  23.334  0.00  0.00     0.071 A 
ENDROOT
BRANCH   1  11
HETATM   11  C   UNL     1       6.198  10.424  20.597  0.00  0.00     0.260 C 
HETATM   12  N   UNL     1       5.202   9.489  20.980  0.00  0.00    -0.318 N 
HETATM   13  C   UNL     1       4.668   9.386  22.345  0.00  0.00     0.159 C 
HETATM   14  O   UNL     1       6.574  10.598  19.437  0.00  0.00    -0.267 OA
BRANCH  12  15
HETATM   15  C   UNL     1       4.648   8.544  20.039  0.00  0.00     0.037 A 
HETATM   16  C   UNL     1       4.013   7.386  20.523  0.00  0.00     0.036 A 
HETATM   17  C   UNL     1       3.475   6.416  19.664  0.00  0.00    -0.060 A 
HETATM   18  C   UNL     1       2.894   5.152  20.225  0.00  0.00     0.048 C 
HETATM   19  C   UNL     1       3.551   6.618  18.287  0.00  0.00     0.007 A 
HETATM   20  C   UNL     1       4.150   7.773  17.785  0.00  0.00     0.003 A 
HETATM   21  C   UNL     1       4.703   8.725  18.654  0.00  0.00     0.030 A 
ENDBRANCH  12  15
ENDBRANCH   1  11
BRANCH   3  22
HETATM   22  O   UNL     1       8.779   9.774  21.727  0.00  0.00    -0.360 OA
HETATM   23  H   UNL     1       9.193   9.401  22.539  0.00  0.00     0.217 HD
ENDBRANCH   3  22
BRANCH  10  24
HETATM   24  C   UNL     1       5.817  15.761  23.093  0.00  0.00     0.100 C 
BRANCH  24  25
HETATM   25  C   UNL     1       4.641  15.563  24.050  0.00  0.00    -0.052 A 
HETATM   26  C   UNL     1       4.720  15.828  25.424  0.00  0.00     0.007 A 
HETATM   27  C   UNL     1       3.617  15.658  26.262  0.00  0.00     0.001 A 
HETATM   28  C   UNL     1       2.433  15.123  25.761  0.00  0.00     0.007 A 
HETATM   29  C   UNL     1       2.355  14.711  24.429  0.00  0.00    -0.061 A 
HETATM   30  C   UNL     1       3.447  14.973  23.571  0.00  0.00     0.014 A 
HETATM   31  C   UNL     1       1.120  13.998  23.957  0.00  0.00     0.048 C 
ENDBRANCH  24  25
ENDBRANCH  10  24
TORSDOF 5
ENDMDL
MODEL 5
REMARK VINA RESULT:    -8.981      4.336      6.313
REMARK INTER + INTRA:         -11.828
REMARK INTER:                 -10.593
REMARK INTRA:                  -1.235
REMARK UNBOUND:                -0.485
REMARK  5 active torsions:
REMARK  status: ('A' for Active; 'I' for Inactive)
REMARK    1  A    between atoms: C_7  and  N_8 
REMARK       I    between atoms: N_8  and  C_10 
REMARK    2  A    between atoms: C_10  and  C_12 
REMARK    3  A    between atoms: C_14  and  O_15 
REMARK    4  A    between atoms: C_22  and  C_23 
REMARK    5  A    between atoms: C_23  and  C_24 
ROOT
HETATM    1  C   UNL     1       8.223  10.678  22.659  0.00  0.00     0.066 C 
HETATM    2  C   UNL     1       8.109  11.505  23.795  0.00  0.00     0.035 C 
HETATM    3  C   UNL     1       9.293  10.911  21.769  0.00  0.00     0.083 C 
HETATM    4  C   UNL     1      10.163  11.998  21.927  0.00  0.00     0.069 C 
HETATM    5  C   UNL     1       9.884  12.887  22.970  0.00  0.00     0.065 A 
HETATM    6  C   UNL     1       8.863  12.690  23.892  0.00  0.00     0.020 A 
HETATM    7  N   UNL     1      10.478  14.057  23.345  0.00  0.00    -0.277 N 
HETATM    8  H   UNL     1      11.290  14.496  22.921  0.00  0.00     0.189 HD
HETATM    9  N   UNL     1       9.870  14.689  24.359  0.00  0.00    -0.178 NA
HETATM   10  C   UNL     1       8.853  13.878  24.698  0.00  0.00     0.071 A 
ENDROOT
BRANCH   1  11
HETATM   11  C   UNL     1       7.266   9.559  22.355  0.00  0.00     0.260 C 
HETATM   12  N   UNL     1       5.982   9.822  21.810  0.00  0.00    -0.318 N 
HETATM   13  C   UNL     1       5.536  11.159  21.396  0.00  0.00     0.159 C 
HETATM   14  O   UNL     1       7.695   8.431  22.601  0.00  0.00    -0.267 OA
BRANCH  12  15
HETATM   15  C   UNL     1       5.002   8.776  21.642  0.00  0.00     0.037 A 
HETATM   16  C   UNL     1       4.859   8.165  20.382  0.00  0.00     0.036 A 
HETATM   17  C   UNL     1       3.911   7.159  20.144  0.00  0.00    -0.060 A 
HETATM   18  C   UNL     1       3.730   6.608  18.761  0.00  0.00     0.048 C 
HETATM   19  C   UNL     1       3.101   6.733  21.195  0.00  0.00     0.007 A 
HETATM   20  C   UNL     1       3.245   7.303  22.459  0.00  0.00     0.003 A 
HETATM   21  C   UNL     1       4.182   8.323  22.679  0.00  0.00     0.030 A 
ENDBRANCH  12  15
ENDBRANCH   1  11
BRANCH   3  22
HETATM   22  O   UNL     1       9.567  10.106  20.692  0.00  0.00    -0.360 OA
HETATM   23  H   UNL     1      10.444   9.686  20.850  0.00  0.00     0.217 HD
ENDBRANCH   3  22
BRANCH  10  24
HETATM   24  C   UNL     1       7.897  14.327  25.778  0.00  0.00     0.100 C 
BRANCH  24  25
HETATM   25  C   UNL     1       6.598  14.877  25.189  0.00  0.00    -0.052 A 
HETATM   26  C   UNL     1       6.465  15.252  23.845  0.00  0.00     0.007 A 
HETATM   27  C   UNL     1       5.255  15.727  23.339  0.00  0.00     0.001 A 
HETATM   28  C   UNL     1       4.172  15.933  24.191  0.00  0.00     0.007 A 
HETATM   29  C   UNL     1       4.304  15.708  25.562  0.00  0.00    -0.061 A 
HETATM   30  C   UNL     1       5.503  15.142  26.048  0.00  0.00     0.014 A 
HETATM   31  C   UNL     1       3.170  16.084  26.475  0.00  0.00     0.048 C 
ENDBRANCH  24  25
ENDBRANCH  10  24
TORSDOF 5
ENDMDL
MODEL 6
REMARK VINA RESULT:    -8.951      4.641      7.233
REMARK INTER + INTRA:         -11.791
REMARK INTER:                 -10.668
REMARK INTRA:                  -1.122
REMARK UNBOUND:                -0.485
REMARK  5 active torsions:
REMARK  status: ('A' for Active; 'I' for Inactive)
REMARK    1  A    between atoms: C_7  and  N_8 
REMARK       I    between atoms: N_8  and  C_10 
REMARK    2  A    between atoms: C_10  and  C_12 
REMARK    3  A    between atoms: C_14  and  O_15 
REMARK    4  A    between atoms: C_22  and  C_23 
REMARK    5  A    between atoms: C_23  and  C_24 
ROOT
HETATM    1  C   UNL     1       8.030  10.772  23.989  0.00  0.00     0.066 C 
HETATM    2  C   UNL     1       7.318  11.989  23.984  0.00  0.00     0.035 C 
HETATM    3  C   UNL     1       9.033  10.591  24.965  0.00  0.00     0.083 C 
HETATM    4  C   UNL     1       9.407  11.619  25.841  0.00  0.00     0.069 C 
HETATM    5  C   UNL     1       8.789  12.861  25.662  0.00  0.00     0.065 A 
HETATM    6  C   UNL     1       7.776  13.086  24.738  0.00  0.00     0.020 A 
HETATM    7  N   UNL     1       8.974  14.061  26.284  0.00  0.00    -0.277 N 
HETATM    8  H   UNL     1       9.611  14.265  27.048  0.00  0.00     0.189 HD
HETATM    9  N   UNL     1       8.249  15.068  25.776  0.00  0.00    -0.178 NA
HETATM   10  C   UNL     1       7.520  14.497  24.800  0.00  0.00     0.071 A 
ENDROOT
BRANCH   1  11
HETATM   11  C   UNL     1       7.768   9.659  23.013  0.00  0.00     0.260 C 
HETATM   12  N   UNL     1       6.705   8.742  23.218  0.00  0.00    -0.318 N 
HETATM   13  C   UNL     1       5.723   8.868  24.304  0.00  0.00     0.159 C 
HETATM   14  O   UNL     1       8.529   9.631  22.045  0.00  0.00    -0.267 OA
BRANCH  12  15
HETATM   15  C   UNL     1       6.524   7.590  22.367  0.00  0.00     0.037 A 
HETATM   16  C   UNL     1       7.396   6.493  22.503  0.00  0.00     0.036 A 
HETATM   17  C   UNL     1       7.290   5.353  21.693  0.00  0.00    -0.060 A 
HETATM   18  C   UNL     1       8.302   4.252  21.809  0.00  0.00     0.048 C 
HETATM   19  C   UNL     1       6.275   5.293  20.740  0.00  0.00     0.007 A 
HETATM   20  C   UNL     1       5.382   6.355  20.608  0.00  0.00     0.003 A 
HETATM   21  C   UNL     1       5.510   7.499  21.409  0.00  0.00     0.030 A 
ENDBRANCH  12  15
ENDBRANCH   1  11
BRANCH   3  22
HETATM   22  O   UNL     1       9.715   9.412  25.136  0.00  0.00    -0.360 OA
HETATM   23  H   UNL     1      10.229   9.244  24.313  0.00  0.00     0.217 HD
ENDBRANCH   3  22
BRANCH  10  24
HETATM   24  C   UNL     1       6.628  15.375  23.954  0.00  0.00     0.100 C 
BRANCH  24  25
HETATM   25  C   UNL     1       5.156  15.219  24.336  0.00  0.00    -0.052 A 
HETATM   26  C   UNL     1       4.181  14.749  23.446  0.00  0.00     0.007 A 
HETATM   27  C   UNL     1       2.851  14.597  23.840  0.00  0.00     0.001 A 
HETATM   28  C   UNL     1       2.445  15.005  25.108  0.00  0.00     0.007 A 
HETATM   29  C   UNL     1       3.354  15.610  25.977  0.00  0.00    -0.061 A 
HETATM   30  C   UNL     1       4.714  15.675  25.601  0.00  0.00     0.014 A 
HETATM   31  C   UNL     1       2.855  16.178  27.276  0.00  0.00     0.048 C 
ENDBRANCH  24  25
ENDBRANCH  10  24
TORSDOF 5
ENDMDL
MODEL 7
REMARK VINA RESULT:    -8.806      2.449      3.611
REMARK INTER + INTRA:         -11.607
REMARK INTER:                 -11.122
REMARK INTRA:                  -0.485
REMARK UNBOUND:                -0.485
REMARK  5 active torsions:
REMARK  status: ('A' for Active; 'I' for Inactive)
REMARK    1  A    between atoms: C_7  and  N_8 
REMARK       I    between atoms: N_8  and  C_10 
REMARK    2  A    between atoms: C_10  and  C_12 
REMARK    3  A    between atoms: C_14  and  O_15 
REMARK    4  A    between atoms: C_22  and  C_23 
REMARK    5  A    between atoms: C_23  and  C_24 
ROOT
HETATM    1  C   UNL     1       3.444  14.358  23.890  0.00  0.00     0.066 C 
HETATM    2  C   UNL     1       4.320  13.815  22.928  0.00  0.00     0.035 C 
HETATM    3  C   UNL     1       3.971  15.259  24.839  0.00  0.00     0.083 C 
HETATM    4  C   UNL     1       5.343  15.533  24.916  0.00  0.00     0.069 C 
HETATM    5  C   UNL     1       6.182  14.821  24.052  0.00  0.00     0.065 A 
HETATM    6  C   UNL     1       5.713  13.945  23.080  0.00  0.00     0.020 A 
HETATM    7  N   UNL     1       7.540  14.799  23.924  0.00  0.00    -0.277 N 
HETATM    8  H   UNL     1       8.215  15.349  24.448  0.00  0.00     0.189 HD
HETATM    9  N   UNL     1       7.999  13.911  23.031  0.00  0.00    -0.178 NA
HETATM   10  C   UNL     1       6.892  13.351  22.515  0.00  0.00     0.071 A 
ENDROOT
BRANCH   1  11
HETATM   11  C   UNL     1       1.978  14.030  23.948  0.00  0.00     0.260 C 
HETATM   12  N   UNL     1       1.533  12.726  24.288  0.00  0.00    -0.318 N 
HETATM   13  C   UNL     1       2.434  11.648  24.719  0.00  0.00     0.159 C 
HETATM   14  O   UNL     1       1.227  14.973  23.694  0.00  0.00    -0.267 OA
BRANCH  12  15
HETATM   15  C   UNL     1       0.139  12.357  24.214  0.00  0.00     0.037 A 
HETATM   16  C   UNL     1      -0.557  12.063  25.401  0.00  0.00     0.036 A 
HETATM   17  C   UNL     1      -1.905  11.677  25.398  0.00  0.00    -0.060 A 
HETATM   18  C   UNL     1      -2.577  11.278  26.679  0.00  0.00     0.048 C 
HETATM   19  C   UNL     1      -2.585  11.605  24.183  0.00  0.00     0.007 A 
HETATM   20  C   UNL     1      -1.923  11.921  22.997  0.00  0.00     0.003 A 
HETATM   21  C   UNL     1      -0.569  12.286  23.011  0.00  0.00     0.030 A 
ENDBRANCH  12  15
ENDBRANCH   1  11
BRANCH   3  22
HETATM   22  O   UNL     1       3.197  15.932  25.752  0.00  0.00    -0.360 OA
HETATM   23  H   UNL     1       2.380  16.226  25.288  0.00  0.00     0.217 HD
ENDBRANCH   3  22
BRANCH  10  24
HETATM   24  C   UNL     1       7.046  12.232  21.511  0.00  0.00     0.100 C 
BRANCH  24  25
HETATM   25  C   UNL     1       8.488  12.112  21.019  0.00  0.00    -0.052 A 
HETATM   26  C   UNL     1       8.889  12.476  19.726  0.00  0.00     0.007 A 
HETATM   27  C   UNL     1      10.221  12.374  19.322  0.00  0.00     0.001 A 
HETATM   28  C   UNL     1      11.170  11.811  20.172  0.00  0.00     0.007 A 
HETATM   29  C   UNL     1      10.787  11.303  21.415  0.00  0.00    -0.061 A 
HETATM   30  C   UNL     1       9.456  11.495  21.848  0.00  0.00     0.014 A 
HETATM   31  C   UNL     1      11.800  10.565  22.244  0.00  0.00     0.048 C 
ENDBRANCH  24  25
ENDBRANCH  10  24
TORSDOF 5
ENDMDL
MODEL 8
REMARK VINA RESULT:    -8.743      3.400      4.454
REMARK INTER + INTRA:         -11.528
REMARK INTER:                 -10.191
REMARK INTRA:                  -1.336
REMARK UNBOUND:                -0.485
REMARK  5 active torsions:
REMARK  status: ('A' for Active; 'I' for Inactive)
REMARK    1  A    between atoms: C_7  and  N_8 
REMARK       I    between atoms: N_8  and  C_10 
REMARK    2  A    between atoms: C_10  and  C_12 
REMARK    3  A    between atoms: C_14  and  O_15 
REMARK    4  A    between atoms: C_22  and  C_23 
REMARK    5  A    between atoms: C_23  and  C_24 
ROOT
HETATM    1  C   UNL     1       3.523  14.335  23.917  0.00  0.00     0.066 C 
HETATM    2  C   UNL     1       4.393  13.841  22.923  0.00  0.00     0.035 C 
HETATM    3  C   UNL     1       4.061  15.171  24.918  0.00  0.00     0.083 C 
HETATM    4  C   UNL     1       5.436  15.426  25.008  0.00  0.00     0.069 C 
HETATM    5  C   UNL     1       6.267  14.758  24.102  0.00  0.00     0.065 A 
HETATM    6  C   UNL     1       5.788  13.947  23.080  0.00  0.00     0.020 A 
HETATM    7  N   UNL     1       7.624  14.730  23.971  0.00  0.00    -0.277 N 
HETATM    8  H   UNL     1       8.305  15.240  24.525  0.00  0.00     0.189 HD
HETATM    9  N   UNL     1       8.073  13.892  23.025  0.00  0.00    -0.178 NA
HETATM   10  C   UNL     1       6.959  13.375  22.478  0.00  0.00     0.071 A 
ENDROOT
BRANCH   1  11
HETATM   11  C   UNL     1       2.054  14.019  23.957  0.00  0.00     0.260 C 
HETATM   12  N   UNL     1       1.594  12.721  24.299  0.00  0.00    -0.318 N 
HETATM   13  C   UNL     1       2.480  11.639  24.748  0.00  0.00     0.159 C 
HETATM   14  O   UNL     1       1.314  14.967  23.689  0.00  0.00    -0.267 OA
BRANCH  12  15
HETATM   15  C   UNL     1       0.198  12.364  24.209  0.00  0.00     0.037 A 
HETATM   16  C   UNL     1      -0.505  12.038  25.384  0.00  0.00     0.036 A 
HETATM   17  C   UNL     1      -1.855  11.661  25.365  0.00  0.00    -0.060 A 
HETATM   18  C   UNL     1      -2.534  11.229  26.630  0.00  0.00     0.048 C 
HETATM   19  C   UNL     1      -2.530  11.630  24.145  0.00  0.00     0.007 A 
HETATM   20  C   UNL     1      -1.862  11.977  22.972  0.00  0.00     0.003 A 
HETATM   21  C   UNL     1      -0.506  12.333  23.002  0.00  0.00     0.030 A 
ENDBRANCH  12  15
ENDBRANCH   1  11
BRANCH   3  22
HETATM   22  O   UNL     1       3.296  15.796  25.870  0.00  0.00    -0.360 OA
HETATM   23  H   UNL     1       3.510  15.386  26.740  0.00  0.00     0.217 HD
ENDBRANCH   3  22
BRANCH  10  24
HETATM   24  C   UNL     1       7.100  12.318  21.408  0.00  0.00     0.100 C 
BRANCH  24  25
HETATM   25  C   UNL     1       6.605  10.955  21.894  0.00  0.00    -0.052 A 
HETATM   26  C   UNL     1       5.349  10.434  21.559  0.00  0.00     0.007 A 
HETATM   27  C   UNL     1       4.942   9.175  22.002  0.00  0.00     0.001 A 
HETATM   28  C   UNL     1       5.747   8.446  22.876  0.00  0.00     0.007 A 
HETATM   29  C   UNL     1       6.942   8.990  23.349  0.00  0.00    -0.061 A 
HETATM   30  C   UNL     1       7.385  10.223  22.822  0.00  0.00     0.014 A 
HETATM   31  C   UNL     1       7.711   8.249  24.407  0.00  0.00     0.048 C 
ENDBRANCH  24  25
ENDBRANCH  10  24
TORSDOF 5
ENDMDL
MODEL 9
REMARK VINA RESULT:    -8.702      2.723      3.829
REMARK INTER + INTRA:         -11.475
REMARK INTER:                 -10.175
REMARK INTRA:                  -1.300
REMARK UNBOUND:                -0.485
REMARK  5 active torsions:
REMARK  status: ('A' for Active; 'I' for Inactive)
REMARK    1  A    between atoms: C_7  and  N_8 
REMARK       I    between atoms: N_8  and  C_10 
REMARK    2  A    between atoms: C_10  and  C_12 
REMARK    3  A    between atoms: C_14  and  O_15 
REMARK    4  A    between atoms: C_22  and  C_23 
REMARK    5  A    between atoms: C_23  and  C_24 
ROOT
HETATM    1  C   UNL     1       7.061  11.360  24.950  0.00  0.00     0.066 C 
HETATM    2  C   UNL     1       8.171  12.053  25.474  0.00  0.00     0.035 C 
HETATM    3  C   UNL     1       7.260  10.049  24.467  0.00  0.00     0.083 C 
HETATM    4  C   UNL     1       8.536   9.475  24.395  0.00  0.00     0.069 C 
HETATM    5  C   UNL     1       9.618  10.283  24.758  0.00  0.00     0.065 A 
HETATM    6  C   UNL     1       9.476  11.568  25.267  0.00  0.00     0.020 A 
HETATM    7  N   UNL     1      10.964  10.058  24.733  0.00  0.00    -0.277 N 
HETATM    8  H   UNL     1      11.438   9.204  24.455  0.00  0.00     0.189 HD
HETATM    9  N   UNL     1      11.710  11.117  25.079  0.00  0.00    -0.178 NA
HETATM   10  C   UNL     1      10.815  12.072  25.387  0.00  0.00     0.071 A 
ENDROOT
BRANCH   1  11
HETATM   11  C   UNL     1       5.677  11.946  24.889  0.00  0.00     0.260 C 
HETATM   12  N   UNL     1       5.256  12.708  23.769  0.00  0.00    -0.318 N 
HETATM   13  C   UNL     1       6.066  12.885  22.556  0.00  0.00     0.159 C 
HETATM   14  O   UNL     1       4.967  11.695  25.863  0.00  0.00    -0.267 OA
BRANCH  12  15
HETATM   15  C   UNL     1       3.984  13.392  23.754  0.00  0.00     0.037 A 
HETATM   16  C   UNL     1       2.824  12.676  23.403  0.00  0.00     0.036 A 
HETATM   17  C   UNL     1       1.561  13.284  23.346  0.00  0.00    -0.060 A 
HETATM   18  C   UNL     1       0.371  12.505  22.871  0.00  0.00     0.048 C 
HETATM   19  C   UNL     1       1.448  14.635  23.671  0.00  0.00     0.007 A 
HETATM   20  C   UNL     1       2.578  15.357  24.050  0.00  0.00     0.003 A 
HETATM   21  C   UNL     1       3.839  14.743  24.083  0.00  0.00     0.030 A 
ENDBRANCH  12  15
ENDBRANCH   1  11
BRANCH   3  22
HETATM   22  O   UNL     1       6.238   9.240  24.037  0.00  0.00    -0.360 OA
HETATM   23  H   UNL     1       6.132   8.519  24.698  0.00  0.00     0.217 HD
ENDBRANCH   3  22
BRANCH  10  24
HETATM   24  C   UNL     1      11.321  13.447  25.756  0.00  0.00     0.100 C 
BRANCH  24  25
HETATM   25  C   UNL     1      11.107  14.449  24.621  0.00  0.00    -0.052 A 
HETATM   26  C   UNL     1      10.335  15.610  24.761  0.00  0.00     0.007 A 
HETATM   27  C   UNL     1      10.183  16.513  23.708  0.00  0.00     0.001 A 
HETATM   28  C   UNL     1      10.720  16.226  22.456  0.00  0.00     0.007 A 
HETATM   29  C   UNL     1      11.374  15.013  22.233  0.00  0.00    -0.061 A 
HETATM   30  C   UNL     1      11.601  14.150  23.328  0.00  0.00     0.014 A 
HETATM   31  C   UNL     1      11.808  14.664  20.837  0.00  0.00     0.048 C 
ENDBRANCH  24  25
ENDBRANCH  10  24
TORSDOF 5
ENDMDL
