MODEL 1
REMARK VINA RESULT:    -8.524      0.000      0.000
REMARK INTER + INTRA:         -10.844
REMARK INTER:                  -9.822
REMARK INTRA:                  -1.023
REMARK UNBOUND:                -0.826
REMARK  4 active torsions:
REMARK  status: ('A' for Active; 'I' for Inactive)
REMARK    1  A    between atoms: O_1  and  C_2 
REMARK    2  A    between atoms: C_5  and  C_6 
REMARK    3  A    between atoms: N_12  and  C_13 
REMARK    4  A    between atoms: C_20  and  O_21 
ROOT
HETATM    1  C   UNL     1      -0.462   9.973  26.271  0.00  0.00     0.170 A 
HETATM    2  N   UNL     1      -1.120  10.305  27.356  0.00  0.00    -0.153 NA
HETATM    3  N   UNL     1      -0.955   9.271  28.205  0.00  0.00    -0.251 N 
HETATM    4  H   UNL     1      -1.285   9.305  29.169  0.00  0.00     0.191 HD
HETATM    5  C   UNL     1      -0.134   8.304  27.655  0.00  0.00     0.201 A 
HETATM    6  S   UNL     1       0.387   7.019  28.574  0.00  0.00    -0.038 SA
HETATM    7  N   UNL     1       0.146   8.730  26.357  0.00  0.00    -0.266 N 
ENDROOT
BRANCH   1   8
HETATM    8  C   UNL     1      -0.432  10.941  25.143  0.00  0.00     0.045 C 
HETATM    9  C   UNL     1       0.843  11.460  24.831  0.00  0.00     0.021 C 
HETATM   10  C   UNL     1       1.040  12.280  23.719  0.00  0.00     0.037 C 
HETATM   11  C   UNL     1      -0.037  12.572  22.899  0.00  0.00     0.068 C 
HETATM   12  C   UNL     1      -1.318  12.140  23.231  0.00  0.00     0.074 C 
HETATM   13  C   UNL     1      -1.523  11.379  24.387  0.00  0.00     0.082 C 
BRANCH  11  14
HETATM   14  O   UNL     1       0.124  13.290  21.751  0.00  0.00    -0.361 OA
HETATM   15  H   UNL     1       0.275  12.674  21.015  0.00  0.00     0.217 HD
ENDBRANCH  11  14
BRANCH  13  16
HETATM   16  O   UNL     1      -2.829  11.134  24.703  0.00  0.00    -0.360 OA
HETATM   17  H   UNL     1      -3.044  10.214  24.476  0.00  0.00     0.217 HD
ENDBRANCH  13  16
ENDBRANCH   1   8
BRANCH   7  18
HETATM   18  C   UNL     1       0.918   8.011  25.393  0.00  0.00     0.082 A 
HETATM   19  C   UNL     1       0.274   7.316  24.350  0.00  0.00     0.033 A 
HETATM   20  C   UNL     1       0.993   6.720  23.308  0.00  0.00     0.002 A 
HETATM   21  C   UNL     1       2.377   6.836  23.263  0.00  0.00     0.003 A 
HETATM   22  C   UNL     1       3.040   7.476  24.306  0.00  0.00     0.044 A 
HETATM   23  C   UNL     1       2.316   8.011  25.374  0.00  0.00     0.143 A 
HETATM   24  F   UNL     1       3.012   8.507  26.408  0.00  0.00    -0.204 F 
ENDBRANCH   7  18
TORSDOF 4
ENDMDL
MODEL 2
REMARK VINA RESULT:    -8.228      1.037      1.531
REMARK INTER + INTRA:         -10.497
REMARK INTER:                  -9.588
REMARK INTRA:                  -0.908
REMARK UNBOUND:                -0.826
REMARK  4 active torsions:
REMARK  status: ('A' for Active; 'I' for Inactive)
REMARK    1  A    between atoms: O_1  and  C_2 
REMARK    2  A    between atoms: C_5  and  C_6 
REMARK    3  A    between atoms: N_12  and  C_13 
REMARK    4  A    between atoms: C_20  and  O_21 
ROOT
HETATM    1  C   UNL     1      -0.495  10.103  26.120  0.00  0.00     0.170 A 
HETATM    2  N   UNL     1      -1.137  10.557  27.169  0.00  0.00    -0.153 NA
HETATM    3  N   UNL     1      -0.990   9.610  28.117  0.00  0.00    -0.251 N 
HETATM    4  H   UNL     1      -1.313   9.748  29.073  0.00  0.00     0.191 HD
HETATM    5  C   UNL     1      -0.195   8.573  27.662  0.00  0.00     0.201 A 
HETATM    6  S   UNL     1       0.302   7.375  28.703  0.00  0.00    -0.038 SA
HETATM    7  N   UNL     1       0.085   8.861  26.327  0.00  0.00    -0.266 N 
ENDROOT
BRANCH   1   8
HETATM    8  C   UNL     1      -0.451  10.952  24.900  0.00  0.00     0.045 C 
HETATM    9  C   UNL     1      -1.688  11.120  24.240  0.00  0.00     0.021 C 
HETATM   10  C   UNL     1      -1.820  11.989  23.157  0.00  0.00     0.037 C 
HETATM   11  C   UNL     1      -0.717  12.713  22.736  0.00  0.00     0.068 C 
HETATM   12  C   UNL     1       0.531  12.504  23.317  0.00  0.00     0.074 C 
HETATM   13  C   UNL     1       0.674  11.577  24.355  0.00  0.00     0.082 C 
BRANCH  11  14
HETATM   14  O   UNL     1      -0.819  13.643  21.744  0.00  0.00    -0.361 OA
HETATM   15  H   UNL     1       0.055  13.764  21.338  0.00  0.00     0.217 HD
ENDBRANCH  11  14
BRANCH  13  16
HETATM   16  O   UNL     1       1.959  11.337  24.752  0.00  0.00    -0.360 OA
HETATM   17  H   UNL     1       2.036  10.410  25.036  0.00  0.00     0.217 HD
ENDBRANCH  13  16
ENDBRANCH   1   8
BRANCH   7  18
HETATM   18  C   UNL     1       0.833   8.031  25.436  0.00  0.00     0.082 A 
HETATM   19  C   UNL     1       0.178   7.342  24.396  0.00  0.00     0.033 A 
HETATM   20  C   UNL     1       0.888   6.635  23.419  0.00  0.00     0.002 A 
HETATM   21  C   UNL     1       2.277   6.630  23.436  0.00  0.00     0.003 A 
HETATM   22  C   UNL     1       2.946   7.264  24.479  0.00  0.00     0.044 A 
HETATM   23  C   UNL     1       2.225   7.912  25.485  0.00  0.00     0.143 A 
HETATM   24  F   UNL     1       2.916   8.397  26.527  0.00  0.00    -0.204 F 
ENDBRANCH   7  18
TORSDOF 4
ENDMDL
MODEL 3
REMARK VINA RESULT:    -7.157      2.604      3.908
REMARK INTER + INTRA:          -9.238
REMARK INTER:                  -8.458
REMARK INTRA:                  -0.780
REMARK UNBOUND:                -0.826
REMARK  4 active torsions:
REMARK  status: ('A' for Active; 'I' for Inactive)
REMARK    1  A    between atoms: O_1  and  C_2 
REMARK    2  A    between atoms: C_5  and  C_6 
REMARK    3  A    between atoms: N_12  and  C_13 
REMARK    4  A    between atoms: C_20  and  O_21 
ROOT
HETATM    1  C   UNL     1       2.323   8.770  24.066  0.00  0.00     0.170 A 
HETATM    2  N   UNL     1       3.016   8.505  22.984  0.00  0.00    -0.153 NA
HETATM    3  N   UNL     1       3.408   7.223  23.115  0.00  0.00    -0.251 N 
HETATM    4  H   UNL     1       3.887   6.725  22.366  0.00  0.00     0.191 HD
HETATM    5  C   UNL     1       2.903   6.665  24.276  0.00  0.00     0.201 A 
HETATM    6  S   UNL     1       3.077   5.038  24.574  0.00  0.00    -0.038 SA
HETATM    7  N   UNL     1       2.237   7.696  24.939  0.00  0.00    -0.266 N 
ENDROOT
BRANCH   1   8
HETATM    8  C   UNL     1       1.722  10.122  24.203  0.00  0.00     0.045 C 
HETATM    9  C   UNL     1       2.645  11.190  24.234  0.00  0.00     0.021 C 
HETATM   10  C   UNL     1       2.219  12.518  24.234  0.00  0.00     0.037 C 
HETATM   11  C   UNL     1       0.862  12.790  24.184  0.00  0.00     0.068 C 
HETATM   12  C   UNL     1      -0.070  11.756  24.235  0.00  0.00     0.074 C 
HETATM   13  C   UNL     1       0.362  10.427  24.309  0.00  0.00     0.082 C 
BRANCH  11  14
HETATM   14  O   UNL     1       0.400  14.070  24.086  0.00  0.00    -0.361 OA
HETATM   15  H   UNL     1       0.723  14.577  24.849  0.00  0.00     0.217 HD
ENDBRANCH  11  14
BRANCH  13  16
HETATM   16  O   UNL     1      -0.623   9.502  24.507  0.00  0.00    -0.360 OA
HETATM   17  H   UNL     1      -0.695   8.940  23.717  0.00  0.00     0.217 HD
ENDBRANCH  13  16
ENDBRANCH   1   8
BRANCH   7  18
HETATM   18  C   UNL     1       1.605   7.592  26.216  0.00  0.00     0.082 A 
HETATM   19  C   UNL     1       2.245   8.101  27.364  0.00  0.00     0.033 A 
HETATM   20  C   UNL     1       1.603   8.148  28.606  0.00  0.00     0.002 A 
HETATM   21  C   UNL     1       0.286   7.720  28.724  0.00  0.00     0.003 A 
HETATM   22  C   UNL     1      -0.352   7.170  27.617  0.00  0.00     0.044 A 
HETATM   23  C   UNL     1       0.321   7.068  26.397  0.00  0.00     0.143 A 
HETATM   24  F   UNL     1      -0.297   6.419  25.400  0.00  0.00    -0.204 F 
ENDBRANCH   7  18
TORSDOF 4
ENDMDL
MODEL 4
REMARK VINA RESULT:    -6.926      2.665      4.835
REMARK INTER + INTRA:          -8.967
REMARK INTER:                  -8.128
REMARK INTRA:                  -0.839
REMARK UNBOUND:                -0.826
REMARK  4 active torsions:
REMARK  status: ('A' for Active; 'I' for Inactive)
REMARK    1  A    between atoms: O_1  and  C_2 
REMARK    2  A    between atoms: C_5  and  C_6 
REMARK    3  A    between atoms: N_12  and  C_13 
REMARK    4  A    between atoms: C_20  and  O_21 
ROOT
HETATM    1  C   UNL     1       0.437   8.321  25.919  0.00  0.00     0.170 A 
HETATM    2  N   UNL     1       0.288   7.706  27.067  0.00  0.00    -0.153 NA
HETATM    3  N   UNL     1      -0.448   8.540  27.829  0.00  0.00    -0.251 N 
HETATM    4  H   UNL     1      -0.795   8.269  28.747  0.00  0.00     0.191 HD
HETATM    5  C   UNL     1      -0.808   9.671  27.119  0.00  0.00     0.201 A 
HETATM    6  S   UNL     1      -1.882  10.764  27.765  0.00  0.00    -0.038 SA
HETATM    7  N   UNL     1      -0.178   9.564  25.879  0.00  0.00    -0.266 N 
ENDROOT
BRANCH   1   8
HETATM    8  C   UNL     1       1.193   7.630  24.842  0.00  0.00     0.045 C 
HETATM    9  C   UNL     1       0.406   6.870  23.949  0.00  0.00     0.021 C 
HETATM   10  C   UNL     1       0.966   6.270  22.820  0.00  0.00     0.037 C 
HETATM   11  C   UNL     1       2.316   6.442  22.566  0.00  0.00     0.068 C 
HETATM   12  C   UNL     1       3.127   7.117  23.473  0.00  0.00     0.074 C 
HETATM   13  C   UNL     1       2.575   7.655  24.641  0.00  0.00     0.082 C 
BRANCH  11  14
HETATM   14  O   UNL     1       2.888   5.955  21.427  0.00  0.00    -0.361 OA
HETATM   15  H   UNL     1       3.746   6.391  21.298  0.00  0.00     0.217 HD
ENDBRANCH  11  14
BRANCH  13  16
HETATM   16  O   UNL     1       3.476   8.163  25.534  0.00  0.00    -0.360 OA
HETATM   17  H   UNL     1       3.004   8.700  26.192  0.00  0.00     0.217 HD
ENDBRANCH  13  16
ENDBRANCH   1   8
BRANCH   7  18
HETATM   18  C   UNL     1      -0.222  10.540  24.836  0.00  0.00     0.082 A 
HETATM   19  C   UNL     1      -1.448  10.858  24.220  0.00  0.00     0.033 A 
HETATM   20  C   UNL     1      -1.559  11.905  23.298  0.00  0.00     0.002 A 
HETATM   21  C   UNL     1      -0.450  12.686  22.995  0.00  0.00     0.003 A 
HETATM   22  C   UNL     1       0.782  12.362  23.555  0.00  0.00     0.044 A 
HETATM   23  C   UNL     1       0.894  11.274  24.424  0.00  0.00     0.143 A 
HETATM   24  F   UNL     1       2.125  10.934  24.835  0.00  0.00    -0.204 F 
ENDBRANCH   7  18
TORSDOF 4
ENDMDL
MODEL 5
REMARK VINA RESULT:    -6.836      2.817      4.912
REMARK INTER + INTRA:          -8.861
REMARK INTER:                  -8.188
REMARK INTRA:                  -0.673
REMARK UNBOUND:                -0.826
REMARK  4 active torsions:
REMARK  status: ('A' for Active; 'I' for Inactive)
REMARK    1  A    between atoms: O_1  and  C_2 
REMARK    2  A    between atoms: C_5  and  C_6 
REMARK    3  A    between atoms: N_12  and  C_13 
REMARK    4  A    between atoms: C_20  and  O_21 
ROOT
HETATM    1  C   UNL     1       0.802   8.382  25.460  0.00  0.00     0.170 A 
HETATM    2  N   UNL     1       0.537   7.560  26.446  0.00  0.00    -0.153 NA
HETATM    3  N   UNL     1      -0.212   8.270  27.313  0.00  0.00    -0.251 N 
HETATM    4  H   UNL     1      -0.641   7.843  28.133  0.00  0.00     0.191 HD
HETATM    5  C   UNL     1      -0.461   9.541  26.828  0.00  0.00     0.201 A 
HETATM    6  S   UNL     1      -1.524  10.549  27.614  0.00  0.00    -0.038 SA
HETATM    7  N   UNL     1       0.255   9.644  25.635  0.00  0.00    -0.266 N 
ENDROOT
BRANCH   1   8
HETATM    8  C   UNL     1       1.602   7.872  24.315  0.00  0.00     0.045 C 
HETATM    9  C   UNL     1       2.831   8.533  24.100  0.00  0.00     0.021 C 
HETATM   10  C   UNL     1       3.739   8.081  23.141  0.00  0.00     0.037 C 
HETATM   11  C   UNL     1       3.432   6.951  22.402  0.00  0.00     0.068 C 
HETATM   12  C   UNL     1       2.192   6.331  22.539  0.00  0.00     0.074 C 
HETATM   13  C   UNL     1       1.255   6.832  23.449  0.00  0.00     0.082 C 
BRANCH  11  14
HETATM   14  O   UNL     1       4.326   6.417  21.522  0.00  0.00    -0.361 OA
HETATM   15  H   UNL     1       4.565   5.524  21.822  0.00  0.00     0.217 HD
ENDBRANCH  11  14
BRANCH  13  16
HETATM   16  O   UNL     1       0.021   6.247  23.399  0.00  0.00    -0.360 OA
HETATM   17  H   UNL     1      -0.624   6.894  23.067  0.00  0.00     0.217 HD
ENDBRANCH  13  16
ENDBRANCH   1   8
BRANCH   7  18
HETATM   18  C   UNL     1       0.339  10.809  24.813  0.00  0.00     0.082 A 
HETATM   19  C   UNL     1       1.549  11.526  24.725  0.00  0.00     0.033 A 
HETATM   20  C   UNL     1       1.715  12.585  23.825  0.00  0.00     0.002 A 
HETATM   21  C   UNL     1       0.683  12.931  22.961  0.00  0.00     0.003 A 
HETATM   22  C   UNL     1      -0.537  12.270  23.060  0.00  0.00     0.044 A 
HETATM   23  C   UNL     1      -0.713  11.257  24.007  0.00  0.00     0.143 A 
HETATM   24  F   UNL     1      -1.943  10.741  24.141  0.00  0.00    -0.204 F 
ENDBRANCH   7  18
TORSDOF 4
ENDMDL
MODEL 6
REMARK VINA RESULT:    -6.755      1.801      2.374
REMARK INTER + INTRA:          -8.766
REMARK INTER:                  -8.265
REMARK INTRA:                  -0.501
REMARK UNBOUND:                -0.826
REMARK  4 active torsions:
REMARK  status: ('A' for Active; 'I' for Inactive)
REMARK    1  A    between atoms: O_1  and  C_2 
REMARK    2  A    between atoms: C_5  and  C_6 
REMARK    3  A    between atoms: N_12  and  C_13 
REMARK    4  A    between atoms: C_20  and  O_21 
ROOT
HETATM    1  C   UNL     1       0.208   8.878  27.205  0.00  0.00     0.170 A 
HETATM    2  N   UNL     1       0.002   9.037  28.490  0.00  0.00    -0.153 NA
HETATM    3  N   UNL     1       0.777   8.115  29.094  0.00  0.00    -0.251 N 
HETATM    4  H   UNL     1       0.885   8.078  30.107  0.00  0.00     0.191 HD
HETATM    5  C   UNL     1       1.520   7.407  28.166  0.00  0.00     0.201 A 
HETATM    6  S   UNL     1       2.700   6.347  28.665  0.00  0.00    -0.038 SA
HETATM    7  N   UNL     1       1.105   7.862  26.915  0.00  0.00    -0.266 N 
ENDROOT
BRANCH   1   8
HETATM    8  C   UNL     1      -0.498   9.785  26.262  0.00  0.00     0.045 C 
HETATM    9  C   UNL     1       0.090   9.897  24.983  0.00  0.00     0.021 C 
HETATM   10  C   UNL     1      -0.531  10.614  23.960  0.00  0.00     0.037 C 
HETATM   11  C   UNL     1      -1.757  11.209  24.202  0.00  0.00     0.068 C 
HETATM   12  C   UNL     1      -2.317  11.182  25.477  0.00  0.00     0.074 C 
HETATM   13  C   UNL     1      -1.655  10.524  26.519  0.00  0.00     0.082 C 
BRANCH  11  14
HETATM   14  O   UNL     1      -2.446  11.839  23.208  0.00  0.00    -0.361 OA
HETATM   15  H   UNL     1      -2.492  12.788  23.411  0.00  0.00     0.217 HD
ENDBRANCH  11  14
BRANCH  13  16
HETATM   16  O   UNL     1      -2.211  10.683  27.757  0.00  0.00    -0.360 OA
HETATM   17  H   UNL     1      -2.627  11.560  27.809  0.00  0.00     0.217 HD
ENDBRANCH  13  16
ENDBRANCH   1   8
BRANCH   7  18
HETATM   18  C   UNL     1       1.564   7.367  25.656  0.00  0.00     0.082 A 
HETATM   19  C   UNL     1       2.817   7.772  25.153  0.00  0.00     0.033 A 
HETATM   20  C   UNL     1       3.366   7.204  23.997  0.00  0.00     0.002 A 
HETATM   21  C   UNL     1       2.690   6.187  23.334  0.00  0.00     0.003 A 
HETATM   22  C   UNL     1       1.431   5.802  23.783  0.00  0.00     0.044 A 
HETATM   23  C   UNL     1       0.864   6.421  24.900  0.00  0.00     0.143 A 
HETATM   24  F   UNL     1      -0.399   6.097  25.214  0.00  0.00    -0.204 F 
ENDBRANCH   7  18
TORSDOF 4
ENDMDL
MODEL 7
REMARK VINA RESULT:    -6.732      2.747      4.330
REMARK INTER + INTRA:          -8.738
REMARK INTER:                  -7.796
REMARK INTRA:                  -0.942
REMARK UNBOUND:                -0.826
REMARK  4 active torsions:
REMARK  status: ('A' for Active; 'I' for Inactive)
REMARK    1  A    between atoms: O_1  and  C_2 
REMARK    2  A    between atoms: C_5  and  C_6 
REMARK    3  A    between atoms: N_12  and  C_13 
REMARK    4  A    between atoms: C_20  and  O_21 
ROOT
HETATM    1  C   UNL     1       2.478   8.477  24.018  0.00  0.00     0.170 A 
HETATM    2  N   UNL     1       3.213   8.148  22.983  0.00  0.00    -0.153 NA
HETATM    3  N   UNL     1       3.593   6.874  23.204  0.00  0.00    -0.251 N 
HETATM    4  H   UNL     1       4.099   6.332  22.505  0.00  0.00     0.191 HD
HETATM    5  C   UNL     1       3.037   6.386  24.373  0.00  0.00     0.201 A 
HETATM    6  S   UNL     1       3.189   4.779  24.771  0.00  0.00    -0.038 SA
HETATM    7  N   UNL     1       2.350   7.456  24.947  0.00  0.00    -0.266 N 
ENDROOT
BRANCH   1   8
HETATM    8  C   UNL     1       1.879   9.837  24.052  0.00  0.00     0.045 C 
HETATM    9  C   UNL     1       0.493   9.877  24.318  0.00  0.00     0.021 C 
HETATM   10  C   UNL     1      -0.176  11.088  24.502  0.00  0.00     0.037 C 
HETATM   11  C   UNL     1       0.542  12.270  24.440  0.00  0.00     0.068 C 
HETATM   12  C   UNL     1       1.892  12.262  24.099  0.00  0.00     0.074 C 
HETATM   13  C   UNL     1       2.542  11.049  23.843  0.00  0.00     0.082 C 
BRANCH  11  14
HETATM   14  O   UNL     1      -0.048  13.470  24.707  0.00  0.00    -0.361 OA
HETATM   15  H   UNL     1       0.231  13.767  25.589  0.00  0.00     0.217 HD
ENDBRANCH  11  14
BRANCH  13  16
HETATM   16  O   UNL     1       3.820  11.159  23.371  0.00  0.00    -0.360 OA
HETATM   17  H   UNL     1       4.442  10.927  24.081  0.00  0.00     0.217 HD
ENDBRANCH  13  16
ENDBRANCH   1   8
BRANCH   7  18
HETATM   18  C   UNL     1       1.665   7.428  26.201  0.00  0.00     0.082 A 
HETATM   19  C   UNL     1       2.286   7.945  27.355  0.00  0.00     0.033 A 
HETATM   20  C   UNL     1       1.600   8.067  28.569  0.00  0.00     0.002 A 
HETATM   21  C   UNL     1       0.260   7.708  28.649  0.00  0.00     0.003 A 
HETATM   22  C   UNL     1      -0.362   7.151  27.536  0.00  0.00     0.044 A 
HETATM   23  C   UNL     1       0.351   6.974  26.348  0.00  0.00     0.143 A 
HETATM   24  F   UNL     1      -0.261   6.321  25.349  0.00  0.00    -0.204 F 
ENDBRANCH   7  18
TORSDOF 4
ENDMDL
MODEL 8
REMARK VINA RESULT:    -6.659      3.101      5.146
REMARK INTER + INTRA:          -8.653
REMARK INTER:                  -7.772
REMARK INTRA:                  -0.881
REMARK UNBOUND:                -0.826
REMARK  4 active torsions:
REMARK  status: ('A' for Active; 'I' for Inactive)
REMARK    1  A    between atoms: O_1  and  C_2 
REMARK    2  A    between atoms: C_5  and  C_6 
REMARK    3  A    between atoms: N_12  and  C_13 
REMARK    4  A    between atoms: C_20  and  O_21 
ROOT
HETATM    1  C   UNL     1       0.574   8.700  24.875  0.00  0.00     0.170 A 
HETATM    2  N   UNL     1      -0.124   9.512  24.118  0.00  0.00    -0.153 NA
HETATM    3  N   UNL     1      -0.920  10.196  24.963  0.00  0.00    -0.251 N 
HETATM    4  H   UNL     1      -1.505  10.969  24.649  0.00  0.00     0.191 HD
HETATM    5  C   UNL     1      -0.670   9.840  26.276  0.00  0.00     0.201 A 
HETATM    6  S   UNL     1      -1.379  10.680  27.525  0.00  0.00    -0.038 SA
HETATM    7  N   UNL     1       0.269   8.811  26.224  0.00  0.00    -0.266 N 
ENDROOT
BRANCH   1   8
HETATM    8  C   UNL     1       1.579   7.819  24.224  0.00  0.00     0.045 C 
HETATM    9  C   UNL     1       1.296   6.437  24.288  0.00  0.00     0.021 C 
HETATM   10  C   UNL     1       2.085   5.504  23.614  0.00  0.00     0.037 C 
HETATM   11  C   UNL     1       3.154   5.949  22.854  0.00  0.00     0.068 C 
HETATM   12  C   UNL     1       3.501   7.298  22.842  0.00  0.00     0.074 C 
HETATM   13  C   UNL     1       2.751   8.221  23.578  0.00  0.00     0.082 C 
BRANCH  11  14
HETATM   14  O   UNL     1       3.895   5.086  22.103  0.00  0.00    -0.361 OA
HETATM   15  H   UNL     1       3.324   4.355  21.811  0.00  0.00     0.217 HD
ENDBRANCH  11  14
BRANCH  13  16
HETATM   16  O   UNL     1       3.261   9.488  23.621  0.00  0.00    -0.360 OA
HETATM   17  H   UNL     1       3.323   9.836  22.715  0.00  0.00     0.217 HD
ENDBRANCH  13  16
ENDBRANCH   1   8
BRANCH   7  18
HETATM   18  C   UNL     1       0.782   8.094  27.348  0.00  0.00     0.082 A 
HETATM   19  C   UNL     1       2.033   8.441  27.895  0.00  0.00     0.033 A 
HETATM   20  C   UNL     1       2.506   7.862  29.079  0.00  0.00     0.002 A 
HETATM   21  C   UNL     1       1.720   6.945  29.766  0.00  0.00     0.003 A 
HETATM   22  C   UNL     1       0.502   6.551  29.223  0.00  0.00     0.044 A 
HETATM   23  C   UNL     1       0.069   7.088  28.007  0.00  0.00     0.143 A 
HETATM   24  F   UNL     1      -1.051   6.581  27.471  0.00  0.00    -0.204 F 
ENDBRANCH   7  18
TORSDOF 4
ENDMDL
MODEL 9
REMARK VINA RESULT:    -6.562      3.416      5.380
REMARK INTER + INTRA:          -8.539
REMARK INTER:                  -7.713
REMARK INTRA:                  -0.826
REMARK UNBOUND:                -0.826
REMARK  4 active torsions:
REMARK  status: ('A' for Active; 'I' for Inactive)
REMARK    1  A    between atoms: O_1  and  C_2 
REMARK    2  A    between atoms: C_5  and  C_6 
REMARK    3  A    between atoms: N_12  and  C_13 
REMARK    4  A    between atoms: C_20  and  O_21 
ROOT
HETATM    1  C   UNL     1      -0.100   9.249  27.212  0.00  0.00     0.170 A 
HETATM    2  N   UNL     1      -0.975  10.039  27.786  0.00  0.00    -0.153 NA
HETATM    3  N   UNL     1      -1.473  10.804  26.794  0.00  0.00    -0.251 N 
HETATM    4  H   UNL     1      -2.249  11.448  26.945  0.00  0.00     0.191 HD
HETATM    5  C   UNL     1      -0.935  10.443  25.572  0.00  0.00     0.201 A 
HETATM    6  S   UNL     1      -1.529  11.099  24.164  0.00  0.00    -0.038 SA
HETATM    7  N   UNL     1       0.016   9.460  25.846  0.00  0.00    -0.266 N 
ENDROOT
BRANCH   1   8
HETATM    8  C   UNL     1       0.609   8.253  28.056  0.00  0.00     0.045 C 
HETATM    9  C   UNL     1      -0.226   7.424  28.837  0.00  0.00     0.021 C 
HETATM   10  C   UNL     1       0.295   6.364  29.580  0.00  0.00     0.037 C 
HETATM   11  C   UNL     1       1.656   6.113  29.534  0.00  0.00     0.068 C 
HETATM   12  C   UNL     1       2.509   6.965  28.837  0.00  0.00     0.074 C 
HETATM   13  C   UNL     1       1.991   8.070  28.153  0.00  0.00     0.082 C 
BRANCH  11  14
HETATM   14  O   UNL     1       2.198   5.033  30.167  0.00  0.00    -0.361 OA
HETATM   15  H   UNL     1       2.800   5.348  30.861  0.00  0.00     0.217 HD
ENDBRANCH  11  14
BRANCH  13  16
HETATM   16  O   UNL     1       2.921   8.923  27.630  0.00  0.00    -0.360 OA
HETATM   17  H   UNL     1       2.831   8.939  26.663  0.00  0.00     0.217 HD
ENDBRANCH  13  16
ENDBRANCH   1   8
BRANCH   7  18
HETATM   18  C   UNL     1       0.865   8.833  24.884  0.00  0.00     0.082 A 
HETATM   19  C   UNL     1       2.014   9.501  24.415  0.00  0.00     0.033 A 
HETATM   20  C   UNL     1       2.946   8.869  23.583  0.00  0.00     0.002 A 
HETATM   21  C   UNL     1       2.771   7.537  23.229  0.00  0.00     0.003 A 
HETATM   22  C   UNL     1       1.621   6.870  23.640  0.00  0.00     0.044 A 
HETATM   23  C   UNL     1       0.665   7.530  24.416  0.00  0.00     0.143 A 
HETATM   24  F   UNL     1      -0.477   6.879  24.679  0.00  0.00    -0.204 F 
ENDBRANCH   7  18
TORSDOF 4
ENDMDL
