MODEL 1
REMARK VINA RESULT:    -8.716      0.000      0.000
REMARK INTER + INTRA:         -11.866
REMARK INTER:                 -11.249
REMARK INTRA:                  -0.618
REMARK UNBOUND:                -0.857
REMARK  5 active torsions:
REMARK  status: ('A' for Active; 'I' for Inactive)
REMARK    1  A    between atoms: C_6  and  N_7 
REMARK       I    between atoms: N_7  and  C_9 
REMARK    2  A    between atoms: C_9  and  C_11 
REMARK    3  A    between atoms: C_13  and  O_14 
REMARK    4  A    between atoms: C_21  and  C_22 
REMARK    5  A    between atoms: C_22  and  C_23 
ROOT
HETATM    1  C   UNL     1       6.933  11.366  21.530  0.00  0.00     0.066 C 
HETATM    2  C   UNL     1       6.300  12.492  22.101  0.00  0.00     0.035 C 
HETATM    3  C   UNL     1       8.253  11.073  21.925  0.00  0.00     0.083 C 
HETATM    4  C   UNL     1       8.978  11.910  22.782  0.00  0.00     0.069 C 
HETATM    5  C   UNL     1       8.362  13.098  23.178  0.00  0.00     0.065 A 
HETATM    6  C   UNL     1       7.055  13.430  22.834  0.00  0.00     0.020 A 
HETATM    7  N   UNL     1       8.807  14.141  23.938  0.00  0.00    -0.277 N 
HETATM    8  H   UNL     1       9.703  14.224  24.405  0.00  0.00     0.189 HD
HETATM    9  N   UNL     1       7.948  15.169  24.022  0.00  0.00    -0.178 NA
HETATM   10  C   UNL     1       6.872  14.767  23.324  0.00  0.00     0.071 A 
ENDROOT
BRANCH   1  11
HETATM   11  C   UNL     1       6.253  10.457  20.528  0.00  0.00     0.260 C 
HETATM   12  N   UNL     1       5.274   9.505  20.942  0.00  0.00    -0.318 N 
HETATM   13  C   UNL     1       4.803   9.445  22.331  0.00  0.00     0.159 C 
HETATM   14  O   UNL     1       6.598  10.659  19.359  0.00  0.00    -0.267 OA
BRANCH  12  15
HETATM   15  C   UNL     1       4.676   8.536  20.028  0.00  0.00     0.037 A 
HETATM   16  C   UNL     1       4.020   7.389  20.530  0.00  0.00     0.029 A 
HETATM   17  C   UNL     1       3.437   6.428  19.695  0.00  0.00     0.002 A 
HETATM   18  C   UNL     1       3.502   6.575  18.320  0.00  0.00     0.000 A 
HETATM   19  C   UNL     1       4.132   7.694  17.789  0.00  0.00     0.002 A 
HETATM   20  C   UNL     1       4.705   8.663  18.631  0.00  0.00     0.029 A 
ENDBRANCH  12  15
ENDBRANCH   1  11
BRANCH   3  21
HETATM   21  O   UNL     1       8.931   9.952  21.508  0.00  0.00    -0.360 OA
HETATM   22  H   UNL     1       9.634  10.241  20.883  0.00  0.00     0.217 HD
ENDBRANCH   3  21
BRANCH  10  23
HETATM   23  C   UNL     1       5.721  15.726  23.152  0.00  0.00     0.100 C 
BRANCH  23  24
HETATM   24  C   UNL     1       4.514  15.316  23.991  0.00  0.00    -0.052 A 
HETATM   25  C   UNL     1       3.501  14.462  23.527  0.00  0.00     0.007 A 
HETATM   26  C   UNL     1       2.424  14.107  24.343  0.00  0.00     0.001 A 
HETATM   27  C   UNL     1       2.284  14.666  25.609  0.00  0.00     0.007 A 
HETATM   28  C   UNL     1       3.198  15.621  26.057  0.00  0.00    -0.061 A 
HETATM   29  C   UNL     1       4.327  15.911  25.263  0.00  0.00     0.014 A 
HETATM   30  C   UNL     1       2.942  16.315  27.366  0.00  0.00     0.048 C 
ENDBRANCH  23  24
ENDBRANCH  10  23
TORSDOF 5
ENDMDL
MODEL 2
REMARK VINA RESULT:    -8.587      1.522      2.260
REMARK INTER + INTRA:         -11.703
REMARK INTER:                 -10.631
REMARK INTRA:                  -1.073
REMARK UNBOUND:                -0.857
REMARK  5 active torsions:
REMARK  status: ('A' for Active; 'I' for Inactive)
REMARK    1  A    between atoms: C_6  and  N_7 
REMARK       I    between atoms: N_7  and  C_9 
REMARK    2  A    between atoms: C_9  and  C_11 
REMARK    3  A    between atoms: C_13  and  O_14 
REMARK    4  A    between atoms: C_21  and  C_22 
REMARK    5  A    between atoms: C_22  and  C_23 
ROOT
HETATM    1  C   UNL     1       6.415  11.261  21.574  0.00  0.00     0.066 C 
HETATM    2  C   UNL     1       6.738  11.959  22.759  0.00  0.00     0.035 C 
HETATM    3  C   UNL     1       7.264  11.413  20.460  0.00  0.00     0.083 C 
HETATM    4  C   UNL     1       8.348  12.299  20.464  0.00  0.00     0.069 C 
HETATM    5  C   UNL     1       8.517  13.089  21.602  0.00  0.00     0.065 A 
HETATM    6  C   UNL     1       7.721  12.970  22.737  0.00  0.00     0.020 A 
HETATM    7  N   UNL     1       9.413  14.076  21.896  0.00  0.00    -0.277 N 
HETATM    8  H   UNL     1      10.180  14.402  21.320  0.00  0.00     0.189 HD
HETATM    9  N   UNL     1       9.198  14.684  23.072  0.00  0.00    -0.178 NA
HETATM   10  C   UNL     1       8.141  14.040  23.597  0.00  0.00     0.071 A 
ENDROOT
BRANCH   1  11
HETATM   11  C   UNL     1       5.210  10.352  21.456  0.00  0.00     0.260 C 
HETATM   12  N   UNL     1       5.249   9.010  21.938  0.00  0.00    -0.318 N 
HETATM   13  C   UNL     1       6.413   8.492  22.671  0.00  0.00     0.159 C 
HETATM   14  O   UNL     1       4.221  10.899  20.955  0.00  0.00    -0.267 OA
BRANCH  12  15
HETATM   15  C   UNL     1       4.152   8.067  21.746  0.00  0.00     0.037 A 
HETATM   16  C   UNL     1       3.998   7.389  20.515  0.00  0.00     0.029 A 
HETATM   17  C   UNL     1       2.959   6.480  20.280  0.00  0.00     0.002 A 
HETATM   18  C   UNL     1       2.023   6.229  21.268  0.00  0.00     0.000 A 
HETATM   19  C   UNL     1       2.145   6.870  22.494  0.00  0.00     0.002 A 
HETATM   20  C   UNL     1       3.197   7.772  22.730  0.00  0.00     0.029 A 
ENDBRANCH  12  15
ENDBRANCH   1  11
BRANCH   3  21
HETATM   21  O   UNL     1       7.100  10.710  19.291  0.00  0.00    -0.360 OA
HETATM   22  H   UNL     1       6.435  11.187  18.744  0.00  0.00     0.217 HD
ENDBRANCH   3  21
BRANCH  10  23
HETATM   23  C   UNL     1       7.578  14.521  24.911  0.00  0.00     0.100 C 
BRANCH  23  24
HETATM   24  C   UNL     1       6.176  15.099  24.746  0.00  0.00    -0.052 A 
HETATM   25  C   UNL     1       5.692  15.630  23.540  0.00  0.00     0.007 A 
HETATM   26  C   UNL     1       4.394  16.135  23.441  0.00  0.00     0.001 A 
HETATM   27  C   UNL     1       3.576  16.205  24.563  0.00  0.00     0.007 A 
HETATM   28  C   UNL     1       4.066  15.811  25.811  0.00  0.00    -0.061 A 
HETATM   29  C   UNL     1       5.346  15.225  25.888  0.00  0.00     0.014 A 
HETATM   30  C   UNL     1       3.214  16.034  27.029  0.00  0.00     0.048 C 
ENDBRANCH  23  24
ENDBRANCH  10  23
TORSDOF 5
ENDMDL
MODEL 3
REMARK VINA RESULT:    -8.567      3.360      5.331
REMARK INTER + INTRA:         -11.678
REMARK INTER:                 -10.272
REMARK INTRA:                  -1.406
REMARK UNBOUND:                -0.857
REMARK  5 active torsions:
REMARK  status: ('A' for Active; 'I' for Inactive)
REMARK    1  A    between atoms: C_6  and  N_7 
REMARK       I    between atoms: N_7  and  C_9 
REMARK    2  A    between atoms: C_9  and  C_11 
REMARK    3  A    between atoms: C_13  and  O_14 
REMARK    4  A    between atoms: C_21  and  C_22 
REMARK    5  A    between atoms: C_22  and  C_23 
ROOT
HETATM    1  C   UNL     1       3.939  10.512  24.370  0.00  0.00     0.066 C 
HETATM    2  C   UNL     1       4.800  11.434  25.007  0.00  0.00     0.035 C 
HETATM    3  C   UNL     1       4.511   9.553  23.511  0.00  0.00     0.083 C 
HETATM    4  C   UNL     1       5.875   9.550  23.199  0.00  0.00     0.069 C 
HETATM    5  C   UNL     1       6.647  10.588  23.722  0.00  0.00     0.065 A 
HETATM    6  C   UNL     1       6.142  11.551  24.589  0.00  0.00     0.020 A 
HETATM    7  N   UNL     1       7.965  10.908  23.561  0.00  0.00    -0.277 N 
HETATM    8  H   UNL     1       8.662  10.398  23.033  0.00  0.00     0.189 HD
HETATM    9  N   UNL     1       8.330  12.056  24.154  0.00  0.00    -0.178 NA
HETATM   10  C   UNL     1       7.215  12.487  24.770  0.00  0.00     0.071 A 
ENDROOT
BRANCH   1  11
HETATM   11  C   UNL     1       2.441  10.502  24.582  0.00  0.00     0.260 C 
HETATM   12  N   UNL     1       1.627  11.591  24.146  0.00  0.00    -0.318 N 
HETATM   13  C   UNL     1       2.190  12.708  23.376  0.00  0.00     0.159 C 
HETATM   14  O   UNL     1       2.019   9.468  25.111  0.00  0.00    -0.267 OA
BRANCH  12  15
HETATM   15  C   UNL     1       0.197  11.673  24.427  0.00  0.00     0.037 A 
HETATM   16  C   UNL     1      -0.748  11.379  23.419  0.00  0.00     0.029 A 
HETATM   17  C   UNL     1      -2.130  11.450  23.637  0.00  0.00     0.002 A 
HETATM   18  C   UNL     1      -2.616  11.835  24.874  0.00  0.00     0.000 A 
HETATM   19  C   UNL     1      -1.718  12.124  25.893  0.00  0.00     0.002 A 
HETATM   20  C   UNL     1      -0.332  12.040  25.674  0.00  0.00     0.029 A 
ENDBRANCH  12  15
ENDBRANCH   1  11
BRANCH   3  21
HETATM   21  O   UNL     1       3.783   8.551  22.915  0.00  0.00    -0.360 OA
HETATM   22  H   UNL     1       4.257   7.703  23.068  0.00  0.00     0.217 HD
ENDBRANCH   3  21
BRANCH  10  23
HETATM   23  C   UNL     1       7.252  13.812  25.490  0.00  0.00     0.100 C 
BRANCH  23  24
HETATM   24  C   UNL     1       6.048  14.680  25.135  0.00  0.00    -0.052 A 
HETATM   25  C   UNL     1       5.878  15.298  23.887  0.00  0.00     0.007 A 
HETATM   26  C   UNL     1       4.750  16.072  23.610  0.00  0.00     0.001 A 
HETATM   27  C   UNL     1       3.806  16.323  24.601  0.00  0.00     0.007 A 
HETATM   28  C   UNL     1       4.004  15.837  25.895  0.00  0.00    -0.061 A 
HETATM   29  C   UNL     1       5.102  14.988  26.145  0.00  0.00     0.014 A 
HETATM   30  C   UNL     1       3.046  16.244  26.980  0.00  0.00     0.048 C 
ENDBRANCH  23  24
ENDBRANCH  10  23
TORSDOF 5
ENDMDL
MODEL 4
REMARK VINA RESULT:    -8.486      4.447      7.055
REMARK INTER + INTRA:         -11.575
REMARK INTER:                 -10.488
REMARK INTRA:                  -1.087
REMARK UNBOUND:                -0.857
REMARK  5 active torsions:
REMARK  status: ('A' for Active; 'I' for Inactive)
REMARK    1  A    between atoms: C_6  and  N_7 
REMARK       I    between atoms: N_7  and  C_9 
REMARK    2  A    between atoms: C_9  and  C_11 
REMARK    3  A    between atoms: C_13  and  O_14 
REMARK    4  A    between atoms: C_21  and  C_22 
REMARK    5  A    between atoms: C_22  and  C_23 
ROOT
HETATM    1  C   UNL     1       6.684  14.436  24.847  0.00  0.00     0.066 C 
HETATM    2  C   UNL     1       7.339  15.109  23.792  0.00  0.00     0.035 C 
HETATM    3  C   UNL     1       7.384  14.250  26.055  0.00  0.00     0.083 C 
HETATM    4  C   UNL     1       8.726  14.622  26.204  0.00  0.00     0.069 C 
HETATM    5  C   UNL     1       9.373  15.125  25.075  0.00  0.00     0.065 A 
HETATM    6  C   UNL     1       8.728  15.346  23.862  0.00  0.00     0.020 A 
HETATM    7  N   UNL     1      10.666  15.511  24.867  0.00  0.00    -0.277 N 
HETATM    8  H   UNL     1      11.418  15.535  25.546  0.00  0.00     0.189 HD
HETATM    9  N   UNL     1      10.942  15.853  23.599  0.00  0.00    -0.178 NA
HETATM   10  C   UNL     1       9.770  15.731  22.953  0.00  0.00     0.071 A 
ENDROOT
BRANCH   1  11
HETATM   11  C   UNL     1       5.264  13.921  24.740  0.00  0.00     0.260 C 
HETATM   12  N   UNL     1       4.156  14.818  24.700  0.00  0.00    -0.318 N 
HETATM   13  C   UNL     1       4.349  16.273  24.644  0.00  0.00     0.159 C 
HETATM   14  O   UNL     1       5.186  12.691  24.651  0.00  0.00    -0.267 OA
BRANCH  12  15
HETATM   15  C   UNL     1       2.768  14.364  24.709  0.00  0.00     0.037 A 
HETATM   16  C   UNL     1       2.118  14.028  23.500  0.00  0.00     0.029 A 
HETATM   17  C   UNL     1       0.787  13.594  23.456  0.00  0.00     0.002 A 
HETATM   18  C   UNL     1       0.051  13.496  24.625  0.00  0.00     0.000 A 
HETATM   19  C   UNL     1       0.659  13.811  25.834  0.00  0.00     0.002 A 
HETATM   20  C   UNL     1       1.999  14.234  25.875  0.00  0.00     0.029 A 
ENDBRANCH  12  15
ENDBRANCH   1  11
BRANCH   3  21
HETATM   21  O   UNL     1       6.814  13.696  27.176  0.00  0.00    -0.360 OA
HETATM   22  H   UNL     1       7.486  13.714  27.895  0.00  0.00     0.217 HD
ENDBRANCH   3  21
BRANCH  10  23
HETATM   23  C   UNL     1       9.733  15.977  21.465  0.00  0.00     0.100 C 
BRANCH  23  24
HETATM   24  C   UNL     1       9.657  14.672  20.679  0.00  0.00    -0.052 A 
HETATM   25  C   UNL     1       8.597  14.345  19.820  0.00  0.00     0.007 A 
HETATM   26  C   UNL     1       8.584  13.140  19.113  0.00  0.00     0.001 A 
HETATM   27  C   UNL     1       9.583  12.194  19.313  0.00  0.00     0.007 A 
HETATM   28  C   UNL     1      10.585  12.423  20.259  0.00  0.00    -0.061 A 
HETATM   29  C   UNL     1      10.638  13.674  20.907  0.00  0.00     0.014 A 
HETATM   30  C   UNL     1      11.565  11.324  20.560  0.00  0.00     0.048 C 
ENDBRANCH  23  24
ENDBRANCH  10  23
TORSDOF 5
ENDMDL
MODEL 5
REMARK VINA RESULT:    -8.381      1.542      2.373
REMARK INTER + INTRA:         -11.443
REMARK INTER:                 -10.236
REMARK INTRA:                  -1.207
REMARK UNBOUND:                -0.857
REMARK  5 active torsions:
REMARK  status: ('A' for Active; 'I' for Inactive)
REMARK    1  A    between atoms: C_6  and  N_7 
REMARK       I    between atoms: N_7  and  C_9 
REMARK    2  A    between atoms: C_9  and  C_11 
REMARK    3  A    between atoms: C_13  and  O_14 
REMARK    4  A    between atoms: C_21  and  C_22 
REMARK    5  A    between atoms: C_22  and  C_23 
ROOT
HETATM    1  C   UNL     1       8.268  10.633  22.769  0.00  0.00     0.066 C 
HETATM    2  C   UNL     1       8.121  11.456  23.907  0.00  0.00     0.035 C 
HETATM    3  C   UNL     1       9.375  10.854  21.926  0.00  0.00     0.083 C 
HETATM    4  C   UNL     1      10.267  11.914  22.129  0.00  0.00     0.069 C 
HETATM    5  C   UNL     1       9.974  12.798  23.168  0.00  0.00     0.065 A 
HETATM    6  C   UNL     1       8.906  12.620  24.042  0.00  0.00     0.020 A 
HETATM    7  N   UNL     1      10.588  13.945  23.584  0.00  0.00    -0.277 N 
HETATM    8  H   UNL     1      11.434  14.360  23.211  0.00  0.00     0.189 HD
HETATM    9  N   UNL     1       9.948  14.586  24.574  0.00  0.00    -0.178 NA
HETATM   10  C   UNL     1       8.891  13.804  24.854  0.00  0.00     0.071 A 
ENDROOT
BRANCH   1  11
HETATM   11  C   UNL     1       7.300   9.521  22.425  0.00  0.00     0.260 C 
HETATM   12  N   UNL     1       6.042   9.801  21.814  0.00  0.00    -0.318 N 
HETATM   13  C   UNL     1       5.682  11.160  21.388  0.00  0.00     0.159 C 
HETATM   14  O   UNL     1       7.728   8.391  22.684  0.00  0.00    -0.267 OA
BRANCH  12  15
HETATM   15  C   UNL     1       5.035   8.774  21.567  0.00  0.00     0.037 A 
HETATM   16  C   UNL     1       4.187   8.337  22.610  0.00  0.00     0.029 A 
HETATM   17  C   UNL     1       3.211   7.350  22.425  0.00  0.00     0.002 A 
HETATM   18  C   UNL     1       3.058   6.751  21.186  0.00  0.00     0.000 A 
HETATM   19  C   UNL     1       3.868   7.160  20.134  0.00  0.00     0.002 A 
HETATM   20  C   UNL     1       4.838   8.160  20.321  0.00  0.00     0.029 A 
ENDBRANCH  12  15
ENDBRANCH   1  11
BRANCH   3  21
HETATM   21  O   UNL     1       9.670  10.054  20.848  0.00  0.00    -0.360 OA
HETATM   22  H   UNL     1       9.423   9.130  21.082  0.00  0.00     0.217 HD
ENDBRANCH   3  21
BRANCH  10  23
HETATM   23  C   UNL     1       7.901  14.269  25.893  0.00  0.00     0.100 C 
BRANCH  23  24
HETATM   24  C   UNL     1       6.633  14.827  25.254  0.00  0.00    -0.052 A 
HETATM   25  C   UNL     1       6.547  15.210  23.907  0.00  0.00     0.007 A 
HETATM   26  C   UNL     1       5.357  15.704  23.369  0.00  0.00     0.001 A 
HETATM   27  C   UNL     1       4.249  15.912  24.183  0.00  0.00     0.007 A 
HETATM   28  C   UNL     1       4.333  15.670  25.555  0.00  0.00    -0.061 A 
HETATM   29  C   UNL     1       5.509  15.093  26.076  0.00  0.00     0.014 A 
HETATM   30  C   UNL     1       3.169  16.042  26.432  0.00  0.00     0.048 C 
ENDBRANCH  23  24
ENDBRANCH  10  23
TORSDOF 5
ENDMDL
MODEL 6
REMARK VINA RESULT:    -8.282      3.551      6.461
REMARK INTER + INTRA:         -11.318
REMARK INTER:                 -10.032
REMARK INTRA:                  -1.286
REMARK UNBOUND:                -0.857
REMARK  5 active torsions:
REMARK  status: ('A' for Active; 'I' for Inactive)
REMARK    1  A    between atoms: C_6  and  N_7 
REMARK       I    between atoms: N_7  and  C_9 
REMARK    2  A    between atoms: C_9  and  C_11 
REMARK    3  A    between atoms: C_13  and  O_14 
REMARK    4  A    between atoms: C_21  and  C_22 
REMARK    5  A    between atoms: C_22  and  C_23 
ROOT
HETATM    1  C   UNL     1       3.366  14.433  24.110  0.00  0.00     0.066 C 
HETATM    2  C   UNL     1       4.309  14.103  23.112  0.00  0.00     0.035 C 
HETATM    3  C   UNL     1       3.817  15.139  25.243  0.00  0.00     0.083 C 
HETATM    4  C   UNL     1       5.171  15.432  25.450  0.00  0.00     0.069 C 
HETATM    5  C   UNL     1       6.077  14.930  24.514  0.00  0.00     0.065 A 
HETATM    6  C   UNL     1       5.688  14.242  23.369  0.00  0.00     0.020 A 
HETATM    7  N   UNL     1       7.440  14.977  24.457  0.00  0.00    -0.277 N 
HETATM    8  H   UNL     1       8.068  15.443  25.102  0.00  0.00     0.189 HD
HETATM    9  N   UNL     1       7.974  14.284  23.439  0.00  0.00    -0.178 NA
HETATM   10  C   UNL     1       6.914  13.797  22.770  0.00  0.00     0.071 A 
ENDROOT
BRANCH   1  11
HETATM   11  C   UNL     1       1.899  14.077  24.010  0.00  0.00     0.260 C 
HETATM   12  N   UNL     1       1.452  12.734  24.190  0.00  0.00    -0.318 N 
HETATM   13  C   UNL     1       2.377  11.666  24.593  0.00  0.00     0.159 C 
HETATM   14  O   UNL     1       1.163  15.049  23.806  0.00  0.00    -0.267 OA
BRANCH  12  15
HETATM   15  C   UNL     1       0.064  12.327  23.993  0.00  0.00     0.037 A 
HETATM   16  C   UNL     1      -0.663  11.730  25.047  0.00  0.00     0.029 A 
HETATM   17  C   UNL     1      -1.994  11.317  24.906  0.00  0.00     0.002 A 
HETATM   18  C   UNL     1      -2.643  11.475  23.693  0.00  0.00     0.000 A 
HETATM   19  C   UNL     1      -1.963  12.066  22.635  0.00  0.00     0.002 A 
HETATM   20  C   UNL     1      -0.631  12.490  22.785  0.00  0.00     0.029 A 
ENDBRANCH  12  15
ENDBRANCH   1  11
BRANCH   3  21
HETATM   21  O   UNL     1       2.974  15.596  26.228  0.00  0.00    -0.360 OA
HETATM   22  H   UNL     1       3.419  16.349  26.679  0.00  0.00     0.217 HD
ENDBRANCH   3  21
BRANCH  10  23
HETATM   23  C   UNL     1       7.157  12.896  21.585  0.00  0.00     0.100 C 
BRANCH  23  24
HETATM   24  C   UNL     1       6.721  11.461  21.868  0.00  0.00    -0.052 A 
HETATM   25  C   UNL     1       5.502  10.921  21.431  0.00  0.00     0.007 A 
HETATM   26  C   UNL     1       5.158   9.596  21.706  0.00  0.00     0.001 A 
HETATM   27  C   UNL     1       5.981   8.804  22.501  0.00  0.00     0.007 A 
HETATM   28  C   UNL     1       7.137   9.344  23.067  0.00  0.00    -0.061 A 
HETATM   29  C   UNL     1       7.521  10.655  22.716  0.00  0.00     0.014 A 
HETATM   30  C   UNL     1       7.929   8.512  24.037  0.00  0.00     0.048 C 
ENDBRANCH  23  24
ENDBRANCH  10  23
TORSDOF 5
ENDMDL
MODEL 7
REMARK VINA RESULT:    -8.249      2.087      2.504
REMARK INTER + INTRA:         -11.277
REMARK INTER:                 -10.162
REMARK INTRA:                  -1.114
REMARK UNBOUND:                -0.857
REMARK  5 active torsions:
REMARK  status: ('A' for Active; 'I' for Inactive)
REMARK    1  A    between atoms: C_6  and  N_7 
REMARK       I    between atoms: N_7  and  C_9 
REMARK    2  A    between atoms: C_9  and  C_11 
REMARK    3  A    between atoms: C_13  and  O_14 
REMARK    4  A    between atoms: C_21  and  C_22 
REMARK    5  A    between atoms: C_22  and  C_23 
ROOT
HETATM    1  C   UNL     1       8.027  10.843  23.944  0.00  0.00     0.066 C 
HETATM    2  C   UNL     1       7.296  12.052  23.963  0.00  0.00     0.035 C 
HETATM    3  C   UNL     1       9.050  10.669  24.897  0.00  0.00     0.083 C 
HETATM    4  C   UNL     1       9.422  11.685  25.786  0.00  0.00     0.069 C 
HETATM    5  C   UNL     1       8.782  12.917  25.644  0.00  0.00     0.065 A 
HETATM    6  C   UNL     1       7.754  13.141  24.734  0.00  0.00     0.020 A 
HETATM    7  N   UNL     1       8.953  14.107  26.290  0.00  0.00    -0.277 N 
HETATM    8  H   UNL     1       9.586  14.307  27.055  0.00  0.00     0.189 HD
HETATM    9  N   UNL     1       8.208  15.111  25.802  0.00  0.00    -0.178 NA
HETATM   10  C   UNL     1       7.482  14.547  24.822  0.00  0.00     0.071 A 
ENDROOT
BRANCH   1  11
HETATM   11  C   UNL     1       7.749   9.727  22.960  0.00  0.00     0.260 C 
HETATM   12  N   UNL     1       6.665   8.821  23.158  0.00  0.00    -0.318 N 
HETATM   13  C   UNL     1       5.707   9.001  24.257  0.00  0.00     0.159 C 
HETATM   14  O   UNL     1       8.510   9.722  21.986  0.00  0.00    -0.267 OA
BRANCH  12  15
HETATM   15  C   UNL     1       6.429   7.668  22.296  0.00  0.00     0.037 A 
HETATM   16  C   UNL     1       7.238   6.514  22.405  0.00  0.00     0.029 A 
HETATM   17  C   UNL     1       7.055   5.386  21.596  0.00  0.00     0.002 A 
HETATM   18  C   UNL     1       6.060   5.378  20.634  0.00  0.00     0.000 A 
HETATM   19  C   UNL     1       5.239   6.490  20.502  0.00  0.00     0.002 A 
HETATM   20  C   UNL     1       5.418   7.616  21.324  0.00  0.00     0.029 A 
ENDBRANCH  12  15
ENDBRANCH   1  11
BRANCH   3  21
HETATM   21  O   UNL     1       9.758   9.499  25.033  0.00  0.00    -0.360 OA
HETATM   22  H   UNL     1      10.711   9.707  24.899  0.00  0.00     0.217 HD
ENDBRANCH   3  21
BRANCH  10  23
HETATM   23  C   UNL     1       6.569  15.424  24.001  0.00  0.00     0.100 C 
BRANCH  23  24
HETATM   24  C   UNL     1       5.103  15.211  24.367  0.00  0.00    -0.052 A 
HETATM   25  C   UNL     1       4.154  14.671  23.486  0.00  0.00     0.007 A 
HETATM   26  C   UNL     1       2.826  14.485  23.877  0.00  0.00     0.001 A 
HETATM   27  C   UNL     1       2.392  14.915  25.127  0.00  0.00     0.007 A 
HETATM   28  C   UNL     1       3.274  15.578  25.983  0.00  0.00    -0.061 A 
HETATM   29  C   UNL     1       4.631  15.687  25.616  0.00  0.00     0.014 A 
HETATM   30  C   UNL     1       2.743  16.161  27.264  0.00  0.00     0.048 C 
ENDBRANCH  23  24
ENDBRANCH  10  23
TORSDOF 5
ENDMDL
MODEL 8
REMARK VINA RESULT:    -8.180      3.895      6.361
REMARK INTER + INTRA:         -11.189
REMARK INTER:                  -9.992
REMARK INTRA:                  -1.198
REMARK UNBOUND:                -0.857
REMARK  5 active torsions:
REMARK  status: ('A' for Active; 'I' for Inactive)
REMARK    1  A    between atoms: C_6  and  N_7 
REMARK       I    between atoms: N_7  and  C_9 
REMARK    2  A    between atoms: C_9  and  C_11 
REMARK    3  A    between atoms: C_13  and  O_14 
REMARK    4  A    between atoms: C_21  and  C_22 
REMARK    5  A    between atoms: C_22  and  C_23 
ROOT
HETATM    1  C   UNL     1       6.962  11.347  24.862  0.00  0.00     0.066 C 
HETATM    2  C   UNL     1       8.045  12.157  25.269  0.00  0.00     0.035 C 
HETATM    3  C   UNL     1       7.228  10.009  24.508  0.00  0.00     0.083 C 
HETATM    4  C   UNL     1       8.530   9.497  24.455  0.00  0.00     0.069 C 
HETATM    5  C   UNL     1       9.573  10.391  24.700  0.00  0.00     0.065 A 
HETATM    6  C   UNL     1       9.370  11.716  25.071  0.00  0.00     0.020 A 
HETATM    7  N   UNL     1      10.929  10.234  24.664  0.00  0.00    -0.277 N 
HETATM    8  H   UNL     1      11.446   9.383  24.478  0.00  0.00     0.189 HD
HETATM    9  N   UNL     1      11.621  11.366  24.866  0.00  0.00    -0.178 NA
HETATM   10  C   UNL     1      10.680  12.301  25.090  0.00  0.00     0.071 A 
ENDROOT
BRANCH   1  11
HETATM   11  C   UNL     1       5.534  11.846  24.805  0.00  0.00     0.260 C 
HETATM   12  N   UNL     1       5.047  12.555  23.666  0.00  0.00    -0.318 N 
HETATM   13  C   UNL     1       5.868  12.728  22.461  0.00  0.00     0.159 C 
HETATM   14  O   UNL     1       4.860  11.543  25.795  0.00  0.00    -0.267 OA
BRANCH  12  15
HETATM   15  C   UNL     1       3.714  13.149  23.614  0.00  0.00     0.037 A 
HETATM   16  C   UNL     1       3.497  14.463  24.087  0.00  0.00     0.029 A 
HETATM   17  C   UNL     1       2.237  15.074  24.065  0.00  0.00     0.002 A 
HETATM   18  C   UNL     1       1.141  14.381  23.579  0.00  0.00     0.000 A 
HETATM   19  C   UNL     1       1.316  13.090  23.098  0.00  0.00     0.002 A 
HETATM   20  C   UNL     1       2.585  12.485  23.110  0.00  0.00     0.029 A 
ENDBRANCH  12  15
ENDBRANCH   1  11
BRANCH   3  21
HETATM   21  O   UNL     1       6.242   9.106  24.191  0.00  0.00    -0.360 OA
HETATM   22  H   UNL     1       5.573   9.572  23.640  0.00  0.00     0.217 HD
ENDBRANCH   3  21
BRANCH  10  23
HETATM   23  C   UNL     1      11.114  13.732  25.290  0.00  0.00     0.100 C 
BRANCH  23  24
HETATM   24  C   UNL     1      10.794  14.594  24.072  0.00  0.00    -0.052 A 
HETATM   25  C   UNL     1      10.770  15.997  24.099  0.00  0.00     0.007 A 
HETATM   26  C   UNL     1      10.484  16.738  22.951  0.00  0.00     0.001 A 
HETATM   27  C   UNL     1      10.125  16.098  21.770  0.00  0.00     0.007 A 
HETATM   28  C   UNL     1      10.006  14.707  21.735  0.00  0.00    -0.061 A 
HETATM   29  C   UNL     1      10.378  13.962  22.873  0.00  0.00     0.014 A 
HETATM   30  C   UNL     1       9.477  14.053  20.490  0.00  0.00     0.048 C 
ENDBRANCH  23  24
ENDBRANCH  10  23
TORSDOF 5
ENDMDL
MODEL 9
REMARK VINA RESULT:    -8.039      3.736      6.126
REMARK INTER + INTRA:         -11.011
REMARK INTER:                 -10.154
REMARK INTRA:                  -0.857
REMARK UNBOUND:                -0.857
REMARK  5 active torsions:
REMARK  status: ('A' for Active; 'I' for Inactive)
REMARK    1  A    between atoms: C_6  and  N_7 
REMARK       I    between atoms: N_7  and  C_9 
REMARK    2  A    between atoms: C_9  and  C_11 
REMARK    3  A    between atoms: C_13  and  O_14 
REMARK    4  A    between atoms: C_21  and  C_22 
REMARK    5  A    between atoms: C_22  and  C_23 
ROOT
HETATM    1  C   UNL     1       5.698  14.243  23.747  0.00  0.00     0.066 C 
HETATM    2  C   UNL     1       4.388  13.812  23.441  0.00  0.00     0.035 C 
HETATM    3  C   UNL     1       5.943  14.773  25.029  0.00  0.00     0.083 C 
HETATM    4  C   UNL     1       4.917  14.974  25.961  0.00  0.00     0.069 C 
HETATM    5  C   UNL     1       3.616  14.691  25.542  0.00  0.00     0.065 A 
HETATM    6  C   UNL     1       3.318  14.149  24.296  0.00  0.00     0.020 A 
HETATM    7  N   UNL     1       2.411  14.835  26.167  0.00  0.00    -0.277 N 
HETATM    8  H   UNL     1       2.243  15.157  27.113  0.00  0.00     0.189 HD
HETATM    9  N   UNL     1       1.352  14.542  25.396  0.00  0.00    -0.178 NA
HETATM   10  C   UNL     1       1.884  14.146  24.228  0.00  0.00     0.071 A 
ENDROOT
BRANCH   1  11
HETATM   11  C   UNL     1       6.848  14.145  22.766  0.00  0.00     0.260 C 
HETATM   12  N   UNL     1       7.469  12.893  22.481  0.00  0.00    -0.318 N 
HETATM   13  C   UNL     1       6.949  11.635  23.033  0.00  0.00     0.159 C 
HETATM   14  O   UNL     1       7.141  15.221  22.234  0.00  0.00    -0.267 OA
BRANCH  12  15
HETATM   15  C   UNL     1       8.648  12.770  21.629  0.00  0.00     0.037 A 
HETATM   16  C   UNL     1       8.508  12.620  20.231  0.00  0.00     0.029 A 
HETATM   17  C   UNL     1       9.608  12.492  19.372  0.00  0.00     0.002 A 
HETATM   18  C   UNL     1      10.892  12.492  19.889  0.00  0.00     0.000 A 
HETATM   19  C   UNL     1      11.070  12.645  21.258  0.00  0.00     0.002 A 
HETATM   20  C   UNL     1       9.964  12.786  22.114  0.00  0.00     0.029 A 
ENDBRANCH  12  15
ENDBRANCH   1  11
BRANCH   3  21
HETATM   21  O   UNL     1       7.195  15.133  25.467  0.00  0.00    -0.360 OA
HETATM   22  H   UNL     1       7.086  15.847  26.135  0.00  0.00     0.217 HD
ENDBRANCH   3  21
BRANCH  10  23
HETATM   23  C   UNL     1       0.956  13.802  23.089  0.00  0.00     0.100 C 
BRANCH  23  24
HETATM   24  C   UNL     1      -0.080  12.761  23.499  0.00  0.00    -0.052 A 
HETATM   25  C   UNL     1      -1.465  12.980  23.441  0.00  0.00     0.007 A 
HETATM   26  C   UNL     1      -2.372  11.986  23.817  0.00  0.00     0.001 A 
HETATM   27  C   UNL     1      -1.919  10.782  24.345  0.00  0.00     0.007 A 
HETATM   28  C   UNL     1      -0.552  10.575  24.545  0.00  0.00    -0.061 A 
HETATM   29  C   UNL     1       0.360  11.547  24.086  0.00  0.00     0.014 A 
HETATM   30  C   UNL     1      -0.101   9.327  25.251  0.00  0.00     0.048 C 
ENDBRANCH  23  24
ENDBRANCH  10  23
TORSDOF 5
ENDMDL
