MODEL 1
REMARK VINA RESULT:    -8.654      0.000      0.000
REMARK INTER + INTRA:         -12.946
REMARK INTER:                 -11.588
REMARK INTRA:                  -1.357
REMARK UNBOUND:                -1.509
REMARK  6 active torsions:
REMARK  status: ('A' for Active; 'I' for Inactive)
REMARK    1  A    between atoms: C_7  and  C_8 
REMARK    2  A    between atoms: C_8  and  N_9 
REMARK       I    between atoms: N_9  and  C_11 
REMARK    3  A    between atoms: C_11  and  C_13 
REMARK    4  A    between atoms: C_15  and  O_16 
REMARK    5  A    between atoms: C_23  and  C_24 
REMARK    6  A    between atoms: C_24  and  C_25 
ROOT
HETATM    1  C   UNL     1       8.016  13.363  25.582  0.00  0.00     0.066 C 
HETATM    2  C   UNL     1       9.329  13.919  25.618  0.00  0.00     0.035 C 
HETATM    3  C   UNL     1       7.937  11.967  25.515  0.00  0.00     0.083 C 
HETATM    4  C   UNL     1       9.052  11.125  25.677  0.00  0.00     0.069 C 
HETATM    5  C   UNL     1      10.307  11.727  25.737  0.00  0.00     0.065 A 
HETATM    6  C   UNL     1      10.485  13.100  25.651  0.00  0.00     0.020 A 
HETATM    7  N   UNL     1      11.564  11.195  25.822  0.00  0.00    -0.277 N 
HETATM    8  H   UNL     1      11.817  10.220  25.927  0.00  0.00     0.189 HD
HETATM    9  N   UNL     1      12.540  12.085  25.647  0.00  0.00    -0.178 NA
HETATM   10  C   UNL     1      11.904  13.263  25.529  0.00  0.00     0.071 A 
ENDROOT
BRANCH   1  11
HETATM   11  C   UNL     1       6.889  14.377  25.490  0.00  0.00     0.256 C 
HETATM   12  N   UNL     1       6.119  14.665  24.343  0.00  0.00    -0.348 N 
HETATM   13  C   UNL     1       6.384  14.197  22.997  0.00  0.00     0.153 C 
HETATM   14  O   UNL     1       6.623  14.956  26.549  0.00  0.00    -0.267 OA
BRANCH  12  15
HETATM   15  C   UNL     1       5.110  15.731  24.433  0.00  0.00     0.164 C 
BRANCH  15  16
HETATM   16  C   UNL     1       3.685  15.270  24.709  0.00  0.00    -0.040 A 
HETATM   17  C   UNL     1       3.211  15.170  26.031  0.00  0.00     0.010 A 
HETATM   18  C   UNL     1       1.987  14.547  26.311  0.00  0.00     0.024 A 
HETATM   19  C   UNL     1       1.229  14.015  25.270  0.00  0.00     0.034 A 
HETATM   20 CL   UNL     1      -0.218  13.150  25.621  0.00  0.00    -0.084 Cl
HETATM   21  C   UNL     1       1.658  14.151  23.953  0.00  0.00     0.024 A 
HETATM   22  C   UNL     1       2.879  14.775  23.673  0.00  0.00     0.010 A 
ENDBRANCH  15  16
ENDBRANCH  12  15
ENDBRANCH   1  11
BRANCH   3  23
HETATM   23  O   UNL     1       6.798  11.302  25.160  0.00  0.00    -0.360 OA
HETATM   24  H   UNL     1       6.145  11.991  24.935  0.00  0.00     0.217 HD
ENDBRANCH   3  23
BRANCH  10  25
HETATM   25  C   UNL     1      12.668  14.478  25.111  0.00  0.00     0.100 C 
BRANCH  25  26
HETATM   26  C   UNL     1      12.328  14.800  23.680  0.00  0.00    -0.052 A 
HETATM   27  C   UNL     1      12.890  14.069  22.623  0.00  0.00     0.007 A 
HETATM   28  C   UNL     1      12.478  14.292  21.308  0.00  0.00     0.001 A 
HETATM   29  C   UNL     1      11.520  15.267  21.032  0.00  0.00     0.007 A 
HETATM   30  C   UNL     1      10.982  16.040  22.066  0.00  0.00    -0.061 A 
HETATM   31  C   UNL     1      11.383  15.793  23.386  0.00  0.00     0.014 A 
HETATM   32  C   UNL     1      10.001  17.139  21.789  0.00  0.00     0.048 C 
ENDBRANCH  25  26
ENDBRANCH  10  25
TORSDOF 6
ENDMDL
MODEL 2
REMARK VINA RESULT:    -8.370      2.222      3.071
REMARK INTER + INTRA:         -12.570
REMARK INTER:                 -11.546
REMARK INTRA:                  -1.024
REMARK UNBOUND:                -1.509
REMARK  6 active torsions:
REMARK  status: ('A' for Active; 'I' for Inactive)
REMARK    1  A    between atoms: C_7  and  C_8 
REMARK    2  A    between atoms: C_8  and  N_9 
REMARK       I    between atoms: N_9  and  C_11 
REMARK    3  A    between atoms: C_11  and  C_13 
REMARK    4  A    between atoms: C_15  and  O_16 
REMARK    5  A    between atoms: C_23  and  C_24 
REMARK    6  A    between atoms: C_24  and  C_25 
ROOT
HETATM    1  C   UNL     1       8.956  14.397  25.246  0.00  0.00     0.066 C 
HETATM    2  C   UNL     1       9.559  13.388  24.440  0.00  0.00     0.035 C 
HETATM    3  C   UNL     1       9.596  14.688  26.456  0.00  0.00     0.083 C 
HETATM    4  C   UNL     1      10.865  14.186  26.794  0.00  0.00     0.069 C 
HETATM    5  C   UNL     1      11.419  13.223  25.952  0.00  0.00     0.065 A 
HETATM    6  C   UNL     1      10.776  12.763  24.814  0.00  0.00     0.020 A 
HETATM    7  N   UNL     1      12.580  12.506  26.038  0.00  0.00    -0.277 N 
HETATM    8  H   UNL     1      13.314  12.595  26.730  0.00  0.00     0.189 HD
HETATM    9  N   UNL     1      12.673  11.520  25.145  0.00  0.00    -0.178 NA
HETATM   10  C   UNL     1      11.571  11.650  24.386  0.00  0.00     0.071 A 
ENDROOT
BRANCH   1  11
HETATM   11  C   UNL     1       7.625  14.923  24.732  0.00  0.00     0.256 C 
HETATM   12  N   UNL     1       7.248  15.053  23.380  0.00  0.00    -0.348 N 
HETATM   13  C   UNL     1       8.119  14.900  22.231  0.00  0.00     0.153 C 
HETATM   14  O   UNL     1       6.808  15.215  25.612  0.00  0.00    -0.267 OA
BRANCH  12  15
HETATM   15  C   UNL     1       5.936  15.645  23.079  0.00  0.00     0.164 C 
BRANCH  15  16
HETATM   16  C   UNL     1       4.729  14.770  23.390  0.00  0.00    -0.040 A 
HETATM   17  C   UNL     1       4.698  13.425  22.977  0.00  0.00     0.010 A 
HETATM   18  C   UNL     1       3.518  12.673  23.063  0.00  0.00     0.024 A 
HETATM   19  C   UNL     1       2.358  13.263  23.559  0.00  0.00     0.034 A 
HETATM   20 CL   UNL     1       0.881  12.377  23.559  0.00  0.00    -0.084 Cl
HETATM   21  C   UNL     1       2.384  14.576  24.020  0.00  0.00     0.024 A 
HETATM   22  C   UNL     1       3.563  15.326  23.937  0.00  0.00     0.010 A 
ENDBRANCH  15  16
ENDBRANCH  12  15
ENDBRANCH   1  11
BRANCH   3  23
HETATM   23  O   UNL     1       8.996  15.381  27.468  0.00  0.00    -0.360 OA
HETATM   24  H   UNL     1       8.354  14.766  27.870  0.00  0.00     0.217 HD
ENDBRANCH   3  23
BRANCH  10  25
HETATM   25  C   UNL     1      11.223  10.583  23.399  0.00  0.00     0.100 C 
BRANCH  25  26
HETATM   26  C   UNL     1      10.859  11.230  22.089  0.00  0.00    -0.052 A 
HETATM   27  C   UNL     1      11.832  11.862  21.301  0.00  0.00     0.007 A 
HETATM   28  C   UNL     1      11.510  12.352  20.033  0.00  0.00     0.001 A 
HETATM   29  C   UNL     1      10.206  12.240  19.551  0.00  0.00     0.007 A 
HETATM   30  C   UNL     1       9.211  11.656  20.340  0.00  0.00    -0.061 A 
HETATM   31  C   UNL     1       9.546  11.145  21.602  0.00  0.00     0.014 A 
HETATM   32  C   UNL     1       7.788  11.584  19.873  0.00  0.00     0.048 C 
ENDBRANCH  25  26
ENDBRANCH  10  25
TORSDOF 6
ENDMDL
MODEL 3
REMARK VINA RESULT:    -8.334      2.293      2.726
REMARK INTER + INTRA:         -12.523
REMARK INTER:                 -11.242
REMARK INTRA:                  -1.280
REMARK UNBOUND:                -1.509
REMARK  6 active torsions:
REMARK  status: ('A' for Active; 'I' for Inactive)
REMARK    1  A    between atoms: C_7  and  C_8 
REMARK    2  A    between atoms: C_8  and  N_9 
REMARK       I    between atoms: N_9  and  C_11 
REMARK    3  A    between atoms: C_11  and  C_13 
REMARK    4  A    between atoms: C_15  and  O_16 
REMARK    5  A    between atoms: C_23  and  C_24 
REMARK    6  A    between atoms: C_24  and  C_25 
ROOT
HETATM    1  C   UNL     1       8.943  13.230  24.792  0.00  0.00     0.066 C 
HETATM    2  C   UNL     1       9.911  13.116  23.750  0.00  0.00     0.035 C 
HETATM    3  C   UNL     1       8.991  12.250  25.790  0.00  0.00     0.083 C 
HETATM    4  C   UNL     1      10.038  11.318  25.904  0.00  0.00     0.069 C 
HETATM    5  C   UNL     1      10.972  11.274  24.870  0.00  0.00     0.065 A 
HETATM    6  C   UNL     1      10.905  12.106  23.763  0.00  0.00     0.020 A 
HETATM    7  N   UNL     1      12.045  10.455  24.654  0.00  0.00    -0.277 N 
HETATM    8  H   UNL     1      12.410   9.738  25.269  0.00  0.00     0.189 HD
HETATM    9  N   UNL     1      12.585  10.580  23.442  0.00  0.00    -0.178 NA
HETATM   10  C   UNL     1      11.896  11.583  22.869  0.00  0.00     0.071 A 
ENDROOT
BRANCH   1  11
HETATM   11  C   UNL     1       7.912  14.329  24.597  0.00  0.00     0.256 C 
HETATM   12  N   UNL     1       6.804  14.286  23.726  0.00  0.00    -0.348 N 
HETATM   13  C   UNL     1       6.549  13.278  22.716  0.00  0.00     0.153 C 
HETATM   14  O   UNL     1       8.070  15.323  25.315  0.00  0.00    -0.267 OA
BRANCH  12  15
HETATM   15  C   UNL     1       5.950  15.480  23.628  0.00  0.00     0.164 C 
BRANCH  15  16
HETATM   16  C   UNL     1       4.579  15.368  24.283  0.00  0.00    -0.040 A 
HETATM   17  C   UNL     1       4.404  15.716  25.636  0.00  0.00     0.010 A 
HETATM   18  C   UNL     1       3.211  15.417  26.306  0.00  0.00     0.024 A 
HETATM   19  C   UNL     1       2.184  14.763  25.629  0.00  0.00     0.034 A 
HETATM   20 CL   UNL     1       0.762  14.293  26.480  0.00  0.00    -0.084 Cl
HETATM   21  C   UNL     1       2.320  14.459  24.278  0.00  0.00     0.024 A 
HETATM   22  C   UNL     1       3.511  14.760  23.608  0.00  0.00     0.010 A 
ENDBRANCH  15  16
ENDBRANCH  12  15
ENDBRANCH   1  11
BRANCH   3  23
HETATM   23  O   UNL     1       7.966  12.029  26.665  0.00  0.00    -0.360 OA
HETATM   24  H   UNL     1       7.383  11.375  26.236  0.00  0.00     0.217 HD
ENDBRANCH   3  23
BRANCH  10  25
HETATM   25  C   UNL     1      12.084  11.874  21.416  0.00  0.00     0.100 C 
BRANCH  25  26
HETATM   26  C   UNL     1      10.735  11.933  20.751  0.00  0.00    -0.052 A 
HETATM   27  C   UNL     1       9.926  10.791  20.656  0.00  0.00     0.007 A 
HETATM   28  C   UNL     1       8.628  10.880  20.149  0.00  0.00     0.001 A 
HETATM   29  C   UNL     1       8.134  12.106  19.705  0.00  0.00     0.007 A 
HETATM   30  C   UNL     1       8.941  13.247  19.746  0.00  0.00    -0.061 A 
HETATM   31  C   UNL     1      10.234  13.155  20.279  0.00  0.00     0.014 A 
HETATM   32  C   UNL     1       8.458  14.562  19.213  0.00  0.00     0.048 C 
ENDBRANCH  25  26
ENDBRANCH  10  25
TORSDOF 6
ENDMDL
MODEL 4
REMARK VINA RESULT:    -8.287      2.719      4.838
REMARK INTER + INTRA:         -12.461
REMARK INTER:                 -10.906
REMARK INTRA:                  -1.556
REMARK UNBOUND:                -1.509
REMARK  6 active torsions:
REMARK  status: ('A' for Active; 'I' for Inactive)
REMARK    1  A    between atoms: C_7  and  C_8 
REMARK    2  A    between atoms: C_8  and  N_9 
REMARK       I    between atoms: N_9  and  C_11 
REMARK    3  A    between atoms: C_11  and  C_13 
REMARK    4  A    between atoms: C_15  and  O_16 
REMARK    5  A    between atoms: C_23  and  C_24 
REMARK    6  A    between atoms: C_24  and  C_25 
ROOT
HETATM    1  C   UNL     1       9.856  13.650  21.637  0.00  0.00     0.066 C 
HETATM    2  C   UNL     1       9.822  12.530  22.518  0.00  0.00     0.035 C 
HETATM    3  C   UNL     1      11.073  13.891  20.989  0.00  0.00     0.083 C 
HETATM    4  C   UNL     1      12.153  12.991  21.022  0.00  0.00     0.069 C 
HETATM    5  C   UNL     1      12.050  11.896  21.879  0.00  0.00     0.065 A 
HETATM    6  C   UNL     1      10.938  11.671  22.676  0.00  0.00     0.020 A 
HETATM    7  N   UNL     1      12.933  10.899  22.184  0.00  0.00    -0.277 N 
HETATM    8  H   UNL     1      13.843  10.730  21.772  0.00  0.00     0.189 HD
HETATM    9  N   UNL     1      12.557  10.139  23.212  0.00  0.00    -0.178 NA
HETATM   10  C   UNL     1      11.337  10.599  23.540  0.00  0.00     0.071 A 
ENDROOT
BRANCH   1  11
HETATM   11  C   UNL     1       8.598  14.503  21.628  0.00  0.00     0.256 C 
HETATM   12  N   UNL     1       7.996  15.110  22.749  0.00  0.00    -0.348 N 
HETATM   13  C   UNL     1       8.345  14.878  24.137  0.00  0.00     0.153 C 
HETATM   14  O   UNL     1       8.107  14.692  20.509  0.00  0.00    -0.267 OA
BRANCH  12  15
HETATM   15  C   UNL     1       6.739  15.847  22.548  0.00  0.00     0.164 C 
BRANCH  15  16
HETATM   16  C   UNL     1       5.514  15.264  23.241  0.00  0.00    -0.040 A 
HETATM   17  C   UNL     1       5.078  13.960  22.942  0.00  0.00     0.010 A 
HETATM   18  C   UNL     1       3.840  13.491  23.403  0.00  0.00     0.024 A 
HETATM   19  C   UNL     1       3.027  14.327  24.165  0.00  0.00     0.034 A 
HETATM   20 CL   UNL     1       1.458  13.795  24.636  0.00  0.00    -0.084 Cl
HETATM   21  C   UNL     1       3.465  15.601  24.514  0.00  0.00     0.024 A 
HETATM   22  C   UNL     1       4.702  16.068  24.055  0.00  0.00     0.010 A 
ENDBRANCH  15  16
ENDBRANCH  12  15
ENDBRANCH   1  11
BRANCH   3  23
HETATM   23  O   UNL     1      11.369  15.074  20.375  0.00  0.00    -0.360 OA
HETATM   24  H   UNL     1      11.683  15.671  21.080  0.00  0.00     0.217 HD
ENDBRANCH   3  23
BRANCH  10  25
HETATM   25  C   UNL     1      10.680  10.121  24.795  0.00  0.00     0.100 C 
BRANCH  25  26
HETATM   26  C   UNL     1       9.188  10.279  24.655  0.00  0.00    -0.052 A 
HETATM   27  C   UNL     1       8.441   9.398  23.859  0.00  0.00     0.007 A 
HETATM   28  C   UNL     1       7.048   9.475  23.830  0.00  0.00     0.001 A 
HETATM   29  C   UNL     1       6.387  10.451  24.576  0.00  0.00     0.007 A 
HETATM   30  C   UNL     1       7.115  11.369  25.339  0.00  0.00    -0.061 A 
HETATM   31  C   UNL     1       8.513  11.270  25.381  0.00  0.00     0.014 A 
HETATM   32  C   UNL     1       6.433  12.468  26.095  0.00  0.00     0.048 C 
ENDBRANCH  25  26
ENDBRANCH  10  25
TORSDOF 6
ENDMDL
MODEL 5
REMARK VINA RESULT:    -8.269      1.588      2.282
REMARK INTER + INTRA:         -12.438
REMARK INTER:                 -11.372
REMARK INTRA:                  -1.066
REMARK UNBOUND:                -1.509
REMARK  6 active torsions:
REMARK  status: ('A' for Active; 'I' for Inactive)
REMARK    1  A    between atoms: C_7  and  C_8 
REMARK    2  A    between atoms: C_8  and  N_9 
REMARK       I    between atoms: N_9  and  C_11 
REMARK    3  A    between atoms: C_11  and  C_13 
REMARK    4  A    between atoms: C_15  and  O_16 
REMARK    5  A    between atoms: C_23  and  C_24 
REMARK    6  A    between atoms: C_24  and  C_25 
ROOT
HETATM    1  C   UNL     1       7.608  11.703  24.545  0.00  0.00     0.066 C 
HETATM    2  C   UNL     1       8.489  12.731  24.992  0.00  0.00     0.035 C 
HETATM    3  C   UNL     1       8.157  10.420  24.440  0.00  0.00     0.083 C 
HETATM    4  C   UNL     1       9.433  10.088  24.929  0.00  0.00     0.069 C 
HETATM    5  C   UNL     1      10.238  11.131  25.382  0.00  0.00     0.065 A 
HETATM    6  C   UNL     1       9.827  12.455  25.372  0.00  0.00     0.020 A 
HETATM    7  N   UNL     1      11.525  11.147  25.845  0.00  0.00    -0.277 N 
HETATM    8  H   UNL     1      12.132  10.354  26.011  0.00  0.00     0.189 HD
HETATM    9  N   UNL     1      12.031  12.371  25.990  0.00  0.00    -0.178 NA
HETATM   10  C   UNL     1      11.010  13.195  25.696  0.00  0.00     0.071 A 
ENDROOT
BRANCH   1  11
HETATM   11  C   UNL     1       6.227  12.176  24.121  0.00  0.00     0.256 C 
HETATM   12  N   UNL     1       5.947  13.179  23.170  0.00  0.00    -0.348 N 
HETATM   13  C   UNL     1       6.910  14.079  22.567  0.00  0.00     0.153 C 
HETATM   14  O   UNL     1       5.287  11.574  24.650  0.00  0.00    -0.267 OA
BRANCH  12  15
HETATM   15  C   UNL     1       4.541  13.544  22.940  0.00  0.00     0.164 C 
BRANCH  15  16
HETATM   16  C   UNL     1       3.884  14.370  24.039  0.00  0.00    -0.040 A 
HETATM   17  C   UNL     1       4.421  15.617  24.411  0.00  0.00     0.010 A 
HETATM   18  C   UNL     1       3.963  16.285  25.555  0.00  0.00     0.024 A 
HETATM   19  C   UNL     1       2.967  15.707  26.338  0.00  0.00     0.034 A 
HETATM   20 CL   UNL     1       2.483  16.469  27.805  0.00  0.00    -0.084 Cl
HETATM   21  C   UNL     1       2.389  14.500  25.957  0.00  0.00     0.024 A 
HETATM   22  C   UNL     1       2.844  13.835  24.812  0.00  0.00     0.010 A 
ENDBRANCH  15  16
ENDBRANCH  12  15
ENDBRANCH   1  11
BRANCH   3  23
HETATM   23  O   UNL     1       7.560   9.410  23.743  0.00  0.00    -0.360 OA
HETATM   24  H   UNL     1       6.999   9.841  23.072  0.00  0.00     0.217 HD
ENDBRANCH   3  23
BRANCH  10  25
HETATM   25  C   UNL     1      11.262  14.660  25.549  0.00  0.00     0.100 C 
BRANCH  25  26
HETATM   26  C   UNL     1      11.063  15.047  24.108  0.00  0.00    -0.052 A 
HETATM   27  C   UNL     1      10.109  16.009  23.744  0.00  0.00     0.007 A 
HETATM   28  C   UNL     1      10.015  16.451  22.423  0.00  0.00     0.001 A 
HETATM   29  C   UNL     1      10.854  15.916  21.446  0.00  0.00     0.007 A 
HETATM   30  C   UNL     1      11.779  14.922  21.778  0.00  0.00    -0.061 A 
HETATM   31  C   UNL     1      11.885  14.501  23.111  0.00  0.00     0.014 A 
HETATM   32  C   UNL     1      12.646  14.284  20.735  0.00  0.00     0.048 C 
ENDBRANCH  25  26
ENDBRANCH  10  25
TORSDOF 6
ENDMDL
MODEL 6
REMARK VINA RESULT:    -8.235      6.684      9.921
REMARK INTER + INTRA:         -12.392
REMARK INTER:                 -11.448
REMARK INTRA:                  -0.944
REMARK UNBOUND:                -1.509
REMARK  6 active torsions:
REMARK  status: ('A' for Active; 'I' for Inactive)
REMARK    1  A    between atoms: C_7  and  C_8 
REMARK    2  A    between atoms: C_8  and  N_9 
REMARK       I    between atoms: N_9  and  C_11 
REMARK    3  A    between atoms: C_11  and  C_13 
REMARK    4  A    between atoms: C_15  and  O_16 
REMARK    5  A    between atoms: C_23  and  C_24 
REMARK    6  A    between atoms: C_24  and  C_25 
ROOT
HETATM    1  C   UNL     1      -1.058  10.390  26.001  0.00  0.00     0.066 C 
HETATM    2  C   UNL     1       0.140  10.673  25.281  0.00  0.00     0.035 C 
HETATM    3  C   UNL     1      -2.133  11.259  25.780  0.00  0.00     0.083 C 
HETATM    4  C   UNL     1      -2.136  12.236  24.768  0.00  0.00     0.069 C 
HETATM    5  C   UNL     1      -0.945  12.446  24.076  0.00  0.00     0.065 A 
HETATM    6  C   UNL     1       0.214  11.734  24.344  0.00  0.00     0.020 A 
HETATM    7  N   UNL     1      -0.609  13.348  23.105  0.00  0.00    -0.277 N 
HETATM    8  H   UNL     1      -1.215  14.015  22.644  0.00  0.00     0.189 HD
HETATM    9  N   UNL     1       0.694  13.385  22.829  0.00  0.00    -0.178 NA
HETATM   10  C   UNL     1       1.226  12.409  23.586  0.00  0.00     0.071 A 
ENDROOT
BRANCH   1  11
HETATM   11  C   UNL     1      -0.953   9.257  27.008  0.00  0.00     0.256 C 
HETATM   12  N   UNL     1      -0.479   7.954  26.750  0.00  0.00    -0.348 N 
HETATM   13  C   UNL     1      -0.190   7.393  25.445  0.00  0.00     0.153 C 
HETATM   14  O   UNL     1      -1.286   9.554  28.161  0.00  0.00    -0.267 OA
BRANCH  12  15
HETATM   15  C   UNL     1      -0.514   6.972  27.844  0.00  0.00     0.164 C 
BRANCH  15  16
HETATM   16  C   UNL     1       0.655   7.027  28.819  0.00  0.00    -0.040 A 
HETATM   17  C   UNL     1       1.980   6.964  28.348  0.00  0.00     0.010 A 
HETATM   18  C   UNL     1       3.052   6.796  29.235  0.00  0.00     0.024 A 
HETATM   19  C   UNL     1       2.805   6.685  30.601  0.00  0.00     0.034 A 
HETATM   20 CL   UNL     1       4.108   6.365  31.682  0.00  0.00    -0.084 Cl
HETATM   21  C   UNL     1       1.506   6.797  31.089  0.00  0.00     0.024 A 
HETATM   22  C   UNL     1       0.437   6.968  30.203  0.00  0.00     0.010 A 
ENDBRANCH  15  16
ENDBRANCH  12  15
ENDBRANCH   1  11
BRANCH   3  23
HETATM   23  O   UNL     1      -3.220  11.323  26.603  0.00  0.00    -0.360 OA
HETATM   24  H   UNL     1      -3.961  10.937  26.100  0.00  0.00     0.217 HD
ENDBRANCH   3  23
BRANCH  10  25
HETATM   25  C   UNL     1       2.711  12.287  23.699  0.00  0.00     0.100 C 
BRANCH  25  26
HETATM   26  C   UNL     1       3.279  13.616  24.119  0.00  0.00    -0.052 A 
HETATM   27  C   UNL     1       4.154  14.324  23.282  0.00  0.00     0.007 A 
HETATM   28  C   UNL     1       4.581  15.609  23.625  0.00  0.00     0.001 A 
HETATM   29  C   UNL     1       4.159  16.189  24.821  0.00  0.00     0.007 A 
HETATM   30  C   UNL     1       3.325  15.481  25.692  0.00  0.00    -0.061 A 
HETATM   31  C   UNL     1       2.882  14.202  25.330  0.00  0.00     0.014 A 
HETATM   32  C   UNL     1       2.912  16.055  27.013  0.00  0.00     0.048 C 
ENDBRANCH  25  26
ENDBRANCH  10  25
TORSDOF 6
ENDMDL
MODEL 7
REMARK VINA RESULT:    -8.220      2.165      3.892
REMARK INTER + INTRA:         -12.373
REMARK INTER:                 -10.954
REMARK INTRA:                  -1.419
REMARK UNBOUND:                -1.509
REMARK  6 active torsions:
REMARK  status: ('A' for Active; 'I' for Inactive)
REMARK    1  A    between atoms: C_7  and  C_8 
REMARK    2  A    between atoms: C_8  and  N_9 
REMARK       I    between atoms: N_9  and  C_11 
REMARK    3  A    between atoms: C_11  and  C_13 
REMARK    4  A    between atoms: C_15  and  O_16 
REMARK    5  A    between atoms: C_23  and  C_24 
REMARK    6  A    between atoms: C_24  and  C_25 
ROOT
HETATM    1  C   UNL     1       8.677  14.529  25.133  0.00  0.00     0.066 C 
HETATM    2  C   UNL     1       9.301  13.641  24.208  0.00  0.00     0.035 C 
HETATM    3  C   UNL     1       9.366  14.761  26.329  0.00  0.00     0.083 C 
HETATM    4  C   UNL     1      10.685  14.327  26.553  0.00  0.00     0.069 C 
HETATM    5  C   UNL     1      11.254  13.486  25.599  0.00  0.00     0.065 A 
HETATM    6  C   UNL     1      10.578  13.079  24.459  0.00  0.00     0.020 A 
HETATM    7  N   UNL     1      12.465  12.852  25.557  0.00  0.00    -0.277 N 
HETATM    8  H   UNL     1      13.231  12.936  26.215  0.00  0.00     0.189 HD
HETATM    9  N   UNL     1      12.573  11.958  24.575  0.00  0.00    -0.178 NA
HETATM   10  C   UNL     1      11.422  12.070  23.890  0.00  0.00     0.071 A 
ENDROOT
BRANCH   1  11
HETATM   11  C   UNL     1       7.285  14.995  24.740  0.00  0.00     0.256 C 
HETATM   12  N   UNL     1       6.834  15.260  23.431  0.00  0.00    -0.348 N 
HETATM   13  C   UNL     1       7.659  15.328  22.240  0.00  0.00     0.153 C 
HETATM   14  O   UNL     1       6.489  15.104  25.680  0.00  0.00    -0.267 OA
BRANCH  12  15
HETATM   15  C   UNL     1       5.465  15.768  23.257  0.00  0.00     0.164 C 
BRANCH  15  16
HETATM   16  C   UNL     1       4.357  14.727  23.352  0.00  0.00    -0.040 A 
HETATM   17  C   UNL     1       3.142  15.036  23.992  0.00  0.00     0.010 A 
HETATM   18  C   UNL     1       2.204  14.034  24.277  0.00  0.00     0.024 A 
HETATM   19  C   UNL     1       2.478  12.714  23.928  0.00  0.00     0.034 A 
HETATM   20 CL   UNL     1       1.380  11.465  24.378  0.00  0.00    -0.084 Cl
HETATM   21  C   UNL     1       3.651  12.398  23.248  0.00  0.00     0.024 A 
HETATM   22  C   UNL     1       4.585  13.400  22.961  0.00  0.00     0.010 A 
ENDBRANCH  15  16
ENDBRANCH  12  15
ENDBRANCH   1  11
BRANCH   3  23
HETATM   23  O   UNL     1       8.780  15.316  27.430  0.00  0.00    -0.360 OA
HETATM   24  H   UNL     1       8.796  16.280  27.285  0.00  0.00     0.217 HD
ENDBRANCH   3  23
BRANCH  10  25
HETATM   25  C   UNL     1      11.093  11.069  22.830  0.00  0.00     0.100 C 
BRANCH  25  26
HETATM   26  C   UNL     1       9.785  10.407  23.174  0.00  0.00    -0.052 A 
HETATM   27  C   UNL     1       9.625   9.708  24.380  0.00  0.00     0.007 A 
HETATM   28  C   UNL     1       8.378   9.201  24.747  0.00  0.00     0.001 A 
HETATM   29  C   UNL     1       7.281   9.363  23.900  0.00  0.00     0.007 A 
HETATM   30  C   UNL     1       7.429  10.015  22.672  0.00  0.00    -0.061 A 
HETATM   31  C   UNL     1       8.680  10.542  22.321  0.00  0.00     0.014 A 
HETATM   32  C   UNL     1       6.283  10.143  21.715  0.00  0.00     0.048 C 
ENDBRANCH  25  26
ENDBRANCH  10  25
TORSDOF 6
ENDMDL
MODEL 8
REMARK VINA RESULT:    -8.207      2.247      3.269
REMARK INTER + INTRA:         -12.355
REMARK INTER:                 -11.133
REMARK INTRA:                  -1.222
REMARK UNBOUND:                -1.509
REMARK  6 active torsions:
REMARK  status: ('A' for Active; 'I' for Inactive)
REMARK    1  A    between atoms: C_7  and  C_8 
REMARK    2  A    between atoms: C_8  and  N_9 
REMARK       I    between atoms: N_9  and  C_11 
REMARK    3  A    between atoms: C_11  and  C_13 
REMARK    4  A    between atoms: C_15  and  O_16 
REMARK    5  A    between atoms: C_23  and  C_24 
REMARK    6  A    between atoms: C_24  and  C_25 
ROOT
HETATM    1  C   UNL     1       5.547  14.274  25.441  0.00  0.00     0.066 C 
HETATM    2  C   UNL     1       6.676  14.980  24.931  0.00  0.00     0.035 C 
HETATM    3  C   UNL     1       5.823  13.123  26.187  0.00  0.00     0.083 C 
HETATM    4  C   UNL     1       7.119  12.767  26.602  0.00  0.00     0.069 C 
HETATM    5  C   UNL     1       8.182  13.514  26.095  0.00  0.00     0.065 A 
HETATM    6  C   UNL     1       8.003  14.575  25.221  0.00  0.00     0.020 A 
HETATM    7  N   UNL     1       9.534  13.383  26.247  0.00  0.00    -0.277 N 
HETATM    8  H   UNL     1      10.030  12.727  26.838  0.00  0.00     0.189 HD
HETATM    9  N   UNL     1      10.247  14.163  25.435  0.00  0.00    -0.178 NA
HETATM   10  C   UNL     1       9.329  14.900  24.786  0.00  0.00     0.071 A 
ENDROOT
BRANCH   1  11
HETATM   11  C   UNL     1       4.196  14.803  24.988  0.00  0.00     0.256 C 
HETATM   12  N   UNL     1       3.313  14.171  24.089  0.00  0.00    -0.348 N 
HETATM   13  C   UNL     1       3.608  13.005  23.280  0.00  0.00     0.153 C 
HETATM   14  O   UNL     1       3.856  15.871  25.510  0.00  0.00    -0.267 OA
BRANCH  12  15
HETATM   15  C   UNL     1       2.075  14.874  23.722  0.00  0.00     0.164 C 
BRANCH  15  16
HETATM   16  C   UNL     1       0.798  14.047  23.798  0.00  0.00    -0.040 A 
HETATM   17  C   UNL     1       0.307  13.607  25.041  0.00  0.00     0.010 A 
HETATM   18  C   UNL     1      -0.735  12.672  25.113  0.00  0.00     0.024 A 
HETATM   19  C   UNL     1      -1.291  12.167  23.940  0.00  0.00     0.034 A 
HETATM   20 CL   UNL     1      -2.492  10.935  24.023  0.00  0.00    -0.084 Cl
HETATM   21  C   UNL     1      -0.853  12.630  22.702  0.00  0.00     0.024 A 
HETATM   22  C   UNL     1       0.186  13.566  22.631  0.00  0.00     0.010 A 
ENDBRANCH  15  16
ENDBRANCH  12  15
ENDBRANCH   1  11
BRANCH   3  23
HETATM   23  O   UNL     1       4.881  12.176  26.472  0.00  0.00    -0.360 OA
HETATM   24  H   UNL     1       4.048  12.662  26.618  0.00  0.00     0.217 HD
ENDBRANCH   3  23
BRANCH  10  25
HETATM   25  C   UNL     1       9.748  15.752  23.632  0.00  0.00     0.100 C 
BRANCH  25  26
HETATM   26  C   UNL     1       9.474  15.008  22.351  0.00  0.00    -0.052 A 
HETATM   27  C   UNL     1       8.293  15.228  21.627  0.00  0.00     0.007 A 
HETATM   28  C   UNL     1       8.101  14.628  20.382  0.00  0.00     0.001 A 
HETATM   29  C   UNL     1       9.076  13.778  19.858  0.00  0.00     0.007 A 
HETATM   30  C   UNL     1      10.239  13.508  20.585  0.00  0.00    -0.061 A 
HETATM   31  C   UNL     1      10.435  14.134  21.824  0.00  0.00     0.014 A 
HETATM   32  C   UNL     1      11.271  12.548  20.076  0.00  0.00     0.048 C 
ENDBRANCH  25  26
ENDBRANCH  10  25
TORSDOF 6
ENDMDL
MODEL 9
REMARK VINA RESULT:    -8.132      2.872      3.936
REMARK INTER + INTRA:         -12.256
REMARK INTER:                 -10.746
REMARK INTRA:                  -1.509
REMARK UNBOUND:                -1.509
REMARK  6 active torsions:
REMARK  status: ('A' for Active; 'I' for Inactive)
REMARK    1  A    between atoms: C_7  and  C_8 
REMARK    2  A    between atoms: C_8  and  N_9 
REMARK       I    between atoms: N_9  and  C_11 
REMARK    3  A    between atoms: C_11  and  C_13 
REMARK    4  A    between atoms: C_15  and  O_16 
REMARK    5  A    between atoms: C_23  and  C_24 
REMARK    6  A    between atoms: C_24  and  C_25 
ROOT
HETATM    1  C   UNL     1       8.751  12.068  21.579  0.00  0.00     0.066 C 
HETATM    2  C   UNL     1       9.438  11.839  22.807  0.00  0.00     0.035 C 
HETATM    3  C   UNL     1       9.472  11.808  20.408  0.00  0.00     0.083 C 
HETATM    4  C   UNL     1      10.724  11.168  20.402  0.00  0.00     0.069 C 
HETATM    5  C   UNL     1      11.334  10.942  21.635  0.00  0.00     0.065 A 
HETATM    6  C   UNL     1      10.755  11.315  22.838  0.00  0.00     0.020 A 
HETATM    7  N   UNL     1      12.554  10.415  21.958  0.00  0.00    -0.277 N 
HETATM    8  H   UNL     1      13.240  10.013  21.332  0.00  0.00     0.189 HD
HETATM    9  N   UNL     1      12.877  10.551  23.244  0.00  0.00    -0.178 NA
HETATM   10  C   UNL     1      11.792  11.111  23.806  0.00  0.00     0.071 A 
ENDROOT
BRANCH   1  11
HETATM   11  C   UNL     1       7.370  12.688  21.718  0.00  0.00     0.256 C 
HETATM   12  N   UNL     1       6.236  12.075  22.290  0.00  0.00    -0.348 N 
HETATM   13  C   UNL     1       6.118  10.681  22.670  0.00  0.00     0.153 C 
HETATM   14  O   UNL     1       7.282  13.854  21.318  0.00  0.00    -0.267 OA
BRANCH  12  15
HETATM   15  C   UNL     1       4.965  12.815  22.276  0.00  0.00     0.164 C 
BRANCH  15  16
HETATM   16  C   UNL     1       4.708  13.710  23.481  0.00  0.00    -0.040 A 
HETATM   17  C   UNL     1       4.282  13.156  24.703  0.00  0.00     0.010 A 
HETATM   18  C   UNL     1       3.837  13.977  25.748  0.00  0.00     0.024 A 
HETATM   19  C   UNL     1       3.811  15.359  25.577  0.00  0.00     0.034 A 
HETATM   20 CL   UNL     1       3.158  16.363  26.816  0.00  0.00    -0.084 Cl
HETATM   21  C   UNL     1       4.279  15.927  24.395  0.00  0.00     0.024 A 
HETATM   22  C   UNL     1       4.726  15.107  23.352  0.00  0.00     0.010 A 
ENDBRANCH  15  16
ENDBRANCH  12  15
ENDBRANCH   1  11
BRANCH   3  23
HETATM   23  O   UNL     1       9.087  12.263  19.180  0.00  0.00    -0.360 OA
HETATM   24  H   UNL     1       9.080  13.237  19.244  0.00  0.00     0.217 HD
ENDBRANCH   3  23
BRANCH  10  25
HETATM   25  C   UNL     1      11.862  11.608  25.214  0.00  0.00     0.100 C 
BRANCH  25  26
HETATM   26  C   UNL     1      11.206  12.962  25.286  0.00  0.00    -0.052 A 
HETATM   27  C   UNL     1      11.791  14.080  24.673  0.00  0.00     0.007 A 
HETATM   28  C   UNL     1      11.119  15.304  24.641  0.00  0.00     0.001 A 
HETATM   29  C   UNL     1       9.868  15.430  25.245  0.00  0.00     0.007 A 
HETATM   30  C   UNL     1       9.290  14.340  25.902  0.00  0.00    -0.061 A 
HETATM   31  C   UNL     1       9.959  13.109  25.910  0.00  0.00     0.014 A 
HETATM   32  C   UNL     1       7.978  14.468  26.616  0.00  0.00     0.048 C 
ENDBRANCH  25  26
ENDBRANCH  10  25
TORSDOF 6
ENDMDL
