MODEL 1
REMARK VINA RESULT:    -8.495      0.000      0.000
REMARK INTER + INTRA:         -13.509
REMARK INTER:                 -12.362
REMARK INTRA:                  -1.148
REMARK UNBOUND:                -1.539
REMARK  8 active torsions:
REMARK  status: ('A' for Active; 'I' for Inactive)
REMARK    1  A    between atoms: C_2  and  N_3 
REMARK       I    between atoms: N_3  and  C_4 
REMARK    2  A    between atoms: C_4  and  C_6 
REMARK    3  A    between atoms: C_9  and  C_24 
REMARK    4  A    between atoms: C_10  and  C_11 
REMARK    5  A    between atoms: C_14  and  C_15 
REMARK    6  A    between atoms: C_15  and  N_16 
REMARK    7  A    between atoms: C_28  and  O_29 
REMARK    8  A    between atoms: C_31  and  O_32 
ROOT
HETATM    1  C   UNL     1      -0.391  11.346  25.217  0.00  0.00     0.165 A 
HETATM    2  N   UNL     1      -1.387  11.386  26.114  0.00  0.00    -0.121 NA
HETATM    3  O   UNL     1      -1.187  10.325  26.951  0.00  0.00    -0.211 OA
HETATM    4  C   UNL     1      -0.051   9.642  26.617  0.00  0.00     0.128 A 
HETATM    5  C   UNL     1       0.480  10.218  25.458  0.00  0.00     0.048 A 
ENDROOT
BRANCH   5   6
HETATM    6  C   UNL     1       1.796   9.913  24.884  0.00  0.00    -0.021 C 
HETATM    7  C   UNL     1       2.703  10.920  24.520  0.00  0.00     0.013 C 
HETATM    8  C   UNL     1       3.716  10.655  23.589  0.00  0.00     0.010 C 
HETATM    9  C   UNL     1       3.909   9.359  23.099  0.00  0.00    -0.030 C 
HETATM   10  C   UNL     1       3.164   8.319  23.654  0.00  0.00     0.010 C 
HETATM   11  C   UNL     1       2.107   8.598  24.517  0.00  0.00     0.013 C 
BRANCH   9  12
HETATM   12  C   UNL     1       4.774   9.066  21.893  0.00  0.00     0.311 C 
BRANCH  12  13
HETATM   13  N   UNL     1       4.645   7.715  21.338  0.00  0.00     0.096 N 
HETATM   14  C   UNL     1       3.573   7.616  20.323  0.00  0.00     0.299 C 
HETATM   15  C   UNL     1       3.895   8.318  18.993  0.00  0.00     0.198 C 
HETATM   16  O   UNL     1       5.124   7.840  18.434  0.00  0.00    -0.388 OA
HETATM   17  C   UNL     1       6.206   8.008  19.356  0.00  0.00     0.198 C 
HETATM   18  C   UNL     1       5.920   7.308  20.698  0.00  0.00     0.299 C 
ENDBRANCH  12  13
ENDBRANCH   9  12
ENDBRANCH   5   6
BRANCH   1  19
HETATM   19  C   UNL     1      -0.261  12.447  24.255  0.00  0.00     0.273 C 
HETATM   20  N   UNL     1      -0.826  12.171  23.020  0.00  0.00    -0.356 N 
HETATM   21  H   UNL     1      -1.216  11.243  22.892  0.00  0.00     0.162 HD
HETATM   22  O   UNL     1       0.233  13.539  24.531  0.00  0.00    -0.266 OA
BRANCH  20  23
HETATM   23  C   UNL     1      -1.005  13.172  21.995  0.00  0.00     0.118 C 
HETATM   24  C   UNL     1      -2.089  12.785  21.002  0.00  0.00     0.026 C 
ENDBRANCH  20  23
ENDBRANCH   1  19
BRANCH   4  25
HETATM   25  C   UNL     1       0.314   8.627  27.625  0.00  0.00     0.036 A 
HETATM   26  C   UNL     1       0.894   9.000  28.850  0.00  0.00     0.044 A 
HETATM   27  C   UNL     1       1.203   8.052  29.830  0.00  0.00     0.068 A 
HETATM   28 CL   UNL     1       2.013   8.552  31.268  0.00  0.00    -0.081 Cl
HETATM   29  C   UNL     1       0.855   6.719  29.644  0.00  0.00     0.090 A 
HETATM   30  C   UNL     1       0.253   6.314  28.461  0.00  0.00     0.075 A 
HETATM   31  C   UNL     1       0.014   7.256  27.454  0.00  0.00     0.081 A 
BRANCH  29  32
HETATM   32  O   UNL     1       1.072   5.768  30.602  0.00  0.00    -0.359 OA
HETATM   33  H   UNL     1       0.619   4.954  30.310  0.00  0.00     0.217 HD
ENDBRANCH  29  32
BRANCH  31  34
HETATM   34  O   UNL     1      -0.529   6.815  26.275  0.00  0.00    -0.360 OA
HETATM   35  H   UNL     1      -0.929   7.560  25.798  0.00  0.00     0.217 HD
ENDBRANCH  31  34
ENDBRANCH   4  25
TORSDOF 8
ENDMDL
MODEL 2
REMARK VINA RESULT:    -8.216      1.440      1.607
REMARK INTER + INTRA:         -13.117
REMARK INTER:                 -11.670
REMARK INTRA:                  -1.447
REMARK UNBOUND:                -1.539
REMARK  8 active torsions:
REMARK  status: ('A' for Active; 'I' for Inactive)
REMARK    1  A    between atoms: C_2  and  N_3 
REMARK       I    between atoms: N_3  and  C_4 
REMARK    2  A    between atoms: C_4  and  C_6 
REMARK    3  A    between atoms: C_9  and  C_24 
REMARK    4  A    between atoms: C_10  and  C_11 
REMARK    5  A    between atoms: C_14  and  C_15 
REMARK    6  A    between atoms: C_15  and  N_16 
REMARK    7  A    between atoms: C_28  and  O_29 
REMARK    8  A    between atoms: C_31  and  O_32 
ROOT
HETATM    1  C   UNL     1      -0.510  10.177  25.652  0.00  0.00     0.165 A 
HETATM    2  N   UNL     1      -1.410  10.075  26.641  0.00  0.00    -0.121 NA
HETATM    3  O   UNL     1      -0.965   9.073  27.457  0.00  0.00    -0.211 OA
HETATM    4  C   UNL     1       0.228   8.573  27.016  0.00  0.00     0.128 A 
HETATM    5  C   UNL     1       0.547   9.205  25.810  0.00  0.00     0.048 A 
ENDROOT
BRANCH   5   6
HETATM    6  C   UNL     1       1.834   9.102  25.112  0.00  0.00    -0.021 C 
HETATM    7  C   UNL     1       2.640  10.224  24.864  0.00  0.00     0.013 C 
HETATM    8  C   UNL     1       3.597  10.194  23.839  0.00  0.00     0.010 C 
HETATM    9  C   UNL     1       3.840   9.013  23.130  0.00  0.00    -0.030 C 
HETATM   10  C   UNL     1       3.212   7.841  23.551  0.00  0.00     0.010 C 
HETATM   11  C   UNL     1       2.206   7.892  24.512  0.00  0.00     0.013 C 
BRANCH   9  12
HETATM   12  C   UNL     1       4.630   8.988  21.840  0.00  0.00     0.311 C 
BRANCH  12  13
HETATM   13  N   UNL     1       4.883   7.656  21.282  0.00  0.00     0.096 N 
HETATM   14  C   UNL     1       3.939   7.303  20.198  0.00  0.00     0.299 C 
HETATM   15  C   UNL     1       4.158   8.082  18.891  0.00  0.00     0.198 C 
HETATM   16  O   UNL     1       5.501   7.938  18.415  0.00  0.00    -0.388 OA
HETATM   17  C   UNL     1       6.443   8.361  19.405  0.00  0.00     0.198 C 
HETATM   18  C   UNL     1       6.258   7.593  20.728  0.00  0.00     0.299 C 
ENDBRANCH  12  13
ENDBRANCH   9  12
ENDBRANCH   5   6
BRANCH   1  19
HETATM   19  C   UNL     1      -0.650  11.268  24.680  0.00  0.00     0.273 C 
HETATM   20  N   UNL     1      -0.220  12.495  25.162  0.00  0.00    -0.356 N 
HETATM   21  H   UNL     1       0.092  12.525  26.127  0.00  0.00     0.162 HD
HETATM   22  O   UNL     1      -1.041  11.107  23.526  0.00  0.00    -0.266 OA
BRANCH  20  23
HETATM   23  C   UNL     1      -0.066  13.659  24.322  0.00  0.00     0.118 C 
HETATM   24  C   UNL     1       1.289  14.323  24.509  0.00  0.00     0.026 C 
ENDBRANCH  20  23
ENDBRANCH   1  19
BRANCH   4  25
HETATM   25  C   UNL     1       0.844   7.645  27.986  0.00  0.00     0.036 A 
HETATM   26  C   UNL     1       2.035   7.983  28.653  0.00  0.00     0.044 A 
HETATM   27  C   UNL     1       2.604   7.133  29.606  0.00  0.00     0.068 A 
HETATM   28 CL   UNL     1       4.120   7.546  30.314  0.00  0.00    -0.081 Cl
HETATM   29  C   UNL     1       1.946   5.966  29.979  0.00  0.00     0.090 A 
HETATM   30  C   UNL     1       0.753   5.611  29.366  0.00  0.00     0.075 A 
HETATM   31  C   UNL     1       0.226   6.430  28.360  0.00  0.00     0.081 A 
BRANCH  29  32
HETATM   32  O   UNL     1       2.426   5.138  30.956  0.00  0.00    -0.359 OA
HETATM   33  H   UNL     1       2.124   5.495  31.813  0.00  0.00     0.217 HD
ENDBRANCH  29  32
BRANCH  31  34
HETATM   34  O   UNL     1      -0.923   6.024  27.734  0.00  0.00    -0.360 OA
HETATM   35  H   UNL     1      -0.783   5.156  27.321  0.00  0.00     0.217 HD
ENDBRANCH  31  34
ENDBRANCH   4  25
TORSDOF 8
ENDMDL
MODEL 3
REMARK VINA RESULT:    -8.107      1.371      1.532
REMARK INTER + INTRA:         -12.964
REMARK INTER:                 -12.435
REMARK INTRA:                  -0.529
REMARK UNBOUND:                -1.539
REMARK  8 active torsions:
REMARK  status: ('A' for Active; 'I' for Inactive)
REMARK    1  A    between atoms: C_2  and  N_3 
REMARK       I    between atoms: N_3  and  C_4 
REMARK    2  A    between atoms: C_4  and  C_6 
REMARK    3  A    between atoms: C_9  and  C_24 
REMARK    4  A    between atoms: C_10  and  C_11 
REMARK    5  A    between atoms: C_14  and  C_15 
REMARK    6  A    between atoms: C_15  and  N_16 
REMARK    7  A    between atoms: C_28  and  O_29 
REMARK    8  A    between atoms: C_31  and  O_32 
ROOT
HETATM    1  C   UNL     1      -0.578  11.107  25.390  0.00  0.00     0.165 A 
HETATM    2  N   UNL     1      -1.458  11.196  26.397  0.00  0.00    -0.121 NA
HETATM    3  O   UNL     1      -0.975  10.397  27.395  0.00  0.00    -0.211 OA
HETATM    4  C   UNL     1       0.223   9.840  27.042  0.00  0.00     0.128 A 
HETATM    5  C   UNL     1       0.507  10.212  25.724  0.00  0.00     0.048 A 
ENDROOT
BRANCH   5   6
HETATM    6  C   UNL     1       1.784   9.992  25.036  0.00  0.00    -0.021 C 
HETATM    7  C   UNL     1       2.600  11.055  24.620  0.00  0.00     0.013 C 
HETATM    8  C   UNL     1       3.544  10.864  23.602  0.00  0.00     0.010 C 
HETATM    9  C   UNL     1       3.765   9.590  23.068  0.00  0.00    -0.030 C 
HETATM   10  C   UNL     1       3.128   8.500  23.660  0.00  0.00     0.010 C 
HETATM   11  C   UNL     1       2.134   8.703  24.614  0.00  0.00     0.013 C 
BRANCH   9  12
HETATM   12  C   UNL     1       4.539   9.369  21.787  0.00  0.00     0.311 C 
BRANCH  12  13
HETATM   13  N   UNL     1       4.629   7.976  21.338  0.00  0.00     0.096 N 
HETATM   14  C   UNL     1       3.646   7.654  20.280  0.00  0.00     0.299 C 
HETATM   15  C   UNL     1       3.953   8.295  18.916  0.00  0.00     0.198 C 
HETATM   16  O   UNL     1       5.268   7.953  18.463  0.00  0.00    -0.388 OA
HETATM   17  C   UNL     1       6.257   8.337  19.423  0.00  0.00     0.198 C 
HETATM   18  C   UNL     1       5.985   7.704  20.801  0.00  0.00     0.299 C 
ENDBRANCH  12  13
ENDBRANCH   9  12
ENDBRANCH   5   6
BRANCH   1  19
HETATM   19  C   UNL     1      -0.761  11.967  24.214  0.00  0.00     0.273 C 
HETATM   20  N   UNL     1      -1.869  11.632  23.452  0.00  0.00    -0.356 N 
HETATM   21  H   UNL     1      -2.399  10.819  23.746  0.00  0.00     0.162 HD
HETATM   22  O   UNL     1      -0.048  12.937  23.962  0.00  0.00    -0.266 OA
BRANCH  20  23
HETATM   23  C   UNL     1      -2.364  12.461  22.379  0.00  0.00     0.118 C 
HETATM   24  C   UNL     1      -1.436  12.452  21.175  0.00  0.00     0.026 C 
ENDBRANCH  20  23
ENDBRANCH   1  19
BRANCH   4  25
HETATM   25  C   UNL     1       0.878   9.150  28.171  0.00  0.00     0.036 A 
HETATM   26  C   UNL     1       2.154   8.576  28.027  0.00  0.00     0.044 A 
HETATM   27  C   UNL     1       2.802   7.959  29.100  0.00  0.00     0.068 A 
HETATM   28 CL   UNL     1       4.318   7.178  28.841  0.00  0.00    -0.081 Cl
HETATM   29  C   UNL     1       2.229   7.981  30.367  0.00  0.00     0.090 A 
HETATM   30  C   UNL     1       0.984   8.563  30.558  0.00  0.00     0.075 A 
HETATM   31  C   UNL     1       0.307   9.114  29.464  0.00  0.00     0.081 A 
BRANCH  29  32
HETATM   32  O   UNL     1       2.855   7.454  31.461  0.00  0.00    -0.359 OA
HETATM   33  H   UNL     1       2.987   6.501  31.290  0.00  0.00     0.217 HD
ENDBRANCH  29  32
BRANCH  31  34
HETATM   34  O   UNL     1      -0.945   9.630  29.674  0.00  0.00    -0.360 OA
HETATM   35  H   UNL     1      -0.957  10.139  30.502  0.00  0.00     0.217 HD
ENDBRANCH  31  34
ENDBRANCH   4  25
TORSDOF 8
ENDMDL
MODEL 4
REMARK VINA RESULT:    -7.949      1.532      1.825
REMARK INTER + INTRA:         -12.740
REMARK INTER:                 -11.540
REMARK INTRA:                  -1.201
REMARK UNBOUND:                -1.539
REMARK  8 active torsions:
REMARK  status: ('A' for Active; 'I' for Inactive)
REMARK    1  A    between atoms: C_2  and  N_3 
REMARK       I    between atoms: N_3  and  C_4 
REMARK    2  A    between atoms: C_4  and  C_6 
REMARK    3  A    between atoms: C_9  and  C_24 
REMARK    4  A    between atoms: C_10  and  C_11 
REMARK    5  A    between atoms: C_14  and  C_15 
REMARK    6  A    between atoms: C_15  and  N_16 
REMARK    7  A    between atoms: C_28  and  O_29 
REMARK    8  A    between atoms: C_31  and  O_32 
ROOT
HETATM    1  C   UNL     1      -0.368  10.601  25.694  0.00  0.00     0.165 A 
HETATM    2  N   UNL     1      -1.298  10.476  26.650  0.00  0.00    -0.121 NA
HETATM    3  O   UNL     1      -0.998   9.327  27.325  0.00  0.00    -0.211 OA
HETATM    4  C   UNL     1       0.138   8.749  26.830  0.00  0.00     0.128 A 
HETATM    5  C   UNL     1       0.562   9.495  25.726  0.00  0.00     0.048 A 
ENDROOT
BRANCH   5   6
HETATM    6  C   UNL     1       1.846   9.332  25.033  0.00  0.00    -0.021 C 
HETATM    7  C   UNL     1       2.695  10.418  24.770  0.00  0.00     0.013 C 
HETATM    8  C   UNL     1       3.652  10.335  23.749  0.00  0.00     0.010 C 
HETATM    9  C   UNL     1       3.851   9.135  23.058  0.00  0.00    -0.030 C 
HETATM   10  C   UNL     1       3.176   7.995  23.494  0.00  0.00     0.010 C 
HETATM   11  C   UNL     1       2.171   8.100  24.452  0.00  0.00     0.013 C 
BRANCH   9  12
HETATM   12  C   UNL     1       4.641   9.060  21.771  0.00  0.00     0.311 C 
BRANCH  12  13
HETATM   13  N   UNL     1       4.883   7.708  21.257  0.00  0.00     0.096 N 
HETATM   14  C   UNL     1       3.945   7.332  20.177  0.00  0.00     0.299 C 
HETATM   15  C   UNL     1       4.185   8.066  18.847  0.00  0.00     0.198 C 
HETATM   16  O   UNL     1       5.531   7.891  18.389  0.00  0.00    -0.388 OA
HETATM   17  C   UNL     1       6.469   8.334  19.374  0.00  0.00     0.198 C 
HETATM   18  C   UNL     1       6.262   7.611  20.719  0.00  0.00     0.299 C 
ENDBRANCH  12  13
ENDBRANCH   9  12
ENDBRANCH   5   6
BRANCH   1  19
HETATM   19  C   UNL     1      -0.351  11.823  24.879  0.00  0.00     0.273 C 
HETATM   20  N   UNL     1      -1.091  11.719  23.712  0.00  0.00    -0.356 N 
HETATM   21  H   UNL     1      -1.518  10.819  23.519  0.00  0.00     0.162 HD
HETATM   22  O   UNL     1       0.203  12.865  25.225  0.00  0.00    -0.266 OA
BRANCH  20  23
HETATM   23  C   UNL     1      -1.391  12.851  22.868  0.00  0.00     0.118 C 
HETATM   24  C   UNL     1      -2.030  12.430  21.554  0.00  0.00     0.026 C 
ENDBRANCH  20  23
ENDBRANCH   1  19
BRANCH   4  25
HETATM   25  C   UNL     1       0.614   7.631  27.670  0.00  0.00     0.036 A 
HETATM   26  C   UNL     1       0.428   6.296  27.270  0.00  0.00     0.044 A 
HETATM   27  C   UNL     1       0.912   5.231  28.034  0.00  0.00     0.068 A 
HETATM   28 CL   UNL     1       0.562   3.613  27.553  0.00  0.00    -0.081 Cl
HETATM   29  C   UNL     1       1.674   5.479  29.171  0.00  0.00     0.090 A 
HETATM   30  C   UNL     1       1.907   6.783  29.583  0.00  0.00     0.075 A 
HETATM   31  C   UNL     1       1.356   7.844  28.854  0.00  0.00     0.081 A 
BRANCH  29  32
HETATM   32  O   UNL     1       2.229   4.473  29.911  0.00  0.00    -0.359 OA
HETATM   33  H   UNL     1       2.394   4.828  30.806  0.00  0.00     0.217 HD
ENDBRANCH  29  32
BRANCH  31  34
HETATM   34  O   UNL     1       1.555   9.118  29.319  0.00  0.00    -0.360 OA
HETATM   35  H   UNL     1       2.479   9.225  29.598  0.00  0.00     0.217 HD
ENDBRANCH  31  34
ENDBRANCH   4  25
TORSDOF 8
ENDMDL
MODEL 5
REMARK VINA RESULT:    -7.844      2.545      5.495
REMARK INTER + INTRA:         -12.593
REMARK INTER:                 -10.861
REMARK INTRA:                  -1.731
REMARK UNBOUND:                -1.539
REMARK  8 active torsions:
REMARK  status: ('A' for Active; 'I' for Inactive)
REMARK    1  A    between atoms: C_2  and  N_3 
REMARK       I    between atoms: N_3  and  C_4 
REMARK    2  A    between atoms: C_4  and  C_6 
REMARK    3  A    between atoms: C_9  and  C_24 
REMARK    4  A    between atoms: C_10  and  C_11 
REMARK    5  A    between atoms: C_14  and  C_15 
REMARK    6  A    between atoms: C_15  and  N_16 
REMARK    7  A    between atoms: C_28  and  O_29 
REMARK    8  A    between atoms: C_31  and  O_32 
ROOT
HETATM    1  C   UNL     1       0.707   8.653  27.447  0.00  0.00     0.165 A 
HETATM    2  N   UNL     1      -0.524   8.981  27.867  0.00  0.00    -0.121 NA
HETATM    3  O   UNL     1      -0.963   9.962  27.025  0.00  0.00    -0.211 OA
HETATM    4  C   UNL     1      -0.039  10.226  26.052  0.00  0.00     0.128 A 
HETATM    5  C   UNL     1       1.097   9.452  26.308  0.00  0.00     0.048 A 
ENDROOT
BRANCH   5   6
HETATM    6  C   UNL     1       2.236   9.288  25.397  0.00  0.00    -0.021 C 
HETATM    7  C   UNL     1       3.023  10.374  24.982  0.00  0.00     0.013 C 
HETATM    8  C   UNL     1       3.781  10.288  23.806  0.00  0.00     0.010 C 
HETATM    9  C   UNL     1       3.855   9.086  23.095  0.00  0.00    -0.030 C 
HETATM   10  C   UNL     1       3.272   7.947  23.650  0.00  0.00     0.010 C 
HETATM   11  C   UNL     1       2.455   8.054  24.772  0.00  0.00     0.013 C 
BRANCH   9  12
HETATM   12  C   UNL     1       4.402   9.007  21.688  0.00  0.00     0.311 C 
BRANCH  12  13
HETATM   13  N   UNL     1       4.709   7.656  21.206  0.00  0.00     0.096 N 
HETATM   14  C   UNL     1       3.832   7.236  20.091  0.00  0.00     0.299 C 
HETATM   15  C   UNL     1       4.107   7.959  18.762  0.00  0.00     0.198 C 
HETATM   16  O   UNL     1       5.477   7.821  18.366  0.00  0.00    -0.388 OA
HETATM   17  C   UNL     1       6.356   8.307  19.385  0.00  0.00     0.198 C 
HETATM   18  C   UNL     1       6.113   7.596  20.730  0.00  0.00     0.299 C 
ENDBRANCH  12  13
ENDBRANCH   9  12
ENDBRANCH   5   6
BRANCH   1  19
HETATM   19  C   UNL     1       1.392   7.521  28.083  0.00  0.00     0.273 C 
HETATM   20  N   UNL     1       0.979   6.287  27.605  0.00  0.00    -0.356 N 
HETATM   21  H   UNL     1       0.231   6.287  26.920  0.00  0.00     0.162 HD
HETATM   22  O   UNL     1       2.296   7.647  28.906  0.00  0.00    -0.266 OA
BRANCH  20  23
HETATM   23  C   UNL     1       1.656   5.053  27.927  0.00  0.00     0.118 C 
HETATM   24  C   UNL     1       2.719   4.700  26.899  0.00  0.00     0.026 C 
ENDBRANCH  20  23
ENDBRANCH   1  19
BRANCH   4  25
HETATM   25  C   UNL     1      -0.566  11.120  25.002  0.00  0.00     0.036 A 
HETATM   26  C   UNL     1       0.090  12.321  24.678  0.00  0.00     0.044 A 
HETATM   27  C   UNL     1      -0.374  13.154  23.656  0.00  0.00     0.068 A 
HETATM   28 CL   UNL     1       0.405  14.666  23.374  0.00  0.00    -0.081 Cl
HETATM   29  C   UNL     1      -1.453  12.760  22.872  0.00  0.00     0.090 A 
HETATM   30  C   UNL     1      -2.110  11.567  23.140  0.00  0.00     0.075 A 
HETATM   31  C   UNL     1      -1.686  10.774  24.212  0.00  0.00     0.081 A 
BRANCH  29  32
HETATM   32  O   UNL     1      -1.899  13.505  21.817  0.00  0.00    -0.359 OA
HETATM   33  H   UNL     1      -2.632  14.063  22.144  0.00  0.00     0.217 HD
ENDBRANCH  29  32
BRANCH  31  34
HETATM   34  O   UNL     1      -2.391   9.631  24.486  0.00  0.00    -0.360 OA
HETATM   35  H   UNL     1      -1.868   8.853  24.233  0.00  0.00     0.217 HD
ENDBRANCH  31  34
ENDBRANCH   4  25
TORSDOF 8
ENDMDL
MODEL 6
REMARK VINA RESULT:    -7.703      3.284      5.797
REMARK INTER + INTRA:         -12.393
REMARK INTER:                 -10.910
REMARK INTRA:                  -1.484
REMARK UNBOUND:                -1.539
REMARK  8 active torsions:
REMARK  status: ('A' for Active; 'I' for Inactive)
REMARK    1  A    between atoms: C_2  and  N_3 
REMARK       I    between atoms: N_3  and  C_4 
REMARK    2  A    between atoms: C_4  and  C_6 
REMARK    3  A    between atoms: C_9  and  C_24 
REMARK    4  A    between atoms: C_10  and  C_11 
REMARK    5  A    between atoms: C_14  and  C_15 
REMARK    6  A    between atoms: C_15  and  N_16 
REMARK    7  A    between atoms: C_28  and  O_29 
REMARK    8  A    between atoms: C_31  and  O_32 
ROOT
HETATM    1  C   UNL     1       0.854   4.287  26.823  0.00  0.00     0.165 A 
HETATM    2  N   UNL     1      -0.355   4.316  27.401  0.00  0.00    -0.121 NA
HETATM    3  O   UNL     1      -0.772   5.615  27.343  0.00  0.00    -0.211 OA
HETATM    4  C   UNL     1       0.143   6.397  26.695  0.00  0.00     0.128 A 
HETATM    5  C   UNL     1       1.254   5.605  26.387  0.00  0.00     0.048 A 
ENDROOT
BRANCH   5   6
HETATM    6  C   UNL     1       2.368   6.006  25.520  0.00  0.00    -0.021 C 
HETATM    7  C   UNL     1       3.002   7.251  25.647  0.00  0.00     0.013 C 
HETATM    8  C   UNL     1       3.720   7.792  24.571  0.00  0.00     0.010 C 
HETATM    9  C   UNL     1       3.911   7.049  23.401  0.00  0.00    -0.030 C 
HETATM   10  C   UNL     1       3.491   5.720  23.379  0.00  0.00     0.010 C 
HETATM   11  C   UNL     1       2.710   5.215  24.416  0.00  0.00     0.013 C 
BRANCH   9  12
HETATM   12  C   UNL     1       4.410   7.672  22.116  0.00  0.00     0.311 C 
BRANCH  12  13
HETATM   13  N   UNL     1       4.728   6.728  21.040  0.00  0.00     0.096 N 
HETATM   14  C   UNL     1       3.833   6.875  19.870  0.00  0.00     0.299 C 
HETATM   15  C   UNL     1       4.069   8.155  19.051  0.00  0.00     0.198 C 
HETATM   16  O   UNL     1       5.432   8.257  18.623  0.00  0.00    -0.388 OA
HETATM   17  C   UNL     1       6.324   8.215  19.739  0.00  0.00     0.198 C 
HETATM   18  C   UNL     1       6.121   6.938  20.578  0.00  0.00     0.299 C 
ENDBRANCH  12  13
ENDBRANCH   9  12
ENDBRANCH   5   6
BRANCH   1  19
HETATM   19  C   UNL     1       1.508   2.988  26.616  0.00  0.00     0.273 C 
HETATM   20  N   UNL     1       0.941   2.241  25.595  0.00  0.00    -0.356 N 
HETATM   21  H   UNL     1       0.124   2.633  25.139  0.00  0.00     0.162 HD
HETATM   22  O   UNL     1       2.505   2.621  27.235  0.00  0.00    -0.266 OA
BRANCH  20  23
HETATM   23  C   UNL     1       1.543   1.036  25.076  0.00  0.00     0.118 C 
HETATM   24  C   UNL     1       2.412   1.309  23.859  0.00  0.00     0.026 C 
ENDBRANCH  20  23
ENDBRANCH   1  19
BRANCH   4  25
HETATM   25  C   UNL     1      -0.369   7.755  26.421  0.00  0.00     0.036 A 
HETATM   26  C   UNL     1      -0.496   8.702  27.453  0.00  0.00     0.044 A 
HETATM   27  C   UNL     1      -0.937  10.004  27.199  0.00  0.00     0.068 A 
HETATM   28 CL   UNL     1      -1.178  11.090  28.516  0.00  0.00    -0.081 Cl
HETATM   29  C   UNL     1      -1.175  10.416  25.892  0.00  0.00     0.090 A 
HETATM   30  C   UNL     1      -1.032   9.521  24.842  0.00  0.00     0.075 A 
HETATM   31  C   UNL     1      -0.661   8.198  25.111  0.00  0.00     0.081 A 
BRANCH  29  32
HETATM   32  O   UNL     1      -1.539  11.697  25.586  0.00  0.00    -0.359 OA
HETATM   33  H   UNL     1      -0.877  12.292  25.989  0.00  0.00     0.217 HD
ENDBRANCH  29  32
BRANCH  31  34
HETATM   34  O   UNL     1      -0.584   7.323  24.059  0.00  0.00    -0.360 OA
HETATM   35  H   UNL     1      -0.897   7.756  23.248  0.00  0.00     0.217 HD
ENDBRANCH  31  34
ENDBRANCH   4  25
TORSDOF 8
ENDMDL
MODEL 7
REMARK VINA RESULT:    -7.469      1.991      2.719
REMARK INTER + INTRA:         -12.064
REMARK INTER:                 -10.785
REMARK INTRA:                  -1.279
REMARK UNBOUND:                -1.539
REMARK  8 active torsions:
REMARK  status: ('A' for Active; 'I' for Inactive)
REMARK    1  A    between atoms: C_2  and  N_3 
REMARK       I    between atoms: N_3  and  C_4 
REMARK    2  A    between atoms: C_4  and  C_6 
REMARK    3  A    between atoms: C_9  and  C_24 
REMARK    4  A    between atoms: C_10  and  C_11 
REMARK    5  A    between atoms: C_14  and  C_15 
REMARK    6  A    between atoms: C_15  and  N_16 
REMARK    7  A    between atoms: C_28  and  O_29 
REMARK    8  A    between atoms: C_31  and  O_32 
ROOT
HETATM    1  C   UNL     1      -1.157  10.527  26.428  0.00  0.00     0.165 A 
HETATM    2  N   UNL     1      -1.759  10.733  27.607  0.00  0.00    -0.121 NA
HETATM    3  O   UNL     1      -1.379   9.697  28.413  0.00  0.00    -0.211 OA
HETATM    4  C   UNL     1      -0.509   8.864  27.767  0.00  0.00     0.128 A 
HETATM    5  C   UNL     1      -0.373   9.313  26.449  0.00  0.00     0.048 A 
ENDROOT
BRANCH   5   6
HETATM    6  C   UNL     1       0.616   8.822  25.483  0.00  0.00    -0.021 C 
HETATM    7  C   UNL     1       0.514   7.554  24.890  0.00  0.00     0.013 C 
HETATM    8  C   UNL     1       1.649   6.933  24.351  0.00  0.00     0.010 C 
HETATM    9  C   UNL     1       2.870   7.613  24.292  0.00  0.00    -0.030 C 
HETATM   10  C   UNL     1       2.901   8.959  24.655  0.00  0.00     0.010 C 
HETATM   11  C   UNL     1       1.795   9.546  25.264  0.00  0.00     0.013 C 
BRANCH   9  12
HETATM   12  C   UNL     1       4.178   6.911  24.002  0.00  0.00     0.311 C 
BRANCH  12  13
HETATM   13  N   UNL     1       4.901   7.389  22.820  0.00  0.00     0.096 N 
HETATM   14  C   UNL     1       5.955   6.449  22.377  0.00  0.00     0.299 C 
HETATM   15  C   UNL     1       5.421   5.155  21.741  0.00  0.00     0.198 C 
HETATM   16  O   UNL     1       4.545   5.436  20.643  0.00  0.00    -0.388 OA
HETATM   17  C   UNL     1       3.457   6.268  21.057  0.00  0.00     0.198 C 
HETATM   18  C   UNL     1       3.957   7.580  21.692  0.00  0.00     0.299 C 
ENDBRANCH  12  13
ENDBRANCH   9  12
ENDBRANCH   5   6
BRANCH   1  19
HETATM   19  C   UNL     1      -1.272  11.556  25.387  0.00  0.00     0.273 C 
HETATM   20  N   UNL     1      -2.342  11.358  24.529  0.00  0.00    -0.356 N 
HETATM   21  H   UNL     1      -2.894  10.518  24.672  0.00  0.00     0.162 HD
HETATM   22  O   UNL     1      -0.538  12.541  25.318  0.00  0.00    -0.266 OA
BRANCH  20  23
HETATM   23  C   UNL     1      -2.775  12.346  23.570  0.00  0.00     0.118 C 
HETATM   24  C   UNL     1      -2.025  12.228  22.252  0.00  0.00     0.026 C 
ENDBRANCH  20  23
ENDBRANCH   1  19
BRANCH   4  25
HETATM   25  C   UNL     1       0.089   7.862  28.671  0.00  0.00     0.036 A 
HETATM   26  C   UNL     1       0.436   6.582  28.204  0.00  0.00     0.044 A 
HETATM   27  C   UNL     1       1.043   5.640  29.039  0.00  0.00     0.068 A 
HETATM   28 CL   UNL     1       1.348   4.050  28.445  0.00  0.00    -0.081 Cl
HETATM   29  C   UNL     1       1.402   5.988  30.337  0.00  0.00     0.090 A 
HETATM   30  C   UNL     1       1.105   7.252  30.827  0.00  0.00     0.075 A 
HETATM   31  C   UNL     1       0.430   8.166  30.009  0.00  0.00     0.081 A 
BRANCH  29  32
HETATM   32  O   UNL     1       2.061   5.126  31.168  0.00  0.00    -0.359 OA
HETATM   33  H   UNL     1       1.895   5.422  32.084  0.00  0.00     0.217 HD
ENDBRANCH  29  32
BRANCH  31  34
HETATM   34  O   UNL     1       0.100   9.385  30.540  0.00  0.00    -0.360 OA
HETATM   35  H   UNL     1       0.257   9.379  31.499  0.00  0.00     0.217 HD
ENDBRANCH  31  34
ENDBRANCH   4  25
TORSDOF 8
ENDMDL
MODEL 8
REMARK VINA RESULT:    -7.402      1.900      2.568
REMARK INTER + INTRA:         -11.970
REMARK INTER:                 -10.955
REMARK INTRA:                  -1.015
REMARK UNBOUND:                -1.539
REMARK  8 active torsions:
REMARK  status: ('A' for Active; 'I' for Inactive)
REMARK    1  A    between atoms: C_2  and  N_3 
REMARK       I    between atoms: N_3  and  C_4 
REMARK    2  A    between atoms: C_4  and  C_6 
REMARK    3  A    between atoms: C_9  and  C_24 
REMARK    4  A    between atoms: C_10  and  C_11 
REMARK    5  A    between atoms: C_14  and  C_15 
REMARK    6  A    between atoms: C_15  and  N_16 
REMARK    7  A    between atoms: C_28  and  O_29 
REMARK    8  A    between atoms: C_31  and  O_32 
ROOT
HETATM    1  C   UNL     1      -0.533  10.027  26.420  0.00  0.00     0.165 A 
HETATM    2  N   UNL     1      -1.181  10.490  27.499  0.00  0.00    -0.121 NA
HETATM    3  O   UNL     1      -0.635   9.849  28.574  0.00  0.00    -0.211 OA
HETATM    4  C   UNL     1       0.381   9.020  28.188  0.00  0.00     0.128 A 
HETATM    5  C   UNL     1       0.456   9.042  26.792  0.00  0.00     0.048 A 
ENDROOT
BRANCH   5   6
HETATM    6  C   UNL     1       1.533   8.449  25.990  0.00  0.00    -0.021 C 
HETATM    7  C   UNL     1       2.511   9.233  25.359  0.00  0.00     0.013 C 
HETATM    8  C   UNL     1       3.228   8.723  24.266  0.00  0.00     0.010 C 
HETATM    9  C   UNL     1       3.061   7.394  23.865  0.00  0.00    -0.030 C 
HETATM   10  C   UNL     1       2.273   6.554  24.653  0.00  0.00     0.010 C 
HETATM   11  C   UNL     1       1.503   7.082  25.686  0.00  0.00     0.013 C 
BRANCH   9  12
HETATM   12  C   UNL     1       3.569   6.875  22.539  0.00  0.00     0.311 C 
BRANCH  12  13
HETATM   13  N   UNL     1       4.602   7.693  21.896  0.00  0.00     0.096 N 
HETATM   14  C   UNL     1       5.869   6.957  21.694  0.00  0.00     0.299 C 
HETATM   15  C   UNL     1       5.804   5.874  20.603  0.00  0.00     0.198 C 
HETATM   16  O   UNL     1       5.366   6.419  19.353  0.00  0.00    -0.388 OA
HETATM   17  C   UNL     1       4.094   7.059  19.490  0.00  0.00     0.198 C 
HETATM   18  C   UNL     1       4.126   8.157  20.570  0.00  0.00     0.299 C 
ENDBRANCH  12  13
ENDBRANCH   9  12
ENDBRANCH   5   6
BRANCH   1  19
HETATM   19  C   UNL     1      -0.814  10.634  25.113  0.00  0.00     0.273 C 
HETATM   20  N   UNL     1      -0.974  12.010  25.166  0.00  0.00    -0.356 N 
HETATM   21  H   UNL     1      -0.932  12.441  26.083  0.00  0.00     0.162 HD
HETATM   22  O   UNL     1      -0.834  10.002  24.059  0.00  0.00    -0.266 OA
BRANCH  20  23
HETATM   23  C   UNL     1      -1.046  12.838  23.986  0.00  0.00     0.118 C 
HETATM   24  C   UNL     1       0.119  13.811  23.899  0.00  0.00     0.026 C 
ENDBRANCH  20  23
ENDBRANCH   1  19
BRANCH   4  25
HETATM   25  C   UNL     1       1.136   8.480  29.337  0.00  0.00     0.036 A 
HETATM   26  C   UNL     1       0.491   7.734  30.340  0.00  0.00     0.044 A 
HETATM   27  C   UNL     1       1.202   7.181  31.409  0.00  0.00     0.068 A 
HETATM   28 CL   UNL     1       0.347   6.369  32.667  0.00  0.00    -0.081 Cl
HETATM   29  C   UNL     1       2.588   7.283  31.451  0.00  0.00     0.090 A 
HETATM   30  C   UNL     1       3.265   7.985  30.464  0.00  0.00     0.075 A 
HETATM   31  C   UNL     1       2.541   8.600  29.436  0.00  0.00     0.081 A 
BRANCH  29  32
HETATM   32  O   UNL     1       3.333   6.699  32.437  0.00  0.00    -0.359 OA
HETATM   33  H   UNL     1       4.169   6.400  32.031  0.00  0.00     0.217 HD
ENDBRANCH  29  32
BRANCH  31  34
HETATM   34  O   UNL     1       3.233   9.334  28.509  0.00  0.00    -0.360 OA
HETATM   35  H   UNL     1       3.745   8.740  27.936  0.00  0.00     0.217 HD
ENDBRANCH  31  34
ENDBRANCH   4  25
TORSDOF 8
ENDMDL
MODEL 9
REMARK VINA RESULT:    -7.259      3.294      5.369
REMARK INTER + INTRA:         -11.769
REMARK INTER:                 -10.230
REMARK INTRA:                  -1.539
REMARK UNBOUND:                -1.539
REMARK  8 active torsions:
REMARK  status: ('A' for Active; 'I' for Inactive)
REMARK    1  A    between atoms: C_2  and  N_3 
REMARK       I    between atoms: N_3  and  C_4 
REMARK    2  A    between atoms: C_4  and  C_6 
REMARK    3  A    between atoms: C_9  and  C_24 
REMARK    4  A    between atoms: C_10  and  C_11 
REMARK    5  A    between atoms: C_14  and  C_15 
REMARK    6  A    between atoms: C_15  and  N_16 
REMARK    7  A    between atoms: C_28  and  O_29 
REMARK    8  A    between atoms: C_31  and  O_32 
ROOT
HETATM    1  C   UNL     1       1.908   4.720  26.629  0.00  0.00     0.165 A 
HETATM    2  N   UNL     1       0.885   4.371  27.423  0.00  0.00    -0.121 NA
HETATM    3  O   UNL     1       0.344   5.538  27.881  0.00  0.00    -0.211 OA
HETATM    4  C   UNL     1       0.988   6.621  27.350  0.00  0.00     0.128 A 
HETATM    5  C   UNL     1       2.057   6.157  26.576  0.00  0.00     0.048 A 
ENDROOT
BRANCH   5   6
HETATM    6  C   UNL     1       2.875   6.979  25.677  0.00  0.00    -0.021 C 
HETATM    7  C   UNL     1       2.307   7.912  24.795  0.00  0.00     0.013 C 
HETATM    8  C   UNL     1       3.019   8.339  23.665  0.00  0.00     0.010 C 
HETATM    9  C   UNL     1       4.343   7.933  23.464  0.00  0.00    -0.030 C 
HETATM   10  C   UNL     1       4.978   7.209  24.473  0.00  0.00     0.010 C 
HETATM   11  C   UNL     1       4.246   6.720  25.552  0.00  0.00     0.013 C 
BRANCH   9  12
HETATM   12  C   UNL     1       5.056   8.112  22.143  0.00  0.00     0.311 C 
BRANCH  12  13
HETATM   13  N   UNL     1       4.964   6.978  21.218  0.00  0.00     0.096 N 
HETATM   14  C   UNL     1       3.807   7.081  20.302  0.00  0.00     0.299 C 
HETATM   15  C   UNL     1       3.948   8.169  19.225  0.00  0.00     0.198 C 
HETATM   16  O   UNL     1       5.145   7.994  18.459  0.00  0.00    -0.388 OA
HETATM   17  C   UNL     1       6.298   7.985  19.306  0.00  0.00     0.198 C 
HETATM   18  C   UNL     1       6.194   6.898  20.393  0.00  0.00     0.299 C 
ENDBRANCH  12  13
ENDBRANCH   9  12
ENDBRANCH   5   6
BRANCH   1  19
HETATM   19  C   UNL     1       2.610   3.672  25.879  0.00  0.00     0.273 C 
HETATM   20  N   UNL     1       2.394   3.733  24.511  0.00  0.00    -0.356 N 
HETATM   21  H   UNL     1       1.751   4.445  24.180  0.00  0.00     0.162 HD
HETATM   22  O   UNL     1       3.374   2.859  26.396  0.00  0.00    -0.266 OA
BRANCH  20  23
HETATM   23  C   UNL     1       3.142   2.944  23.561  0.00  0.00     0.118 C 
HETATM   24  C   UNL     1       4.072   3.798  22.716  0.00  0.00     0.026 C 
ENDBRANCH  20  23
ENDBRANCH   1  19
BRANCH   4  25
HETATM   25  C   UNL     1       0.297   7.891  27.648  0.00  0.00     0.036 A 
HETATM   26  C   UNL     1      -0.318   8.637  26.627  0.00  0.00     0.044 A 
HETATM   27  C   UNL     1      -1.013   9.818  26.902  0.00  0.00     0.068 A 
HETATM   28 CL   UNL     1      -1.655  10.749  25.600  0.00  0.00    -0.081 Cl
HETATM   29  C   UNL     1      -1.188  10.232  28.218  0.00  0.00     0.090 A 
HETATM   30  C   UNL     1      -0.622   9.508  29.258  0.00  0.00     0.075 A 
HETATM   31  C   UNL     1       0.135   8.367  28.969  0.00  0.00     0.081 A 
BRANCH  29  32
HETATM   32  O   UNL     1      -1.918  11.340  28.543  0.00  0.00    -0.359 OA
HETATM   33  H   UNL     1      -1.559  12.088  28.027  0.00  0.00     0.217 HD
ENDBRANCH  29  32
BRANCH  31  34
HETATM   34  O   UNL     1       0.729   7.706  30.013  0.00  0.00    -0.360 OA
HETATM   35  H   UNL     1       0.592   8.201  30.836  0.00  0.00     0.217 HD
ENDBRANCH  31  34
ENDBRANCH   4  25
TORSDOF 8
ENDMDL
