REMARK  8 active torsions:
REMARK  status: ('A' for Active; 'I' for Inactive)
REMARK    1  A    between atoms: C_2  and  N_3 
REMARK       I    between atoms: N_3  and  C_4 
REMARK    2  A    between atoms: C_4  and  C_6 
REMARK    3  A    between atoms: C_9  and  C_24 
REMARK    4  A    between atoms: C_10  and  C_11 
REMARK    5  A    between atoms: C_14  and  C_15 
REMARK    6  A    between atoms: C_15  and  N_16 
REMARK    7  A    between atoms: C_28  and  O_29 
REMARK    8  A    between atoms: C_31  and  O_32 
ROOT
HETATM    1  C   UNL     1       5.069   2.278  -2.154  0.00  0.00     0.165 A 
HETATM    2  N   UNL     1       4.530   3.482  -2.393  0.00  0.00    -0.121 NA
HETATM    3  O   UNL     1       4.936   3.837  -3.648  0.00  0.00    -0.211 OA
HETATM    4  C   UNL     1       5.690   2.850  -4.219  0.00  0.00     0.128 A 
HETATM    5  C   UNL     1       5.867   1.834  -3.274  0.00  0.00     0.048 A 
ENDROOT
BRANCH   5   6
HETATM    6  C   UNL     1       6.443   0.512  -3.546  0.00  0.00    -0.021 C 
HETATM    7  C   UNL     1       7.503   0.331  -4.448  0.00  0.00     0.013 C 
HETATM    8  C   UNL     1       7.730  -0.925  -5.028  0.00  0.00     0.010 C 
HETATM    9  C   UNL     1       6.980  -2.037  -4.630  0.00  0.00    -0.030 C 
HETATM   10  C   UNL     1       6.101  -1.898  -3.556  0.00  0.00     0.010 C 
HETATM   11  C   UNL     1       5.821  -0.636  -3.039  0.00  0.00     0.013 C 
BRANCH   9  12
HETATM   12  C   UNL     1       6.970  -3.332  -5.411  0.00  0.00     0.311 C 
BRANCH  12  13
HETATM   13  N   UNL     1       8.288  -3.913  -5.685  0.00  0.00     0.096 N 
HETATM   14  C   UNL     1       9.010  -4.295  -4.451  0.00  0.00     0.299 C 
HETATM   15  C   UNL     1       8.427  -5.523  -3.732  0.00  0.00     0.198 C 
HETATM   16  O   UNL     1       8.352  -6.654  -4.608  0.00  0.00    -0.388 OA
HETATM   17  C   UNL     1       7.578  -6.350  -5.772  0.00  0.00     0.198 C 
HETATM   18  C   UNL     1       8.141  -5.128  -6.523  0.00  0.00     0.299 C 
ENDBRANCH  12  13
ENDBRANCH   9  12
ENDBRANCH   5   6
BRANCH   1  19
HETATM   19  C   UNL     1       4.700   1.571  -0.921  0.00  0.00     0.273 C 
HETATM   20  N   UNL     1       3.393   1.802  -0.522  0.00  0.00    -0.356 N 
HETATM   21  H   UNL     1       2.853   2.457  -1.078  0.00  0.00     0.162 HD
HETATM   22  O   UNL     1       5.447   0.791  -0.333  0.00  0.00    -0.266 OA
BRANCH  20  23
HETATM   23  C   UNL     1       2.749   1.055   0.532  0.00  0.00     0.118 C 
HETATM   24  C   UNL     1       2.011  -0.163   0.000  0.00  0.00     0.026 C 
ENDBRANCH  20  23
ENDBRANCH   1  19
BRANCH   4  25
HETATM   25  C   UNL     1       5.962   3.103  -5.648  0.00  0.00     0.036 A 
HETATM   26  C   UNL     1       6.008   2.046  -6.574  0.00  0.00     0.044 A 
HETATM   27  C   UNL     1       6.221   2.277  -7.936  0.00  0.00     0.068 A 
HETATM   28 CL   UNL     1       6.376   0.937  -9.010  0.00  0.00    -0.081 Cl
HETATM   29  C   UNL     1       6.302   3.579  -8.417  0.00  0.00     0.090 A 
HETATM   30  C   UNL     1       6.231   4.652  -7.540  0.00  0.00     0.075 A 
HETATM   31  C   UNL     1       6.092   4.411  -6.168  0.00  0.00     0.081 A 
BRANCH  29  32
HETATM   32  O   UNL     1       6.439   3.858  -9.748  0.00  0.00    -0.359 OA
HETATM   33  H   UNL     1       6.460   3.005 -10.223  0.00  0.00     0.217 HD
ENDBRANCH  29  32
BRANCH  31  34
HETATM   34  O   UNL     1       6.083   5.489  -5.322  0.00  0.00    -0.360 OA
HETATM   35  H   UNL     1       6.015   6.310  -5.836  0.00  0.00     0.217 HD
ENDBRANCH  31  34
ENDBRANCH   4  25
TORSDOF 8
