MODEL 1
REMARK VINA RESULT:    -7.251      0.000      0.000
REMARK INTER + INTRA:         -12.983
REMARK INTER:                 -11.615
REMARK INTRA:                  -1.368
REMARK UNBOUND:                -2.129
REMARK  9 active torsions:
REMARK  status: ('A' for Active; 'I' for Inactive)
REMARK    1  A    between atoms: C_2  and  C_4 
REMARK    2  A    between atoms: C_4  and  C_5 
REMARK    3  A    between atoms: C_5  and  C_6 
REMARK    4  A    between atoms: C_6  and  O_7 
REMARK    5  A    between atoms: O_7  and  C_8 
REMARK    6  A    between atoms: C_9  and  O_10 
REMARK    7  A    between atoms: C_14  and  C_16 
REMARK    8  A    between atoms: C_20  and  N_22 
REMARK    9  A    between atoms: C_27  and  C_29 
REMARK       I    between atoms: C_29  and  N_31 
ROOT
HETATM    1  C   UNL     1       8.900  14.280  22.920  0.00  0.00     0.014 A 
HETATM    2  C   UNL     1       9.531  14.349  21.632  0.00  0.00     0.096 A 
HETATM    3  C   UNL     1       8.796  14.577  20.414  0.00  0.00     0.103 C 
HETATM    4  N   UNL     1       8.249  14.758  19.412  0.00  0.00    -0.191 NA
HETATM    5  C   UNL     1      10.916  14.252  21.514  0.00  0.00     0.123 A 
HETATM    6  N   UNL     1      11.740  14.200  22.554  0.00  0.00    -0.227 NA
HETATM    7  C   UNL     1       9.792  14.225  24.060  0.00  0.00     0.040 A 
HETATM    8  C   UNL     1      11.158  14.219  23.762  0.00  0.00     0.113 A 
HETATM    9  C   UNL     1       9.668  14.179  25.518  0.00  0.00     0.062 A 
HETATM   10  N   UNL     1       8.506  14.079  26.210  0.00  0.00    -0.397 N 
HETATM   11  C   UNL     1      10.876  14.280  26.194  0.00  0.00     0.101 A 
HETATM   12  S   UNL     1      12.183  14.268  25.109  0.00  0.00    -0.062 SA
HETATM   13  H   UNL     1       7.718  13.558  25.829  0.00  0.00     0.156 HD
HETATM   14  H   UNL     1       8.534  14.020  27.234  0.00  0.00     0.156 HD
ENDROOT
BRANCH   1  15
HETATM   15  C   UNL     1       7.408  14.287  23.061  0.00  0.00    -0.021 A 
HETATM   16  C   UNL     1       6.646  15.460  23.114  0.00  0.00     0.015 A 
HETATM   17  C   UNL     1       5.252  15.439  23.285  0.00  0.00     0.040 A 
HETATM   18  C   UNL     1       4.549  14.235  23.267  0.00  0.00     0.101 A 
HETATM   19  C   UNL     1       5.266  13.039  23.158  0.00  0.00     0.102 A 
HETATM   20  C   UNL     1       6.673  13.082  23.108  0.00  0.00     0.052 A 
BRANCH  18  21
HETATM   21  O   UNL     1       3.187  14.136  23.385  0.00  0.00    -0.353 OA
HETATM   22  C   UNL     1       2.595  14.824  24.477  0.00  0.00     0.210 C 
ENDBRANCH  18  21
BRANCH  19  23
HETATM   23  O   UNL     1       4.528  11.880  23.072  0.00  0.00    -0.348 OA
BRANCH  23  24
HETATM   24  C   UNL     1       4.405  11.319  21.761  0.00  0.00     0.176 C 
BRANCH  24  25
HETATM   25  C   UNL     1       5.078   9.951  21.723  0.00  0.00     0.037 C 
BRANCH  25  26
HETATM   26  C   UNL     1       4.621   9.118  20.529  0.00  0.00     0.115 C 
BRANCH  26  27
HETATM   27  C   UNL     1       4.972   9.814  19.212  0.00  0.00     0.172 C 
HETATM   28  O   UNL     1       4.022   9.889  18.381  0.00  0.00    -0.648 OA
HETATM   29  O   UNL     1       6.157  10.237  19.124  0.00  0.00    -0.648 OA
ENDBRANCH  26  27
ENDBRANCH  25  26
ENDBRANCH  24  25
ENDBRANCH  23  24
ENDBRANCH  19  23
ENDBRANCH   1  15
BRANCH   5  30
HETATM   30  N   UNL     1      11.574  14.283  20.281  0.00  0.00    -0.286 NA
HETATM   31  H   UNL     1      12.420  13.719  20.272  0.00  0.00     0.125 HD
HETATM   32  H   UNL     1      11.767  15.257  20.059  0.00  0.00     0.125 HD
ENDBRANCH   5  30
BRANCH  11  33
HETATM   33  C   UNL     1      11.110  14.358  27.628  0.00  0.00     0.258 C 
HETATM   34  O   UNL     1      10.676  15.255  28.356  0.00  0.00    -0.267 OA
HETATM   35  N   UNL     1      11.866  13.370  28.198  0.00  0.00    -0.365 N 
HETATM   36  H   UNL     1      12.226  12.598  27.655  0.00  0.00     0.159 HD
HETATM   37  H   UNL     1      12.031  13.408  29.194  0.00  0.00     0.159 HD
ENDBRANCH  11  33
TORSDOF 9
ENDMDL
MODEL 2
REMARK VINA RESULT:    -6.725      1.457      2.644
REMARK INTER + INTRA:         -12.196
REMARK INTER:                 -10.047
REMARK INTRA:                  -2.149
REMARK UNBOUND:                -2.129
REMARK  9 active torsions:
REMARK  status: ('A' for Active; 'I' for Inactive)
REMARK    1  A    between atoms: C_2  and  C_4 
REMARK    2  A    between atoms: C_4  and  C_5 
REMARK    3  A    between atoms: C_5  and  C_6 
REMARK    4  A    between atoms: C_6  and  O_7 
REMARK    5  A    between atoms: O_7  and  C_8 
REMARK    6  A    between atoms: C_9  and  O_10 
REMARK    7  A    between atoms: C_14  and  C_16 
REMARK    8  A    between atoms: C_20  and  N_22 
REMARK    9  A    between atoms: C_27  and  C_29 
REMARK       I    between atoms: C_29  and  N_31 
ROOT
HETATM    1  C   UNL     1       8.919  14.341  22.880  0.00  0.00     0.014 A 
HETATM    2  C   UNL     1       9.567  14.426  21.601  0.00  0.00     0.096 A 
HETATM    3  C   UNL     1       8.846  14.660  20.375  0.00  0.00     0.103 C 
HETATM    4  N   UNL     1       8.312  14.846  19.368  0.00  0.00    -0.191 NA
HETATM    5  C   UNL     1      10.953  14.339  21.501  0.00  0.00     0.123 A 
HETATM    6  N   UNL     1      11.764  14.283  22.553  0.00  0.00    -0.227 NA
HETATM    7  C   UNL     1       9.795  14.282  24.031  0.00  0.00     0.040 A 
HETATM    8  C   UNL     1      11.165  14.287  23.753  0.00  0.00     0.113 A 
HETATM    9  C   UNL     1       9.651  14.221  25.488  0.00  0.00     0.062 A 
HETATM   10  N   UNL     1       8.481  14.108  26.163  0.00  0.00    -0.397 N 
HETATM   11  C   UNL     1      10.850  14.325  26.181  0.00  0.00     0.101 A 
HETATM   12  S   UNL     1      12.172  14.331  25.114  0.00  0.00    -0.062 SA
HETATM   13  H   UNL     1       7.702  13.585  25.766  0.00  0.00     0.156 HD
HETATM   14  H   UNL     1       8.496  14.040  27.186  0.00  0.00     0.156 HD
ENDROOT
BRANCH   1  15
HETATM   15  C   UNL     1       7.425  14.337  23.001  0.00  0.00    -0.021 A 
HETATM   16  C   UNL     1       6.682  15.458  23.390  0.00  0.00     0.015 A 
HETATM   17  C   UNL     1       5.285  15.416  23.532  0.00  0.00     0.040 A 
HETATM   18  C   UNL     1       4.562  14.286  23.150  0.00  0.00     0.101 A 
HETATM   19  C   UNL     1       5.261  13.162  22.700  0.00  0.00     0.102 A 
HETATM   20  C   UNL     1       6.669  13.188  22.680  0.00  0.00     0.052 A 
BRANCH  18  21
HETATM   21  O   UNL     1       3.197  14.185  23.220  0.00  0.00    -0.353 OA
HETATM   22  C   UNL     1       2.566  14.857  24.299  0.00  0.00     0.210 C 
ENDBRANCH  18  21
BRANCH  19  23
HETATM   23  O   UNL     1       4.505  12.095  22.267  0.00  0.00    -0.348 OA
BRANCH  23  24
HETATM   24  C   UNL     1       4.736  10.855  22.943  0.00  0.00     0.176 C 
BRANCH  24  25
HETATM   25  C   UNL     1       3.818  10.755  24.157  0.00  0.00     0.037 C 
BRANCH  25  26
HETATM   26  C   UNL     1       4.599  10.547  25.452  0.00  0.00     0.115 C 
BRANCH  26  27
HETATM   27  C   UNL     1       5.156  11.874  25.972  0.00  0.00     0.172 C 
HETATM   28  O   UNL     1       6.418  11.957  25.972  0.00  0.00    -0.648 OA
HETATM   29  O   UNL     1       4.292  12.723  26.323  0.00  0.00    -0.648 OA
ENDBRANCH  26  27
ENDBRANCH  25  26
ENDBRANCH  24  25
ENDBRANCH  23  24
ENDBRANCH  19  23
ENDBRANCH   1  15
BRANCH   5  30
HETATM   30  N   UNL     1      11.628  14.385  20.278  0.00  0.00    -0.286 NA
HETATM   31  H   UNL     1      11.864  13.462  19.923  0.00  0.00     0.125 HD
HETATM   32  H   UNL     1      12.455  14.964  20.403  0.00  0.00     0.125 HD
ENDBRANCH   5  30
BRANCH  11  33
HETATM   33  C   UNL     1      11.064  14.392  27.619  0.00  0.00     0.258 C 
HETATM   34  O   UNL     1      10.556  15.237  28.359  0.00  0.00    -0.267 OA
HETATM   35  N   UNL     1      11.887  13.452  28.177  0.00  0.00    -0.365 N 
HETATM   36  H   UNL     1      12.310  12.721  27.623  0.00  0.00     0.159 HD
HETATM   37  H   UNL     1      12.039  13.482  29.175  0.00  0.00     0.159 HD
ENDBRANCH  11  33
TORSDOF 9
ENDMDL
MODEL 3
REMARK VINA RESULT:    -6.712      1.789      4.153
REMARK INTER + INTRA:         -12.176
REMARK INTER:                 -10.587
REMARK INTRA:                  -1.589
REMARK UNBOUND:                -2.129
REMARK  9 active torsions:
REMARK  status: ('A' for Active; 'I' for Inactive)
REMARK    1  A    between atoms: C_2  and  C_4 
REMARK    2  A    between atoms: C_4  and  C_5 
REMARK    3  A    between atoms: C_5  and  C_6 
REMARK    4  A    between atoms: C_6  and  O_7 
REMARK    5  A    between atoms: O_7  and  C_8 
REMARK    6  A    between atoms: C_9  and  O_10 
REMARK    7  A    between atoms: C_14  and  C_16 
REMARK    8  A    between atoms: C_20  and  N_22 
REMARK    9  A    between atoms: C_27  and  C_29 
REMARK       I    between atoms: C_29  and  N_31 
ROOT
HETATM    1  C   UNL     1       9.132  13.512  22.104  0.00  0.00     0.014 A 
HETATM    2  C   UNL     1       9.469  14.469  21.088  0.00  0.00     0.096 A 
HETATM    3  C   UNL     1       8.656  14.685  19.918  0.00  0.00     0.103 C 
HETATM    4  N   UNL     1       8.036  14.893  18.965  0.00  0.00    -0.191 NA
HETATM    5  C   UNL     1      10.592  15.283  21.223  0.00  0.00     0.123 A 
HETATM    6  N   UNL     1      11.349  15.314  22.315  0.00  0.00    -0.227 NA
HETATM    7  C   UNL     1       9.951  13.542  23.298  0.00  0.00     0.040 A 
HETATM    8  C   UNL     1      10.987  14.481  23.301  0.00  0.00     0.113 A 
HETATM    9  C   UNL     1      10.005  12.835  24.580  0.00  0.00     0.062 A 
HETATM   10  N   UNL     1       9.227  11.784  24.937  0.00  0.00    -0.397 N 
HETATM   11  C   UNL     1      10.932  13.352  25.474  0.00  0.00     0.101 A 
HETATM   12  S   UNL     1      11.861  14.576  24.748  0.00  0.00    -0.062 SA
HETATM   13  H   UNL     1       8.912  11.111  24.240  0.00  0.00     0.156 HD
HETATM   14  H   UNL     1       9.370  11.340  25.850  0.00  0.00     0.156 HD
ENDROOT
BRANCH   1  15
HETATM   15  C   UNL     1       7.984  12.563  21.934  0.00  0.00    -0.021 A 
HETATM   16  C   UNL     1       8.142  11.223  21.563  0.00  0.00     0.015 A 
HETATM   17  C   UNL     1       7.046  10.365  21.374  0.00  0.00     0.040 A 
HETATM   18  C   UNL     1       5.753  10.780  21.690  0.00  0.00     0.101 A 
HETATM   19  C   UNL     1       5.555  12.095  22.120  0.00  0.00     0.102 A 
HETATM   20  C   UNL     1       6.656  12.971  22.187  0.00  0.00     0.052 A 
BRANCH  18  21
HETATM   21  O   UNL     1       4.640   9.988  21.572  0.00  0.00    -0.353 OA
HETATM   22  C   UNL     1       4.828   8.718  20.967  0.00  0.00     0.210 C 
ENDBRANCH  18  21
BRANCH  19  23
HETATM   23  O   UNL     1       4.273  12.440  22.489  0.00  0.00    -0.348 OA
BRANCH  23  24
HETATM   24  C   UNL     1       4.151  13.124  23.740  0.00  0.00     0.176 C 
BRANCH  24  25
HETATM   25  C   UNL     1       3.509  14.489  23.517  0.00  0.00     0.037 C 
BRANCH  25  26
HETATM   26  C   UNL     1       4.449  15.633  23.887  0.00  0.00     0.115 C 
BRANCH  26  27
HETATM   27  C   UNL     1       4.618  15.732  25.404  0.00  0.00     0.172 C 
HETATM   28  O   UNL     1       5.748  15.363  25.838  0.00  0.00    -0.648 OA
HETATM   29  O   UNL     1       3.620  16.180  26.031  0.00  0.00    -0.648 OA
ENDBRANCH  26  27
ENDBRANCH  25  26
ENDBRANCH  24  25
ENDBRANCH  23  24
ENDBRANCH  19  23
ENDBRANCH   1  15
BRANCH   5  30
HETATM   30  N   UNL     1      10.979  16.207  20.248  0.00  0.00    -0.286 NA
HETATM   31  H   UNL     1      11.750  16.797  20.550  0.00  0.00     0.125 HD
HETATM   32  H   UNL     1      10.159  16.755  20.000  0.00  0.00     0.125 HD
ENDBRANCH   5  30
BRANCH  11  33
HETATM   33  C   UNL     1      11.183  12.957  26.852  0.00  0.00     0.258 C 
HETATM   34  O   UNL     1      11.363  11.793  27.219  0.00  0.00    -0.267 OA
HETATM   35  N   UNL     1      11.218  13.947  27.795  0.00  0.00    -0.365 N 
HETATM   36  H   UNL     1      11.102  14.919  27.548  0.00  0.00     0.159 HD
HETATM   37  H   UNL     1      11.398  13.687  28.754  0.00  0.00     0.159 HD
ENDBRANCH  11  33
TORSDOF 9
ENDMDL
MODEL 4
REMARK VINA RESULT:    -6.711      2.369      4.202
REMARK INTER + INTRA:         -12.174
REMARK INTER:                 -10.213
REMARK INTRA:                  -1.961
REMARK UNBOUND:                -2.129
REMARK  9 active torsions:
REMARK  status: ('A' for Active; 'I' for Inactive)
REMARK    1  A    between atoms: C_2  and  C_4 
REMARK    2  A    between atoms: C_4  and  C_5 
REMARK    3  A    between atoms: C_5  and  C_6 
REMARK    4  A    between atoms: C_6  and  O_7 
REMARK    5  A    between atoms: O_7  and  C_8 
REMARK    6  A    between atoms: C_9  and  O_10 
REMARK    7  A    between atoms: C_14  and  C_16 
REMARK    8  A    between atoms: C_20  and  N_22 
REMARK    9  A    between atoms: C_27  and  C_29 
REMARK       I    between atoms: C_29  and  N_31 
ROOT
HETATM    1  C   UNL     1       8.030  12.278  22.923  0.00  0.00     0.014 A 
HETATM    2  C   UNL     1       8.590  12.201  21.604  0.00  0.00     0.096 A 
HETATM    3  C   UNL     1       7.868  11.661  20.480  0.00  0.00     0.103 C 
HETATM    4  N   UNL     1       7.328  11.237  19.550  0.00  0.00    -0.191 NA
HETATM    5  C   UNL     1       9.861  12.709  21.341  0.00  0.00     0.123 A 
HETATM    6  N   UNL     1      10.583  13.378  22.232  0.00  0.00    -0.227 NA
HETATM    7  C   UNL     1       8.811  13.009  23.901  0.00  0.00     0.040 A 
HETATM    8  C   UNL     1      10.027  13.524  23.444  0.00  0.00     0.113 A 
HETATM    9  C   UNL     1       8.683  13.389  25.309  0.00  0.00     0.062 A 
HETATM   10  N   UNL     1       7.685  13.006  26.144  0.00  0.00    -0.397 N 
HETATM   11  C   UNL     1       9.682  14.241  25.760  0.00  0.00     0.101 A 
HETATM   12  S   UNL     1      10.871  14.468  24.569  0.00  0.00    -0.062 SA
HETATM   13  H   UNL     1       7.245  12.093  26.043  0.00  0.00     0.156 HD
HETATM   14  H   UNL     1       7.709  13.304  27.125  0.00  0.00     0.156 HD
ENDROOT
BRANCH   1  15
HETATM   15  C   UNL     1       6.706  11.656  23.249  0.00  0.00    -0.021 A 
HETATM   16  C   UNL     1       6.570  10.365  23.771  0.00  0.00     0.015 A 
HETATM   17  C   UNL     1       5.315   9.791  24.031  0.00  0.00     0.040 A 
HETATM   18  C   UNL     1       4.147  10.545  23.912  0.00  0.00     0.101 A 
HETATM   19  C   UNL     1       4.242  11.860  23.447  0.00  0.00     0.102 A 
HETATM   20  C   UNL     1       5.501  12.373  23.080  0.00  0.00     0.052 A 
BRANCH  18  21
HETATM   21  O   UNL     1       2.892  10.069  24.188  0.00  0.00    -0.353 OA
HETATM   22  C   UNL     1       2.749   9.315  25.381  0.00  0.00     0.210 C 
ENDBRANCH  18  21
BRANCH  19  23
HETATM   23  O   UNL     1       3.074  12.590  23.413  0.00  0.00    -0.348 OA
BRANCH  23  24
HETATM   24  C   UNL     1       2.890  13.517  24.488  0.00  0.00     0.176 C 
BRANCH  24  25
HETATM   25  C   UNL     1       2.724  14.925  23.927  0.00  0.00     0.037 C 
BRANCH  25  26
HETATM   26  C   UNL     1       4.022  15.726  23.990  0.00  0.00     0.115 C 
BRANCH  26  27
HETATM   27  C   UNL     1       4.580  15.749  25.414  0.00  0.00     0.172 C 
HETATM   28  O   UNL     1       3.763  16.136  26.299  0.00  0.00    -0.648 OA
HETATM   29  O   UNL     1       5.776  15.367  25.532  0.00  0.00    -0.648 OA
ENDBRANCH  26  27
ENDBRANCH  25  26
ENDBRANCH  24  25
ENDBRANCH  23  24
ENDBRANCH  19  23
ENDBRANCH   1  15
BRANCH   5  30
HETATM   30  N   UNL     1      10.461  12.630  20.081  0.00  0.00    -0.286 NA
HETATM   31  H   UNL     1      10.702  13.543  19.702  0.00  0.00     0.125 HD
HETATM   32  H   UNL     1       9.826  12.124  19.468  0.00  0.00     0.125 HD
ENDBRANCH   5  30
BRANCH  11  33
HETATM   33  C   UNL     1       9.812  14.879  27.061  0.00  0.00     0.258 C 
HETATM   34  O   UNL     1       9.002  15.685  27.524  0.00  0.00    -0.267 OA
HETATM   35  N   UNL     1      10.910  14.560  27.813  0.00  0.00    -0.365 N 
HETATM   36  H   UNL     1      11.593  13.887  27.494  0.00  0.00     0.159 HD
HETATM   37  H   UNL     1      11.010  14.991  28.721  0.00  0.00     0.159 HD
ENDBRANCH  11  33
TORSDOF 9
ENDMDL
MODEL 5
REMARK VINA RESULT:    -6.710      4.907      7.852
REMARK INTER + INTRA:         -12.174
REMARK INTER:                 -10.749
REMARK INTRA:                  -1.424
REMARK UNBOUND:                -2.129
REMARK  9 active torsions:
REMARK  status: ('A' for Active; 'I' for Inactive)
REMARK    1  A    between atoms: C_2  and  C_4 
REMARK    2  A    between atoms: C_4  and  C_5 
REMARK    3  A    between atoms: C_5  and  C_6 
REMARK    4  A    between atoms: C_6  and  O_7 
REMARK    5  A    between atoms: O_7  and  C_8 
REMARK    6  A    between atoms: C_9  and  O_10 
REMARK    7  A    between atoms: C_14  and  C_16 
REMARK    8  A    between atoms: C_20  and  N_22 
REMARK    9  A    between atoms: C_27  and  C_29 
REMARK       I    between atoms: C_29  and  N_31 
ROOT
HETATM    1  C   UNL     1       3.451  13.266  24.077  0.00  0.00     0.014 A 
HETATM    2  C   UNL     1       3.755  14.176  25.145  0.00  0.00     0.096 A 
HETATM    3  C   UNL     1       2.781  14.579  26.128  0.00  0.00     0.103 C 
HETATM    4  N   UNL     1       2.035  14.931  26.938  0.00  0.00    -0.191 NA
HETATM    5  C   UNL     1       5.046  14.672  25.309  0.00  0.00     0.123 A 
HETATM    6  N   UNL     1       6.085  14.272  24.584  0.00  0.00    -0.227 NA
HETATM    7  C   UNL     1       4.578  12.823  23.283  0.00  0.00     0.040 A 
HETATM    8  C   UNL     1       5.819  13.358  23.638  0.00  0.00     0.113 A 
HETATM    9  C   UNL     1       4.805  11.918  22.154  0.00  0.00     0.062 A 
HETATM   10  N   UNL     1       3.843  11.267  21.456  0.00  0.00    -0.397 N 
HETATM   11  C   UNL     1       6.144  11.727  21.840  0.00  0.00     0.101 A 
HETATM   12  S   UNL     1       7.137  12.743  22.772  0.00  0.00    -0.062 SA
HETATM   13  H   UNL     1       2.926  11.690  21.317  0.00  0.00     0.156 HD
HETATM   14  H   UNL     1       4.110  10.680  20.659  0.00  0.00     0.156 HD
ENDROOT
BRANCH   1  15
HETATM   15  C   UNL     1       2.050  12.794  23.827  0.00  0.00    -0.021 A 
HETATM   16  C   UNL     1       1.168  13.436  22.950  0.00  0.00     0.015 A 
HETATM   17  C   UNL     1      -0.153  12.994  22.763  0.00  0.00     0.040 A 
HETATM   18  C   UNL     1      -0.596  11.805  23.340  0.00  0.00     0.101 A 
HETATM   19  C   UNL     1       0.273  11.100  24.179  0.00  0.00     0.102 A 
HETATM   20  C   UNL     1       1.551  11.627  24.445  0.00  0.00     0.052 A 
BRANCH  18  21
HETATM   21  O   UNL     1      -1.855  11.289  23.170  0.00  0.00    -0.353 OA
HETATM   22  C   UNL     1      -2.937  12.191  23.338  0.00  0.00     0.210 C 
ENDBRANCH  18  21
BRANCH  19  23
HETATM   23  O   UNL     1      -0.182   9.896  24.669  0.00  0.00    -0.348 OA
BRANCH  23  24
HETATM   24  C   UNL     1      -0.264   9.799  26.095  0.00  0.00     0.176 C 
BRANCH  24  25
HETATM   25  C   UNL     1      -1.543  10.472  26.582  0.00  0.00     0.037 C 
BRANCH  25  26
HETATM   26  C   UNL     1      -1.787  10.233  28.070  0.00  0.00     0.115 C 
BRANCH  26  27
HETATM   27  C   UNL     1      -3.282  10.088  28.361  0.00  0.00     0.172 C 
HETATM   28  O   UNL     1      -3.993  11.067  27.993  0.00  0.00    -0.648 OA
HETATM   29  O   UNL     1      -3.621   9.008  28.916  0.00  0.00    -0.648 OA
ENDBRANCH  26  27
ENDBRANCH  25  26
ENDBRANCH  24  25
ENDBRANCH  23  24
ENDBRANCH  19  23
ENDBRANCH   1  15
BRANCH   5  30
HETATM   30  N   UNL     1       5.385  15.583  26.314  0.00  0.00    -0.286 NA
HETATM   31  H   UNL     1       6.345  15.480  26.632  0.00  0.00     0.125 HD
HETATM   32  H   UNL     1       4.721  15.464  27.075  0.00  0.00     0.125 HD
ENDBRANCH   5  30
BRANCH  11  33
HETATM   33  C   UNL     1       6.726  10.836  20.848  0.00  0.00     0.258 C 
HETATM   34  O   UNL     1       6.400  10.811  19.659  0.00  0.00    -0.267 OA
HETATM   35  N   UNL     1       7.697   9.970  21.272  0.00  0.00    -0.365 N 
HETATM   36  H   UNL     1       8.021   9.964  22.229  0.00  0.00     0.159 HD
HETATM   37  H   UNL     1       8.114   9.351  20.593  0.00  0.00     0.159 HD
ENDBRANCH  11  33
TORSDOF 9
ENDMDL
MODEL 6
REMARK VINA RESULT:    -6.534      5.144      7.897
REMARK INTER + INTRA:         -11.910
REMARK INTER:                 -10.585
REMARK INTRA:                  -1.325
REMARK UNBOUND:                -2.129
REMARK  9 active torsions:
REMARK  status: ('A' for Active; 'I' for Inactive)
REMARK    1  A    between atoms: C_2  and  C_4 
REMARK    2  A    between atoms: C_4  and  C_5 
REMARK    3  A    between atoms: C_5  and  C_6 
REMARK    4  A    between atoms: C_6  and  O_7 
REMARK    5  A    between atoms: O_7  and  C_8 
REMARK    6  A    between atoms: C_9  and  O_10 
REMARK    7  A    between atoms: C_14  and  C_16 
REMARK    8  A    between atoms: C_20  and  N_22 
REMARK    9  A    between atoms: C_27  and  C_29 
REMARK       I    between atoms: C_29  and  N_31 
ROOT
HETATM    1  C   UNL     1       3.698  12.624  24.478  0.00  0.00     0.014 A 
HETATM    2  C   UNL     1       4.135  13.719  25.299  0.00  0.00     0.096 A 
HETATM    3  C   UNL     1       3.218  14.618  25.953  0.00  0.00     0.103 C 
HETATM    4  N   UNL     1       2.522  15.362  26.498  0.00  0.00    -0.191 NA
HETATM    5  C   UNL     1       5.491  13.925  25.545  0.00  0.00     0.123 A 
HETATM    6  N   UNL     1       6.445  13.092  25.144  0.00  0.00    -0.227 NA
HETATM    7  C   UNL     1       4.733  11.710  24.040  0.00  0.00     0.040 A 
HETATM    8  C   UNL     1       6.033  12.023  24.448  0.00  0.00     0.113 A 
HETATM    9  C   UNL     1       4.812  10.478  23.252  0.00  0.00     0.062 A 
HETATM   10  N   UNL     1       3.781   9.889  22.598  0.00  0.00    -0.397 N 
HETATM   11  C   UNL     1       6.072   9.894  23.237  0.00  0.00     0.101 A 
HETATM   12  S   UNL     1       7.210  10.883  24.019  0.00  0.00    -0.062 SA
HETATM   13  H   UNL     1       3.034  10.452  22.193  0.00  0.00     0.156 HD
HETATM   14  H   UNL     1       3.953   9.043  22.046  0.00  0.00     0.156 HD
ENDROOT
BRANCH   1  15
HETATM   15  C   UNL     1       2.254  12.440  24.124  0.00  0.00    -0.021 A 
HETATM   16  C   UNL     1       1.596  13.201  23.151  0.00  0.00     0.015 A 
HETATM   17  C   UNL     1       0.231  13.033  22.866  0.00  0.00     0.040 A 
HETATM   18  C   UNL     1      -0.496  11.994  23.446  0.00  0.00     0.101 A 
HETATM   19  C   UNL     1       0.138  11.172  24.383  0.00  0.00     0.102 A 
HETATM   20  C   UNL     1       1.474  11.436  24.739  0.00  0.00     0.052 A 
BRANCH  18  21
HETATM   21  O   UNL     1      -1.818  11.741  23.187  0.00  0.00    -0.353 OA
HETATM   22  C   UNL     1      -2.422  12.517  22.164  0.00  0.00     0.210 C 
ENDBRANCH  18  21
BRANCH  19  23
HETATM   23  O   UNL     1      -0.597  10.116  24.876  0.00  0.00    -0.348 OA
BRANCH  23  24
HETATM   24  C   UNL     1      -0.640  10.003  26.302  0.00  0.00     0.176 C 
BRANCH  24  25
HETATM   25  C   UNL     1      -1.815  10.810  26.845  0.00  0.00     0.037 C 
BRANCH  25  26
HETATM   26  C   UNL     1      -2.087  10.511  28.316  0.00  0.00     0.115 C 
BRANCH  26  27
HETATM   27  C   UNL     1      -3.548  10.111  28.530  0.00  0.00     0.172 C 
HETATM   28  O   UNL     1      -3.721   8.923  28.930  0.00  0.00    -0.648 OA
HETATM   29  O   UNL     1      -4.395  11.015  28.298  0.00  0.00    -0.648 OA
ENDBRANCH  26  27
ENDBRANCH  25  26
ENDBRANCH  24  25
ENDBRANCH  23  24
ENDBRANCH  19  23
ENDBRANCH   1  15
BRANCH   5  30
HETATM   30  N   UNL     1       5.966  14.993  26.311  0.00  0.00    -0.286 NA
HETATM   31  H   UNL     1       6.774  15.448  25.893  0.00  0.00     0.125 HD
HETATM   32  H   UNL     1       6.173  14.637  27.241  0.00  0.00     0.125 HD
ENDBRANCH   5  30
BRANCH  11  33
HETATM   33  C   UNL     1       6.481   8.634  22.637  0.00  0.00     0.258 C 
HETATM   34  O   UNL     1       5.728   7.675  22.452  0.00  0.00    -0.267 OA
HETATM   35  N   UNL     1       7.790   8.512  22.259  0.00  0.00    -0.365 N 
HETATM   36  H   UNL     1       8.446   9.273  22.365  0.00  0.00     0.159 HD
HETATM   37  H   UNL     1       8.087   7.644  21.835  0.00  0.00     0.159 HD
ENDBRANCH  11  33
TORSDOF 9
ENDMDL
MODEL 7
REMARK VINA RESULT:    -6.469      4.109      7.143
REMARK INTER + INTRA:         -11.813
REMARK INTER:                  -9.480
REMARK INTRA:                  -2.332
REMARK UNBOUND:                -2.129
REMARK  9 active torsions:
REMARK  status: ('A' for Active; 'I' for Inactive)
REMARK    1  A    between atoms: C_2  and  C_4 
REMARK    2  A    between atoms: C_4  and  C_5 
REMARK    3  A    between atoms: C_5  and  C_6 
REMARK    4  A    between atoms: C_6  and  O_7 
REMARK    5  A    between atoms: O_7  and  C_8 
REMARK    6  A    between atoms: C_9  and  O_10 
REMARK    7  A    between atoms: C_14  and  C_16 
REMARK    8  A    between atoms: C_20  and  N_22 
REMARK    9  A    between atoms: C_27  and  C_29 
REMARK       I    between atoms: C_29  and  N_31 
ROOT
HETATM    1  C   UNL     1       5.594  10.669  22.267  0.00  0.00     0.014 A 
HETATM    2  C   UNL     1       5.969  10.466  20.896  0.00  0.00     0.096 A 
HETATM    3  C   UNL     1       7.037  11.197  20.262  0.00  0.00     0.103 C 
HETATM    4  N   UNL     1       7.884  11.759  19.712  0.00  0.00    -0.191 NA
HETATM    5  C   UNL     1       5.339   9.491  20.125  0.00  0.00     0.123 A 
HETATM    6  N   UNL     1       4.450   8.632  20.610  0.00  0.00    -0.227 NA
HETATM    7  C   UNL     1       4.627   9.734  22.804  0.00  0.00     0.040 A 
HETATM    8  C   UNL     1       4.158   8.765  21.912  0.00  0.00     0.113 A 
HETATM    9  C   UNL     1       3.966   9.494  24.089  0.00  0.00     0.062 A 
HETATM   10  N   UNL     1       4.079  10.271  25.194  0.00  0.00    -0.397 N 
HETATM   11  C   UNL     1       3.195   8.340  24.124  0.00  0.00     0.101 A 
HETATM   12  S   UNL     1       3.115   7.616  22.589  0.00  0.00    -0.062 SA
HETATM   13  H   UNL     1       4.206  11.279  25.110  0.00  0.00     0.156 HD
HETATM   14  H   UNL     1       3.545  10.030  26.035  0.00  0.00     0.156 HD
ENDROOT
BRANCH   1  15
HETATM   15  C   UNL     1       6.192  11.773  23.086  0.00  0.00    -0.021 A 
HETATM   16  C   UNL     1       7.241  11.578  23.991  0.00  0.00     0.015 A 
HETATM   17  C   UNL     1       7.757  12.623  24.774  0.00  0.00     0.040 A 
HETATM   18  C   UNL     1       7.338  13.938  24.576  0.00  0.00     0.101 A 
HETATM   19  C   UNL     1       6.331  14.187  23.638  0.00  0.00     0.102 A 
HETATM   20  C   UNL     1       5.746  13.106  22.952  0.00  0.00     0.052 A 
BRANCH  18  21
HETATM   21  O   UNL     1       7.825  15.015  25.270  0.00  0.00    -0.353 OA
HETATM   22  C   UNL     1       9.230  15.062  25.462  0.00  0.00     0.210 C 
ENDBRANCH  18  21
BRANCH  19  23
HETATM   23  O   UNL     1       5.998  15.507  23.424  0.00  0.00    -0.348 OA
BRANCH  23  24
HETATM   24  C   UNL     1       4.614  15.832  23.589  0.00  0.00     0.176 C 
BRANCH  24  25
HETATM   25  C   UNL     1       4.273  15.886  25.074  0.00  0.00     0.037 C 
BRANCH  25  26
HETATM   26  C   UNL     1       2.973  15.152  25.393  0.00  0.00     0.115 C 
BRANCH  26  27
HETATM   27  C   UNL     1       3.192  13.638  25.413  0.00  0.00     0.172 C 
HETATM   28  O   UNL     1       2.419  12.979  24.658  0.00  0.00    -0.648 OA
HETATM   29  O   UNL     1       4.121  13.236  26.164  0.00  0.00    -0.648 OA
ENDBRANCH  26  27
ENDBRANCH  25  26
ENDBRANCH  24  25
ENDBRANCH  23  24
ENDBRANCH  19  23
ENDBRANCH   1  15
BRANCH   5  30
HETATM   30  N   UNL     1       5.648   9.276  18.779  0.00  0.00    -0.286 NA
HETATM   31  H   UNL     1       4.849   8.952  18.239  0.00  0.00     0.125 HD
HETATM   32  H   UNL     1       6.421   8.616  18.741  0.00  0.00     0.125 HD
ENDBRANCH   5  30
BRANCH  11  33
HETATM   33  C   UNL     1       2.483   7.757  25.251  0.00  0.00     0.258 C 
HETATM   34  O   UNL     1       2.484   8.226  26.391  0.00  0.00    -0.267 OA
HETATM   35  N   UNL     1       1.771   6.611  25.021  0.00  0.00    -0.365 N 
HETATM   36  H   UNL     1       1.715   6.197  24.102  0.00  0.00     0.159 HD
HETATM   37  H   UNL     1       1.266   6.200  25.793  0.00  0.00     0.159 HD
ENDBRANCH  11  33
TORSDOF 9
ENDMDL
MODEL 8
REMARK VINA RESULT:    -6.461      3.629      5.226
REMARK INTER + INTRA:         -11.801
REMARK INTER:                 -10.259
REMARK INTRA:                  -1.542
REMARK UNBOUND:                -2.129
REMARK  9 active torsions:
REMARK  status: ('A' for Active; 'I' for Inactive)
REMARK    1  A    between atoms: C_2  and  C_4 
REMARK    2  A    between atoms: C_4  and  C_5 
REMARK    3  A    between atoms: C_5  and  C_6 
REMARK    4  A    between atoms: C_6  and  O_7 
REMARK    5  A    between atoms: O_7  and  C_8 
REMARK    6  A    between atoms: C_9  and  O_10 
REMARK    7  A    between atoms: C_14  and  C_16 
REMARK    8  A    between atoms: C_20  and  N_22 
REMARK    9  A    between atoms: C_27  and  C_29 
REMARK       I    between atoms: C_29  and  N_31 
ROOT
HETATM    1  C   UNL     1       5.721  11.459  22.926  0.00  0.00     0.014 A 
HETATM    2  C   UNL     1       6.046  11.067  21.583  0.00  0.00     0.096 A 
HETATM    3  C   UNL     1       5.068  10.539  20.666  0.00  0.00     0.103 C 
HETATM    4  N   UNL     1       4.319  10.113  19.896  0.00  0.00    -0.191 NA
HETATM    5  C   UNL     1       7.336  11.238  21.086  0.00  0.00     0.123 A 
HETATM    6  N   UNL     1       8.305  11.856  21.754  0.00  0.00    -0.227 NA
HETATM    7  C   UNL     1       6.771  12.135  23.660  0.00  0.00     0.040 A 
HETATM    8  C   UNL     1       7.981  12.298  22.978  0.00  0.00     0.113 A 
HETATM    9  C   UNL     1       6.938  12.737  24.984  0.00  0.00     0.062 A 
HETATM   10  N   UNL     1       6.025  12.710  25.986  0.00  0.00    -0.397 N 
HETATM   11  C   UNL     1       8.143  13.405  25.157  0.00  0.00     0.101 A 
HETATM   12  S   UNL     1       9.157  13.187  23.811  0.00  0.00    -0.062 SA
HETATM   13  H   UNL     1       5.403  11.911  26.100  0.00  0.00     0.156 HD
HETATM   14  H   UNL     1       6.257  13.136  26.890  0.00  0.00     0.156 HD
ENDROOT
BRANCH   1  15
HETATM   15  C   UNL     1       4.366  11.197  23.511  0.00  0.00    -0.021 A 
HETATM   16  C   UNL     1       3.978   9.956  24.028  0.00  0.00     0.015 A 
HETATM   17  C   UNL     1       2.688   9.728  24.535  0.00  0.00     0.040 A 
HETATM   18  C   UNL     1       1.781  10.778  24.676  0.00  0.00     0.101 A 
HETATM   19  C   UNL     1       2.149  12.049  24.225  0.00  0.00     0.102 A 
HETATM   20  C   UNL     1       3.403  12.226  23.611  0.00  0.00     0.052 A 
BRANCH  18  21
HETATM   21  O   UNL     1       0.522  10.642  25.201  0.00  0.00    -0.353 OA
HETATM   22  C   UNL     1       0.003   9.323  25.270  0.00  0.00     0.210 C 
ENDBRANCH  18  21
BRANCH  19  23
HETATM   23  O   UNL     1       1.251  13.069  24.450  0.00  0.00    -0.348 OA
BRANCH  23  24
HETATM   24  C   UNL     1       0.845  13.804  23.290  0.00  0.00     0.176 C 
BRANCH  24  25
HETATM   25  C   UNL     1      -0.306  13.080  22.601  0.00  0.00     0.037 C 
BRANCH  25  26
HETATM   26  C   UNL     1      -1.467  12.808  23.554  0.00  0.00     0.115 C 
BRANCH  26  27
HETATM   27  C   UNL     1      -2.490  11.868  22.914  0.00  0.00     0.172 C 
HETATM   28  O   UNL     1      -2.876  10.918  23.654  0.00  0.00    -0.648 OA
HETATM   29  O   UNL     1      -2.832  12.164  21.737  0.00  0.00    -0.648 OA
ENDBRANCH  26  27
ENDBRANCH  25  26
ENDBRANCH  24  25
ENDBRANCH  23  24
ENDBRANCH  19  23
ENDBRANCH   1  15
BRANCH   5  30
HETATM   30  N   UNL     1       7.709  10.846  19.798  0.00  0.00    -0.286 NA
HETATM   31  H   UNL     1       7.493   9.870  19.606  0.00  0.00     0.125 HD
HETATM   32  H   UNL     1       8.701  11.040  19.690  0.00  0.00     0.125 HD
ENDBRANCH   5  30
BRANCH  11  33
HETATM   33  C   UNL     1       8.594  14.183  26.300  0.00  0.00     0.258 C 
HETATM   34  O   UNL     1       7.887  14.980  26.921  0.00  0.00    -0.267 OA
HETATM   35  N   UNL     1       9.891  14.015  26.704  0.00  0.00    -0.365 N 
HETATM   36  H   UNL     1      10.507  13.358  26.248  0.00  0.00     0.159 HD
HETATM   37  H   UNL     1      10.215  14.545  27.501  0.00  0.00     0.159 HD
ENDBRANCH  11  33
TORSDOF 9
ENDMDL
MODEL 9
REMARK VINA RESULT:    -6.305      3.402      5.932
REMARK INTER + INTRA:         -11.568
REMARK INTER:                  -9.438
REMARK INTRA:                  -2.129
REMARK UNBOUND:                -2.129
REMARK  9 active torsions:
REMARK  status: ('A' for Active; 'I' for Inactive)
REMARK    1  A    between atoms: C_2  and  C_4 
REMARK    2  A    between atoms: C_4  and  C_5 
REMARK    3  A    between atoms: C_5  and  C_6 
REMARK    4  A    between atoms: C_6  and  O_7 
REMARK    5  A    between atoms: O_7  and  C_8 
REMARK    6  A    between atoms: C_9  and  O_10 
REMARK    7  A    between atoms: C_14  and  C_16 
REMARK    8  A    between atoms: C_20  and  N_22 
REMARK    9  A    between atoms: C_27  and  C_29 
REMARK       I    between atoms: C_29  and  N_31 
ROOT
HETATM    1  C   UNL     1       5.711  12.817  22.242  0.00  0.00     0.014 A 
HETATM    2  C   UNL     1       4.772  13.602  22.993  0.00  0.00     0.096 A 
HETATM    3  C   UNL     1       3.562  13.051  23.548  0.00  0.00     0.103 C 
HETATM    4  N   UNL     1       2.581  12.653  24.013  0.00  0.00    -0.191 NA
HETATM    5  C   UNL     1       5.027  14.944  23.267  0.00  0.00     0.123 A 
HETATM    6  N   UNL     1       6.168  15.552  22.961  0.00  0.00    -0.227 NA
HETATM    7  C   UNL     1       6.959  13.473  21.907  0.00  0.00     0.040 A 
HETATM    8  C   UNL     1       7.082  14.798  22.332  0.00  0.00     0.113 A 
HETATM    9  C   UNL     1       8.202  13.124  21.216  0.00  0.00     0.062 A 
HETATM   10  N   UNL     1       8.450  11.955  20.575  0.00  0.00    -0.397 N 
HETATM   11  C   UNL     1       9.184  14.102  21.286  0.00  0.00     0.101 A 
HETATM   12  S   UNL     1       8.588  15.510  22.029  0.00  0.00    -0.062 SA
HETATM   13  H   UNL     1       7.699  11.451  20.105  0.00  0.00     0.156 HD
HETATM   14  H   UNL     1       9.346  11.826  20.093  0.00  0.00     0.156 HD
ENDROOT
BRANCH   1  15
HETATM   15  C   UNL     1       5.414  11.400  21.856  0.00  0.00    -0.021 A 
HETATM   16  C   UNL     1       4.956  11.028  20.587  0.00  0.00     0.015 A 
HETATM   17  C   UNL     1       4.648   9.696  20.264  0.00  0.00     0.040 A 
HETATM   18  C   UNL     1       4.925   8.662  21.159  0.00  0.00     0.101 A 
HETATM   19  C   UNL     1       5.439   8.984  22.419  0.00  0.00     0.102 A 
HETATM   20  C   UNL     1       5.626  10.336  22.761  0.00  0.00     0.052 A 
BRANCH  18  21
HETATM   21  O   UNL     1       4.693   7.337  20.899  0.00  0.00    -0.353 OA
HETATM   22  C   UNL     1       5.012   6.881  19.593  0.00  0.00     0.210 C 
ENDBRANCH  18  21
BRANCH  19  23
HETATM   23  O   UNL     1       5.764   7.929  23.242  0.00  0.00    -0.348 OA
BRANCH  23  24
HETATM   24  C   UNL     1       6.417   8.277  24.467  0.00  0.00     0.176 C 
BRANCH  24  25
HETATM   25  C   UNL     1       7.927   8.150  24.297  0.00  0.00     0.037 C 
BRANCH  25  26
HETATM   26  C   UNL     1       8.664   9.410  24.742  0.00  0.00     0.115 C 
BRANCH  26  27
HETATM   27  C   UNL     1       9.213  10.176  23.537  0.00  0.00     0.172 C 
HETATM   28  O   UNL     1       8.971   9.644  22.415  0.00  0.00    -0.648 OA
HETATM   29  O   UNL     1       9.824  11.245  23.809  0.00  0.00    -0.648 OA
ENDBRANCH  26  27
ENDBRANCH  25  26
ENDBRANCH  24  25
ENDBRANCH  23  24
ENDBRANCH  19  23
ENDBRANCH   1  15
BRANCH   5  30
HETATM   30  N   UNL     1       4.131  15.757  23.966  0.00  0.00    -0.286 NA
HETATM   31  H   UNL     1       3.180  15.692  23.610  0.00  0.00     0.125 HD
HETATM   32  H   UNL     1       4.484  16.710  23.928  0.00  0.00     0.125 HD
ENDBRANCH   5  30
BRANCH  11  33
HETATM   33  C   UNL     1      10.553  14.052  20.795  0.00  0.00     0.258 C 
HETATM   34  O   UNL     1      11.079  13.051  20.305  0.00  0.00    -0.267 OA
HETATM   35  N   UNL     1      11.299  15.196  20.890  0.00  0.00    -0.365 N 
HETATM   36  H   UNL     1      10.911  16.052  21.260  0.00  0.00     0.159 HD
HETATM   37  H   UNL     1      12.248  15.177  20.547  0.00  0.00     0.159 HD
ENDBRANCH  11  33
TORSDOF 9
ENDMDL
