MODEL 1
REMARK VINA RESULT:    -8.021      0.000      0.000
REMARK INTER + INTRA:         -10.318
REMARK INTER:                  -9.691
REMARK INTRA:                  -0.627
REMARK UNBOUND:                -0.656
REMARK  4 active torsions:
REMARK  status: ('A' for Active; 'I' for Inactive)
REMARK    1  A    between atoms: C_2  and  O_3 
REMARK    2  A    between atoms: O_3  and  C_4 
REMARK       I    between atoms: N_11  and  C_12 
REMARK    3  A    between atoms: C_12  and  C_14 
REMARK    4  A    between atoms: C_16  and  N_17 
ROOT
HETATM    1  C   UNL     1       9.375  13.952  21.933  0.00  0.00     0.140 A 
HETATM    2  N   UNL     1       9.509  14.857  20.935  0.00  0.00    -0.212 NA
HETATM    3  C   UNL     1      10.597  15.620  20.972  0.00  0.00     0.200 A 
HETATM    4  N   UNL     1      11.487  15.643  21.959  0.00  0.00    -0.218 NA
HETATM    5  C   UNL     1      11.352  14.762  22.953  0.00  0.00     0.073 A 
HETATM    6  C   UNL     1      12.250  14.825  24.017  0.00  0.00     0.033 C 
HETATM    7  C   UNL     1      12.187  13.943  25.099  0.00  0.00     0.009 C 
HETATM    8  C   UNL     1      11.246  12.923  25.096  0.00  0.00    -0.061 C 
HETATM    9  C   UNL     1      11.081  11.987  26.253  0.00  0.00     0.048 C 
HETATM   10  C   UNL     1      10.362  12.835  24.016  0.00  0.00     0.023 C 
HETATM   11  C   UNL     1      10.336  13.806  22.972  0.00  0.00     0.028 A 
ENDROOT
BRANCH   1  12
HETATM   12  C   UNL     1       8.065  13.171  21.978  0.00  0.00     0.274 C 
HETATM   13  N   UNL     1       6.895  13.677  22.537  0.00  0.00    -0.338 N 
HETATM   14  C   UNL     1       5.706  12.816  22.543  0.00  0.00     0.165 A 
HETATM   15  C   UNL     1       6.619  14.994  23.115  0.00  0.00     0.165 A 
HETATM   16  C   UNL     1       4.631  13.678  23.116  0.00  0.00    -0.030 A 
HETATM   17  C   UNL     1       5.149  14.937  23.433  0.00  0.00    -0.032 A 
HETATM   18  C   UNL     1       3.289  13.374  23.308  0.00  0.00     0.046 A 
HETATM   19  C   UNL     1       4.315  15.924  23.938  0.00  0.00     0.012 A 
HETATM   20  C   UNL     1       2.951  15.629  24.117  0.00  0.00     0.037 A 
HETATM   21  C   UNL     1       2.437  14.355  23.820  0.00  0.00     0.069 A 
HETATM   22  O   UNL     1       8.027  12.024  21.528  0.00  0.00    -0.266 OA
BRANCH  21  23
HETATM   23  O   UNL     1       1.135  13.956  23.975  0.00  0.00    -0.352 OA
BRANCH  23  24
HETATM   24  C   UNL     1       0.728  12.757  23.314  0.00  0.00     0.171 C 
HETATM   25  C   UNL     1      -0.180  13.135  22.154  0.00  0.00     0.034 C 
ENDBRANCH  23  24
ENDBRANCH  21  23
ENDBRANCH   1  12
BRANCH   3  26
HETATM   26  N   UNL     1      10.829  16.484  19.926  0.00  0.00    -0.271 NA
HETATM   27  H   UNL     1      11.597  16.177  19.353  0.00  0.00     0.127 HD
HETATM   28  H   UNL     1       9.954  16.704  19.461  0.00  0.00     0.127 HD
ENDBRANCH   3  26
TORSDOF 4
ENDMDL
MODEL 2
REMARK VINA RESULT:    -7.897      2.350      3.443
REMARK INTER + INTRA:         -10.169
REMARK INTER:                  -9.610
REMARK INTRA:                  -0.559
REMARK UNBOUND:                -0.656
REMARK  4 active torsions:
REMARK  status: ('A' for Active; 'I' for Inactive)
REMARK    1  A    between atoms: C_2  and  O_3 
REMARK    2  A    between atoms: O_3  and  C_4 
REMARK       I    between atoms: N_11  and  C_12 
REMARK    3  A    between atoms: C_12  and  C_14 
REMARK    4  A    between atoms: C_16  and  N_17 
ROOT
HETATM    1  C   UNL     1       9.519  12.753  25.182  0.00  0.00     0.140 A 
HETATM    2  N   UNL     1       9.965  11.967  26.190  0.00  0.00    -0.212 NA
HETATM    3  C   UNL     1      11.170  12.254  26.673  0.00  0.00     0.200 A 
HETATM    4  N   UNL     1      12.003  13.161  26.174  0.00  0.00    -0.218 NA
HETATM    5  C   UNL     1      11.572  13.930  25.170  0.00  0.00     0.073 A 
HETATM    6  C   UNL     1      12.466  14.840  24.607  0.00  0.00     0.033 C 
HETATM    7  C   UNL     1      12.102  15.687  23.556  0.00  0.00     0.009 C 
HETATM    8  C   UNL     1      10.795  15.679  23.092  0.00  0.00    -0.061 C 
HETATM    9  C   UNL     1      10.358  16.511  21.925  0.00  0.00     0.048 C 
HETATM   10  C   UNL     1       9.887  14.789  23.673  0.00  0.00     0.023 C 
HETATM   11  C   UNL     1      10.279  13.834  24.656  0.00  0.00     0.028 A 
ENDROOT
BRANCH   1  12
HETATM   12  C   UNL     1       8.202  12.345  24.528  0.00  0.00     0.274 C 
HETATM   13  N   UNL     1       7.023  13.068  24.674  0.00  0.00    -0.338 N 
HETATM   14  C   UNL     1       5.814  12.555  24.016  0.00  0.00     0.165 A 
HETATM   15  C   UNL     1       6.771  14.331  25.372  0.00  0.00     0.165 A 
HETATM   16  C   UNL     1       4.778  13.593  24.291  0.00  0.00    -0.030 A 
HETATM   17  C   UNL     1       5.328  14.623  25.059  0.00  0.00    -0.032 A 
HETATM   18  C   UNL     1       3.457  13.632  23.863  0.00  0.00     0.046 A 
HETATM   19  C   UNL     1       4.557  15.726  25.398  0.00  0.00     0.012 A 
HETATM   20  C   UNL     1       3.224  15.780  24.950  0.00  0.00     0.037 A 
HETATM   21  C   UNL     1       2.665  14.732  24.199  0.00  0.00     0.069 A 
HETATM   22  O   UNL     1       8.154  11.311  23.857  0.00  0.00    -0.266 OA
BRANCH  21  23
HETATM   23  O   UNL     1       1.378  14.674  23.731  0.00  0.00    -0.352 OA
BRANCH  23  24
HETATM   24  C   UNL     1       0.729  13.402  23.740  0.00  0.00     0.171 C 
HETATM   25  C   UNL     1       0.055  13.200  22.391  0.00  0.00     0.034 C 
ENDBRANCH  23  24
ENDBRANCH  21  23
ENDBRANCH   1  12
BRANCH   3  26
HETATM   26  N   UNL     1      11.625  11.549  27.764  0.00  0.00    -0.271 NA
HETATM   27  H   UNL     1      10.868  11.244  28.352  0.00  0.00     0.127 HD
HETATM   28  H   UNL     1      12.299  10.851  27.466  0.00  0.00     0.127 HD
ENDBRANCH   3  26
TORSDOF 4
ENDMDL
MODEL 3
REMARK VINA RESULT:    -7.805      2.656      3.928
REMARK INTER + INTRA:         -10.059
REMARK INTER:                  -9.385
REMARK INTRA:                  -0.674
REMARK UNBOUND:                -0.656
REMARK  4 active torsions:
REMARK  status: ('A' for Active; 'I' for Inactive)
REMARK    1  A    between atoms: C_2  and  O_3 
REMARK    2  A    between atoms: O_3  and  C_4 
REMARK       I    between atoms: N_11  and  C_12 
REMARK    3  A    between atoms: C_12  and  C_14 
REMARK    4  A    between atoms: C_16  and  N_17 
ROOT
HETATM    1  C   UNL     1       7.424  13.885  24.976  0.00  0.00     0.140 A 
HETATM    2  N   UNL     1       7.749  14.164  26.261  0.00  0.00    -0.212 NA
HETATM    3  C   UNL     1       8.735  15.038  26.444  0.00  0.00     0.200 A 
HETATM    4  N   UNL     1       9.490  15.559  25.482  0.00  0.00    -0.218 NA
HETATM    5  C   UNL     1       9.182  15.275  24.213  0.00  0.00     0.073 A 
HETATM    6  C   UNL     1      10.009  15.773  23.208  0.00  0.00     0.033 C 
HETATM    7  C   UNL     1       9.763  15.531  21.854  0.00  0.00     0.009 C 
HETATM    8  C   UNL     1       8.626  14.829  21.480  0.00  0.00    -0.061 C 
HETATM    9  C   UNL     1       8.340  14.476  20.052  0.00  0.00     0.048 C 
HETATM   10  C   UNL     1       7.776  14.353  22.483  0.00  0.00     0.023 C 
HETATM   11  C   UNL     1       8.085  14.485  23.869  0.00  0.00     0.028 A 
ENDROOT
BRANCH   1  12
HETATM   12  C   UNL     1       6.394  12.782  24.756  0.00  0.00     0.274 C 
HETATM   13  N   UNL     1       5.039  13.032  24.560  0.00  0.00    -0.338 N 
HETATM   14  C   UNL     1       4.144  11.882  24.386  0.00  0.00     0.165 A 
HETATM   15  C   UNL     1       4.321  14.305  24.456  0.00  0.00     0.165 A 
HETATM   16  C   UNL     1       2.810  12.493  24.113  0.00  0.00    -0.030 A 
HETATM   17  C   UNL     1       2.910  13.887  24.138  0.00  0.00    -0.032 A 
HETATM   18  C   UNL     1       1.608  11.856  23.832  0.00  0.00     0.046 A 
HETATM   19  C   UNL     1       1.798  14.669  23.862  0.00  0.00     0.012 A 
HETATM   20  C   UNL     1       0.582  14.029  23.557  0.00  0.00     0.037 A 
HETATM   21  C   UNL     1       0.477  12.628  23.556  0.00  0.00     0.069 A 
HETATM   22  O   UNL     1       6.754  11.602  24.777  0.00  0.00    -0.266 OA
BRANCH  21  23
HETATM   23  O   UNL     1      -0.658  11.906  23.294  0.00  0.00    -0.352 OA
BRANCH  23  24
HETATM   24  C   UNL     1      -1.914  12.520  23.583  0.00  0.00     0.171 C 
HETATM   25  C   UNL     1      -2.475  11.888  24.848  0.00  0.00     0.034 C 
ENDBRANCH  23  24
ENDBRANCH  21  23
ENDBRANCH   1  12
BRANCH   3  26
HETATM   26  N   UNL     1       9.034  15.431  27.728  0.00  0.00    -0.271 NA
HETATM   27  H   UNL     1      10.025  15.537  27.864  0.00  0.00     0.127 HD
HETATM   28  H   UNL     1       8.437  16.205  27.999  0.00  0.00     0.127 HD
ENDBRANCH   3  26
TORSDOF 4
ENDMDL
MODEL 4
REMARK VINA RESULT:    -7.726      1.894      2.369
REMARK INTER + INTRA:          -9.963
REMARK INTER:                  -9.291
REMARK INTRA:                  -0.672
REMARK UNBOUND:                -0.656
REMARK  4 active torsions:
REMARK  status: ('A' for Active; 'I' for Inactive)
REMARK    1  A    between atoms: C_2  and  O_3 
REMARK    2  A    between atoms: O_3  and  C_4 
REMARK       I    between atoms: N_11  and  C_12 
REMARK    3  A    between atoms: C_12  and  C_14 
REMARK    4  A    between atoms: C_16  and  N_17 
ROOT
HETATM    1  C   UNL     1       7.704  13.503  22.280  0.00  0.00     0.140 A 
HETATM    2  N   UNL     1       7.569  13.691  20.945  0.00  0.00    -0.212 NA
HETATM    3  C   UNL     1       8.345  14.622  20.398  0.00  0.00     0.200 A 
HETATM    4  N   UNL     1       9.143  15.448  21.067  0.00  0.00    -0.218 NA
HETATM    5  C   UNL     1       9.269  15.276  22.386  0.00  0.00     0.073 A 
HETATM    6  C   UNL     1      10.059  16.179  23.095  0.00  0.00     0.033 C 
HETATM    7  C   UNL     1      10.251  16.076  24.475  0.00  0.00     0.009 C 
HETATM    8  C   UNL     1       9.698  15.007  25.165  0.00  0.00    -0.061 C 
HETATM    9  C   UNL     1       9.808  14.875  26.653  0.00  0.00     0.048 C 
HETATM   10  C   UNL     1       8.929  14.081  24.453  0.00  0.00     0.023 C 
HETATM   11  C   UNL     1       8.623  14.248  23.071  0.00  0.00     0.028 A 
ENDROOT
BRANCH   1  12
HETATM   12  C   UNL     1       6.722  12.539  22.938  0.00  0.00     0.274 C 
HETATM   13  N   UNL     1       5.433  12.904  23.314  0.00  0.00    -0.338 N 
HETATM   14  C   UNL     1       4.593  11.891  23.965  0.00  0.00     0.165 A 
HETATM   15  C   UNL     1       4.721  14.171  23.134  0.00  0.00     0.165 A 
HETATM   16  C   UNL     1       3.276  12.569  24.148  0.00  0.00    -0.030 A 
HETATM   17  C   UNL     1       3.341  13.876  23.658  0.00  0.00    -0.032 A 
HETATM   18  C   UNL     1       2.102  12.049  24.679  0.00  0.00     0.046 A 
HETATM   19  C   UNL     1       2.213  14.684  23.680  0.00  0.00     0.012 A 
HETATM   20  C   UNL     1       1.016  14.156  24.199  0.00  0.00     0.037 A 
HETATM   21  C   UNL     1       0.958  12.850  24.713  0.00  0.00     0.069 A 
HETATM   22  O   UNL     1       7.079  11.384  23.183  0.00  0.00    -0.266 OA
BRANCH  21  23
HETATM   23  O   UNL     1      -0.145  12.247  25.258  0.00  0.00    -0.352 OA
BRANCH  23  24
HETATM   24  C   UNL     1      -0.550  10.991  24.712  0.00  0.00     0.171 C 
HETATM   25  C   UNL     1      -1.543  11.255  23.590  0.00  0.00     0.034 C 
ENDBRANCH  23  24
ENDBRANCH  21  23
ENDBRANCH   1  12
BRANCH   3  26
HETATM   26  N   UNL     1       8.317  14.780  19.032  0.00  0.00    -0.271 NA
HETATM   27  H   UNL     1       8.542  15.723  18.761  0.00  0.00     0.127 HD
HETATM   28  H   UNL     1       8.834  14.028  18.588  0.00  0.00     0.127 HD
ENDBRANCH   3  26
TORSDOF 4
ENDMDL
MODEL 5
REMARK VINA RESULT:    -7.705      1.656      1.800
REMARK INTER + INTRA:          -9.937
REMARK INTER:                  -9.379
REMARK INTRA:                  -0.558
REMARK UNBOUND:                -0.656
REMARK  4 active torsions:
REMARK  status: ('A' for Active; 'I' for Inactive)
REMARK    1  A    between atoms: C_2  and  O_3 
REMARK    2  A    between atoms: O_3  and  C_4 
REMARK       I    between atoms: N_11  and  C_12 
REMARK    3  A    between atoms: C_12  and  C_14 
REMARK    4  A    between atoms: C_16  and  N_17 
ROOT
HETATM    1  C   UNL     1       9.722  12.307  22.510  0.00  0.00     0.140 A 
HETATM    2  N   UNL     1      10.071  12.081  21.221  0.00  0.00    -0.212 NA
HETATM    3  C   UNL     1      11.262  12.537  20.843  0.00  0.00     0.200 A 
HETATM    4  N   UNL     1      12.069  13.288  21.585  0.00  0.00    -0.218 NA
HETATM    5  C   UNL     1      11.722  13.526  22.853  0.00  0.00     0.073 A 
HETATM    6  C   UNL     1      12.539  14.361  23.614  0.00  0.00     0.033 C 
HETATM    7  C   UNL     1      12.257  14.664  24.948  0.00  0.00     0.009 C 
HETATM    8  C   UNL     1      11.169  14.069  25.570  0.00  0.00    -0.061 C 
HETATM    9  C   UNL     1      10.771  14.402  26.976  0.00  0.00     0.048 C 
HETATM   10  C   UNL     1      10.363  13.206  24.820  0.00  0.00     0.023 C 
HETATM   11  C   UNL     1      10.569  12.991  23.426  0.00  0.00     0.028 A 
ENDROOT
BRANCH   1  12
HETATM   12  C   UNL     1       8.304  11.913  22.914  0.00  0.00     0.274 C 
HETATM   13  N   UNL     1       7.302  12.840  23.178  0.00  0.00    -0.338 N 
HETATM   14  C   UNL     1       5.985  12.334  23.585  0.00  0.00     0.165 A 
HETATM   15  C   UNL     1       7.319  14.302  23.082  0.00  0.00     0.165 A 
HETATM   16  C   UNL     1       5.140  13.559  23.697  0.00  0.00    -0.030 A 
HETATM   17  C   UNL     1       5.900  14.692  23.395  0.00  0.00    -0.032 A 
HETATM   18  C   UNL     1       3.789  13.652  24.012  0.00  0.00     0.046 A 
HETATM   19  C   UNL     1       5.306  15.946  23.388  0.00  0.00     0.012 A 
HETATM   20  C   UNL     1       3.935  16.045  23.686  0.00  0.00     0.037 A 
HETATM   21  C   UNL     1       3.177  14.907  24.014  0.00  0.00     0.069 A 
HETATM   22  O   UNL     1       8.022  10.720  23.046  0.00  0.00    -0.266 OA
BRANCH  21  23
HETATM   23  O   UNL     1       1.846  14.893  24.339  0.00  0.00    -0.352 OA
BRANCH  23  24
HETATM   24  C   UNL     1       1.033  13.875  23.754  0.00  0.00     0.171 C 
HETATM   25  C   UNL     1      -0.032  13.474  24.763  0.00  0.00     0.034 C 
ENDBRANCH  23  24
ENDBRANCH  21  23
ENDBRANCH   1  12
BRANCH   3  26
HETATM   26  N   UNL     1      11.704  12.244  19.573  0.00  0.00    -0.271 NA
HETATM   27  H   UNL     1      11.193  12.757  18.874  0.00  0.00     0.127 HD
HETATM   28  H   UNL     1      12.717  12.290  19.543  0.00  0.00     0.127 HD
ENDBRANCH   3  26
TORSDOF 4
ENDMDL
MODEL 6
REMARK VINA RESULT:    -7.616      7.528     10.802
REMARK INTER + INTRA:          -9.830
REMARK INTER:                  -9.201
REMARK INTRA:                  -0.629
REMARK UNBOUND:                -0.656
REMARK  4 active torsions:
REMARK  status: ('A' for Active; 'I' for Inactive)
REMARK    1  A    between atoms: C_2  and  O_3 
REMARK    2  A    between atoms: O_3  and  C_4 
REMARK       I    between atoms: N_11  and  C_12 
REMARK    3  A    between atoms: C_12  and  C_14 
REMARK    4  A    between atoms: C_16  and  N_17 
ROOT
HETATM    1  C   UNL     1      -1.353  11.877  24.649  0.00  0.00     0.140 A 
HETATM    2  N   UNL     1      -2.252  11.673  23.657  0.00  0.00    -0.212 NA
HETATM    3  C   UNL     1      -1.985  12.252  22.490  0.00  0.00     0.200 A 
HETATM    4  N   UNL     1      -0.984  13.096  22.261  0.00  0.00    -0.218 NA
HETATM    5  C   UNL     1      -0.102  13.311  23.241  0.00  0.00     0.073 A 
HETATM    6  C   UNL     1       0.913  14.241  23.022  0.00  0.00     0.033 C 
HETATM    7  C   UNL     1       1.881  14.528  23.988  0.00  0.00     0.009 C 
HETATM    8  C   UNL     1       1.884  13.825  25.184  0.00  0.00    -0.061 C 
HETATM    9  C   UNL     1       2.850  14.132  26.288  0.00  0.00     0.048 C 
HETATM   10  C   UNL     1       0.885  12.870  25.398  0.00  0.00     0.023 C 
HETATM   11  C   UNL     1      -0.179  12.661  24.473  0.00  0.00     0.028 A 
ENDROOT
BRANCH   1  12
HETATM   12  C   UNL     1      -1.721  11.335  26.027  0.00  0.00     0.274 C 
HETATM   13  N   UNL     1      -1.189  10.161  26.551  0.00  0.00    -0.338 N 
HETATM   14  C   UNL     1      -1.645   9.731  27.879  0.00  0.00     0.165 A 
HETATM   15  C   UNL     1      -0.179   9.255  26.000  0.00  0.00     0.165 A 
HETATM   16  C   UNL     1      -0.828   8.517  28.172  0.00  0.00    -0.030 A 
HETATM   17  C   UNL     1       0.027   8.248  27.099  0.00  0.00    -0.032 A 
HETATM   18  C   UNL     1      -0.824   7.733  29.319  0.00  0.00     0.046 A 
HETATM   19  C   UNL     1       0.918   7.187  27.170  0.00  0.00     0.012 A 
HETATM   20  C   UNL     1       0.940   6.401  28.337  0.00  0.00     0.037 A 
HETATM   21  C   UNL     1       0.064   6.659  29.405  0.00  0.00     0.069 A 
HETATM   22  O   UNL     1      -2.550  11.938  26.714  0.00  0.00    -0.266 OA
BRANCH  21  23
HETATM   23  O   UNL     1      -0.012   5.947  30.574  0.00  0.00    -0.352 OA
BRANCH  23  24
HETATM   24  C   UNL     1       0.308   6.631  31.786  0.00  0.00     0.171 C 
HETATM   25  C   UNL     1       0.069   5.680  32.949  0.00  0.00     0.034 C 
ENDBRANCH  23  24
ENDBRANCH  21  23
ENDBRANCH   1  12
BRANCH   3  26
HETATM   26  N   UNL     1      -2.814  11.992  21.423  0.00  0.00    -0.271 NA
HETATM   27  H   UNL     1      -2.320  12.040  20.548  0.00  0.00     0.127 HD
HETATM   28  H   UNL     1      -3.362  11.159  21.608  0.00  0.00     0.127 HD
ENDBRANCH   3  26
TORSDOF 4
ENDMDL
MODEL 7
REMARK VINA RESULT:    -7.565      2.698      3.668
REMARK INTER + INTRA:          -9.769
REMARK INTER:                  -9.109
REMARK INTRA:                  -0.660
REMARK UNBOUND:                -0.656
REMARK  4 active torsions:
REMARK  status: ('A' for Active; 'I' for Inactive)
REMARK    1  A    between atoms: C_2  and  O_3 
REMARK    2  A    between atoms: O_3  and  C_4 
REMARK       I    between atoms: N_11  and  C_12 
REMARK    3  A    between atoms: C_12  and  C_14 
REMARK    4  A    between atoms: C_16  and  N_17 
ROOT
HETATM    1  C   UNL     1       9.424  11.766  24.983  0.00  0.00     0.140 A 
HETATM    2  N   UNL     1       9.898  11.671  26.248  0.00  0.00    -0.212 NA
HETATM    3  C   UNL     1      11.213  11.804  26.397  0.00  0.00     0.200 A 
HETATM    4  N   UNL     1      12.093  11.903  25.406  0.00  0.00    -0.218 NA
HETATM    5  C   UNL     1      11.631  11.982  24.155  0.00  0.00     0.073 A 
HETATM    6  C   UNL     1      12.555  12.025  23.112  0.00  0.00     0.033 C 
HETATM    7  C   UNL     1      12.164  12.112  21.774  0.00  0.00     0.009 C 
HETATM    8  C   UNL     1      10.817  12.226  21.461  0.00  0.00    -0.061 C 
HETATM    9  C   UNL     1      10.326  12.253  20.045  0.00  0.00     0.048 C 
HETATM   10  C   UNL     1       9.886  12.213  22.505  0.00  0.00     0.023 C 
HETATM   11  C   UNL     1      10.267  11.998  23.861  0.00  0.00     0.028 A 
ENDROOT
BRANCH   1  12
HETATM   12  C   UNL     1       7.939  11.475  24.786  0.00  0.00     0.274 C 
HETATM   13  N   UNL     1       6.977  12.472  24.662  0.00  0.00    -0.338 N 
HETATM   14  C   UNL     1       5.576  12.063  24.504  0.00  0.00     0.165 A 
HETATM   15  C   UNL     1       7.129  13.929  24.622  0.00  0.00     0.165 A 
HETATM   16  C   UNL     1       4.839  13.346  24.309  0.00  0.00    -0.030 A 
HETATM   17  C   UNL     1       5.730  14.421  24.362  0.00  0.00    -0.032 A 
HETATM   18  C   UNL     1       3.483  13.537  24.070  0.00  0.00     0.046 A 
HETATM   19  C   UNL     1       5.272  15.715  24.158  0.00  0.00     0.012 A 
HETATM   20  C   UNL     1       3.904  15.912  23.896  0.00  0.00     0.037 A 
HETATM   21  C   UNL     1       3.005  14.833  23.867  0.00  0.00     0.069 A 
HETATM   22  O   UNL     1       7.548  10.305  24.762  0.00  0.00    -0.266 OA
BRANCH  21  23
HETATM   23  O   UNL     1       1.655  14.915  23.643  0.00  0.00    -0.352 OA
BRANCH  23  24
HETATM   24  C   UNL     1       0.967  13.711  23.302  0.00  0.00     0.171 C 
HETATM   25  C   UNL     1      -0.212  13.549  24.249  0.00  0.00     0.034 C 
ENDBRANCH  23  24
ENDBRANCH  21  23
ENDBRANCH   1  12
BRANCH   3  26
HETATM   26  N   UNL     1      11.731  11.817  27.671  0.00  0.00    -0.271 NA
HETATM   27  H   UNL     1      11.552  10.953  28.154  0.00  0.00     0.127 HD
HETATM   28  H   UNL     1      12.688  12.154  27.650  0.00  0.00     0.127 HD
ENDBRANCH   3  26
TORSDOF 4
ENDMDL
MODEL 8
REMARK VINA RESULT:    -7.485      4.396      6.681
REMARK INTER + INTRA:          -9.672
REMARK INTER:                  -9.088
REMARK INTRA:                  -0.584
REMARK UNBOUND:                -0.656
REMARK  4 active torsions:
REMARK  status: ('A' for Active; 'I' for Inactive)
REMARK    1  A    between atoms: C_2  and  O_3 
REMARK    2  A    between atoms: O_3  and  C_4 
REMARK       I    between atoms: N_11  and  C_12 
REMARK    3  A    between atoms: C_12  and  C_14 
REMARK    4  A    between atoms: C_16  and  N_17 
ROOT
HETATM    1  C   UNL     1       6.285  12.156  23.451  0.00  0.00     0.140 A 
HETATM    2  N   UNL     1       7.610  12.174  23.168  0.00  0.00    -0.212 NA
HETATM    3  C   UNL     1       8.173  13.374  23.055  0.00  0.00     0.200 A 
HETATM    4  N   UNL     1       7.524  14.534  23.081  0.00  0.00    -0.218 NA
HETATM    5  C   UNL     1       6.215  14.520  23.345  0.00  0.00     0.073 A 
HETATM    6  C   UNL     1       5.524  15.730  23.314  0.00  0.00     0.033 C 
HETATM    7  C   UNL     1       4.155  15.813  23.580  0.00  0.00     0.009 C 
HETATM    8  C   UNL     1       3.460  14.671  23.955  0.00  0.00    -0.061 C 
HETATM    9  C   UNL     1       1.980  14.678  24.187  0.00  0.00     0.048 C 
HETATM   10  C   UNL     1       4.155  13.459  24.018  0.00  0.00     0.023 C 
HETATM   11  C   UNL     1       5.521  13.343  23.625  0.00  0.00     0.028 A 
ENDROOT
BRANCH   1  12
HETATM   12  C   UNL     1       5.603  10.792  23.443  0.00  0.00     0.274 C 
HETATM   13  N   UNL     1       5.247  10.125  22.276  0.00  0.00    -0.338 N 
HETATM   14  C   UNL     1       4.570   8.828  22.402  0.00  0.00     0.165 A 
HETATM   15  C   UNL     1       5.472  10.489  20.875  0.00  0.00     0.165 A 
HETATM   16  C   UNL     1       4.417   8.355  20.995  0.00  0.00    -0.030 A 
HETATM   17  C   UNL     1       4.947   9.302  20.114  0.00  0.00    -0.032 A 
HETATM   18  C   UNL     1       3.876   7.159  20.538  0.00  0.00     0.046 A 
HETATM   19  C   UNL     1       4.957   9.052  18.749  0.00  0.00     0.012 A 
HETATM   20  C   UNL     1       4.430   7.834  18.282  0.00  0.00     0.037 A 
HETATM   21  C   UNL     1       3.875   6.894  19.167  0.00  0.00     0.069 A 
HETATM   22  O   UNL     1       5.320  10.250  24.515  0.00  0.00    -0.266 OA
BRANCH  21  23
HETATM   23  O   UNL     1       3.318   5.691  18.819  0.00  0.00    -0.352 OA
BRANCH  23  24
HETATM   24  C   UNL     1       2.152   5.715  17.995  0.00  0.00     0.171 C 
HETATM   25  C   UNL     1       0.930   5.786  18.898  0.00  0.00     0.034 C 
ENDBRANCH  23  24
ENDBRANCH  21  23
ENDBRANCH   1  12
BRANCH   3  26
HETATM   26  N   UNL     1       9.534  13.445  22.869  0.00  0.00    -0.271 NA
HETATM   27  H   UNL     1      10.011  13.726  23.710  0.00  0.00     0.127 HD
HETATM   28  H   UNL     1       9.862  12.606  22.402  0.00  0.00     0.127 HD
ENDBRANCH   3  26
TORSDOF 4
ENDMDL
MODEL 9
REMARK VINA RESULT:    -7.294      2.060      2.514
REMARK INTER + INTRA:          -9.443
REMARK INTER:                  -8.787
REMARK INTRA:                  -0.656
REMARK UNBOUND:                -0.656
REMARK  4 active torsions:
REMARK  status: ('A' for Active; 'I' for Inactive)
REMARK    1  A    between atoms: C_2  and  O_3 
REMARK    2  A    between atoms: O_3  and  C_4 
REMARK       I    between atoms: N_11  and  C_12 
REMARK    3  A    between atoms: C_12  and  C_14 
REMARK    4  A    between atoms: C_16  and  N_17 
ROOT
HETATM    1  C   UNL     1       8.785  14.408  23.012  0.00  0.00     0.140 A 
HETATM    2  N   UNL     1       9.137  15.422  22.186  0.00  0.00    -0.212 NA
HETATM    3  C   UNL     1      10.117  15.167  21.323  0.00  0.00     0.200 A 
HETATM    4  N   UNL     1      10.843  14.054  21.290  0.00  0.00    -0.218 NA
HETATM    5  C   UNL     1      10.508  13.056  22.112  0.00  0.00     0.073 A 
HETATM    6  C   UNL     1      11.305  11.913  22.119  0.00  0.00     0.033 C 
HETATM    7  C   UNL     1      11.029  10.818  22.943  0.00  0.00     0.009 C 
HETATM    8  C   UNL     1       9.892  10.829  23.738  0.00  0.00    -0.061 C 
HETATM    9  C   UNL     1       9.576   9.720  24.694  0.00  0.00     0.048 C 
HETATM   10  C   UNL     1       9.072  11.962  23.713  0.00  0.00     0.023 C 
HETATM   11  C   UNL     1       9.412  13.132  22.973  0.00  0.00     0.028 A 
ENDROOT
BRANCH   1  12
HETATM   12  C   UNL     1       7.762  14.733  24.096  0.00  0.00     0.274 C 
HETATM   13  N   UNL     1       6.410  14.425  23.985  0.00  0.00    -0.338 N 
HETATM   14  C   UNL     1       5.521  14.816  25.087  0.00  0.00     0.165 A 
HETATM   15  C   UNL     1       5.688  13.713  22.928  0.00  0.00     0.165 A 
HETATM   16  C   UNL     1       4.190  14.267  24.697  0.00  0.00    -0.030 A 
HETATM   17  C   UNL     1       4.284  13.619  23.462  0.00  0.00    -0.032 A 
HETATM   18  C   UNL     1       2.995  14.312  25.404  0.00  0.00     0.046 A 
HETATM   19  C   UNL     1       3.174  12.988  22.920  0.00  0.00     0.012 A 
HETATM   20  C   UNL     1       1.965  13.014  23.641  0.00  0.00     0.037 A 
HETATM   21  C   UNL     1       1.865  13.686  24.872  0.00  0.00     0.069 A 
HETATM   22  O   UNL     1       8.127  15.323  25.116  0.00  0.00    -0.266 OA
BRANCH  21  23
HETATM   23  O   UNL     1       0.738  13.790  25.643  0.00  0.00    -0.352 OA
BRANCH  23  24
HETATM   24  C   UNL     1      -0.500  13.372  25.065  0.00  0.00     0.171 C 
HETATM   25  C   UNL     1      -0.983  12.138  25.811  0.00  0.00     0.034 C 
ENDBRANCH  23  24
ENDBRANCH  21  23
ENDBRANCH   1  12
BRANCH   3  26
HETATM   26  N   UNL     1      10.442  16.131  20.397  0.00  0.00    -0.271 NA
HETATM   27  H   UNL     1      10.192  17.052  20.715  0.00  0.00     0.127 HD
HETATM   28  H   UNL     1      11.393  15.989  20.071  0.00  0.00     0.127 HD
ENDBRANCH   3  26
TORSDOF 4
ENDMDL
