MODEL 1
REMARK VINA RESULT:   -10.652      0.000      0.000
REMARK INTER + INTRA:         -13.858
REMARK INTER:                 -12.982
REMARK INTRA:                  -0.876
REMARK UNBOUND:                -1.027
REMARK  4 active torsions:
REMARK  status: ('A' for Active; 'I' for Inactive)
REMARK    1  A    between atoms: N_1  and  C_2 
REMARK    2  A    between atoms: C_7  and  C_9 
REMARK       I    between atoms: C_9  and  N_11 
REMARK    3  A    between atoms: N_11  and  C_12 
REMARK    4  A    between atoms: C_24  and  C_25 
ROOT
HETATM    1  C   UNL     1       3.348  12.271  23.670  0.00  0.00     0.153 C 
HETATM    2  C   UNL     1       4.067  13.579  23.401  0.00  0.00    -0.020 A 
HETATM    3  C   UNL     1       3.590  14.872  23.598  0.00  0.00     0.010 A 
HETATM    4  C   UNL     1       4.484  15.938  23.501  0.00  0.00     0.001 A 
HETATM    5  C   UNL     1       5.835  15.700  23.246  0.00  0.00     0.001 A 
HETATM    6  C   UNL     1       6.305  14.396  23.047  0.00  0.00     0.013 A 
HETATM    7  C   UNL     1       5.424  13.322  23.081  0.00  0.00    -0.016 A 
HETATM    8  C   UNL     1       5.617  11.876  22.893  0.00  0.00    -0.003 A 
HETATM    9  C   UNL     1       4.356  11.251  23.166  0.00  0.00    -0.019 A 
HETATM   10  C   UNL     1       4.175   9.878  23.106  0.00  0.00     0.010 A 
HETATM   11  C   UNL     1       5.264   9.092  22.758  0.00  0.00     0.002 A 
HETATM   12  C   UNL     1       6.511   9.680  22.483  0.00  0.00     0.016 A 
HETATM   13  C   UNL     1       6.722  11.080  22.540  0.00  0.00     0.022 A 
ENDROOT
BRANCH   1  14
HETATM   14  N   UNL     1       1.994  12.150  23.163  0.00  0.00    -0.343 N 
HETATM   15  C   UNL     1       0.945  12.424  24.031  0.00  0.00     0.273 C 
HETATM   16  O   UNL     1       1.170  12.876  25.151  0.00  0.00    -0.266 OA
HETATM   17  H   UNL     1       1.809  11.776  22.237  0.00  0.00     0.163 HD
BRANCH  15  18
HETATM   18  C   UNL     1      -0.470  12.148  23.591  0.00  0.00     0.150 A 
HETATM   19  C   UNL     1      -1.298  11.318  24.337  0.00  0.00     0.086 A 
HETATM   20  C   UNL     1      -2.570  11.175  23.840  0.00  0.00     0.146 A 
HETATM   21 CL   UNL     1      -0.909  10.449  25.768  0.00  0.00    -0.080 Cl
HETATM   22  N   UNL     1      -3.002  11.756  22.706  0.00  0.00    -0.229 NA
HETATM   23  C   UNL     1      -2.120  12.501  22.032  0.00  0.00     0.199 A 
HETATM   24  N   UNL     1      -0.865  12.752  22.430  0.00  0.00    -0.211 NA
BRANCH  23  25
HETATM   25  N   UNL     1      -2.580  13.049  20.858  0.00  0.00    -0.271 NA
HETATM   26  H   UNL     1      -3.488  13.471  21.009  0.00  0.00     0.127 HD
HETATM   27  H   UNL     1      -1.878  13.602  20.392  0.00  0.00     0.127 HD
ENDBRANCH  23  25
ENDBRANCH  15  18
ENDBRANCH   1  14
BRANCH  13  28
HETATM   28  C   UNL     1       8.059  11.601  22.209  0.00  0.00     0.140 A 
HETATM   29  N   UNL     1       8.966  12.043  23.061  0.00  0.00    -0.227 NA
HETATM   30  C   UNL     1      10.085  12.362  22.332  0.00  0.00     0.103 A 
HETATM   31  C   UNL     1      11.351  12.776  22.748  0.00  0.00     0.150 A 
HETATM   32  C   UNL     1       9.835  12.219  20.975  0.00  0.00     0.065 A 
HETATM   33  N   UNL     1      12.311  13.069  21.830  0.00  0.00    -0.271 NA
HETATM   34  C   UNL     1      12.008  12.953  20.515  0.00  0.00     0.118 A 
HETATM   35  C   UNL     1      10.786  12.526  20.005  0.00  0.00     0.051 A 
HETATM   36  N   UNL     1       8.549  11.736  20.920  0.00  0.00    -0.338 N 
HETATM   37  H   UNL     1       8.056  11.475  20.081  0.00  0.00     0.167 HD
ENDBRANCH  13  28
TORSDOF 4
ENDMDL
MODEL 2
REMARK VINA RESULT:   -10.275      2.921      9.760
REMARK INTER + INTRA:         -13.405
REMARK INTER:                 -12.325
REMARK INTRA:                  -1.080
REMARK UNBOUND:                -1.027
REMARK  4 active torsions:
REMARK  status: ('A' for Active; 'I' for Inactive)
REMARK    1  A    between atoms: N_1  and  C_2 
REMARK    2  A    between atoms: C_7  and  C_9 
REMARK       I    between atoms: C_9  and  N_11 
REMARK    3  A    between atoms: N_11  and  C_12 
REMARK    4  A    between atoms: C_24  and  C_25 
ROOT
HETATM    1  C   UNL     1       6.658  12.998  23.432  0.00  0.00     0.153 C 
HETATM    2  C   UNL     1       5.909  11.688  23.278  0.00  0.00    -0.020 A 
HETATM    3  C   UNL     1       6.443  10.412  23.119  0.00  0.00     0.010 A 
HETATM    4  C   UNL     1       5.591   9.313  23.218  0.00  0.00     0.001 A 
HETATM    5  C   UNL     1       4.238   9.496  23.507  0.00  0.00     0.001 A 
HETATM    6  C   UNL     1       3.710  10.784  23.663  0.00  0.00     0.013 A 
HETATM    7  C   UNL     1       4.526  11.897  23.512  0.00  0.00    -0.016 A 
HETATM    8  C   UNL     1       4.258  13.341  23.595  0.00  0.00    -0.003 A 
HETATM    9  C   UNL     1       5.521  14.006  23.467  0.00  0.00    -0.019 A 
HETATM   10  C   UNL     1       5.649  15.385  23.523  0.00  0.00     0.010 A 
HETATM   11  C   UNL     1       4.497  16.139  23.701  0.00  0.00     0.002 A 
HETATM   12  C   UNL     1       3.245  15.512  23.827  0.00  0.00     0.016 A 
HETATM   13  C   UNL     1       3.090  14.104  23.775  0.00  0.00     0.022 A 
ENDROOT
BRANCH   1  14
HETATM   14  N   UNL     1       7.727  13.258  22.486  0.00  0.00    -0.343 N 
HETATM   15  C   UNL     1       9.036  13.102  22.922  0.00  0.00     0.273 C 
HETATM   16  O   UNL     1       9.267  12.636  24.035  0.00  0.00    -0.266 OA
HETATM   17  H   UNL     1       7.535  13.643  21.566  0.00  0.00     0.163 HD
BRANCH  15  18
HETATM   18  C   UNL     1      10.169  13.523  22.022  0.00  0.00     0.150 A 
HETATM   19  C   UNL     1      10.583  14.849  21.971  0.00  0.00     0.086 A 
HETATM   20  C   UNL     1      11.643  15.091  21.132  0.00  0.00     0.146 A 
HETATM   21 CL   UNL     1       9.913  16.196  22.802  0.00  0.00    -0.080 Cl
HETATM   22  N   UNL     1      12.239  14.144  20.383  0.00  0.00    -0.229 NA
HETATM   23  C   UNL     1      11.743  12.906  20.465  0.00  0.00     0.199 A 
HETATM   24  N   UNL     1      10.740  12.532  21.273  0.00  0.00    -0.211 NA
BRANCH  23  25
HETATM   25  N   UNL     1      12.347  11.970  19.659  0.00  0.00    -0.271 NA
HETATM   26  H   UNL     1      11.649  11.343  19.279  0.00  0.00     0.127 HD
HETATM   27  H   UNL     1      13.004  12.383  19.017  0.00  0.00     0.127 HD
ENDBRANCH  23  25
ENDBRANCH  15  18
ENDBRANCH   1  14
BRANCH  13  28
HETATM   28  C   UNL     1       1.732  13.545  23.891  0.00  0.00     0.140 A 
HETATM   29  N   UNL     1       0.878  13.337  22.905  0.00  0.00    -0.227 NA
HETATM   30  C   UNL     1      -0.231  12.739  23.450  0.00  0.00     0.103 A 
HETATM   31  C   UNL     1      -1.376  12.224  22.839  0.00  0.00     0.150 A 
HETATM   32  C   UNL     1      -0.115  12.670  24.830  0.00  0.00     0.065 A 
HETATM   33  N   UNL     1      -2.376  11.696  23.595  0.00  0.00    -0.271 NA
HETATM   34  C   UNL     1      -2.235  11.687  24.942  0.00  0.00     0.118 A 
HETATM   35  C   UNL     1      -1.124  12.154  25.639  0.00  0.00     0.051 A 
HETATM   36  N   UNL     1       1.134  13.184  25.087  0.00  0.00    -0.338 N 
HETATM   37  H   UNL     1       1.567  13.245  25.995  0.00  0.00     0.167 HD
ENDBRANCH  13  28
TORSDOF 4
ENDMDL
MODEL 3
REMARK VINA RESULT:   -10.072      3.052      9.657
REMARK INTER + INTRA:         -13.160
REMARK INTER:                 -12.193
REMARK INTRA:                  -0.967
REMARK UNBOUND:                -1.027
REMARK  4 active torsions:
REMARK  status: ('A' for Active; 'I' for Inactive)
REMARK    1  A    between atoms: N_1  and  C_2 
REMARK    2  A    between atoms: C_7  and  C_9 
REMARK       I    between atoms: C_9  and  N_11 
REMARK    3  A    between atoms: N_11  and  C_12 
REMARK    4  A    between atoms: C_24  and  C_25 
ROOT
HETATM    1  C   UNL     1       6.626  12.985  23.429  0.00  0.00     0.153 C 
HETATM    2  C   UNL     1       5.913  11.655  23.276  0.00  0.00    -0.020 A 
HETATM    3  C   UNL     1       6.480  10.393  23.125  0.00  0.00     0.010 A 
HETATM    4  C   UNL     1       5.656   9.272  23.224  0.00  0.00     0.001 A 
HETATM    5  C   UNL     1       4.298   9.422  23.505  0.00  0.00     0.001 A 
HETATM    6  C   UNL     1       3.736  10.696  23.653  0.00  0.00     0.013 A 
HETATM    7  C   UNL     1       4.524  11.829  23.501  0.00  0.00    -0.016 A 
HETATM    8  C   UNL     1       4.218  13.266  23.577  0.00  0.00    -0.003 A 
HETATM    9  C   UNL     1       5.464  13.963  23.453  0.00  0.00    -0.019 A 
HETATM   10  C   UNL     1       5.555  15.345  23.504  0.00  0.00     0.010 A 
HETATM   11  C   UNL     1       4.384  16.069  23.673  0.00  0.00     0.002 A 
HETATM   12  C   UNL     1       3.147  15.411  23.794  0.00  0.00     0.016 A 
HETATM   13  C   UNL     1       3.029  14.000  23.748  0.00  0.00     0.022 A 
ENDROOT
BRANCH   1  14
HETATM   14  N   UNL     1       7.694  13.268  22.488  0.00  0.00    -0.343 N 
HETATM   15  C   UNL     1       8.998  13.288  22.966  0.00  0.00     0.273 C 
HETATM   16  O   UNL     1       9.239  12.949  24.122  0.00  0.00    -0.266 OA
HETATM   17  H   UNL     1       7.494  13.548  21.532  0.00  0.00     0.163 HD
BRANCH  15  18
HETATM   18  C   UNL     1      10.111  13.742  22.057  0.00  0.00     0.150 A 
HETATM   19  C   UNL     1      11.216  12.932  21.827  0.00  0.00     0.086 A 
HETATM   20  C   UNL     1      12.142  13.454  20.956  0.00  0.00     0.146 A 
HETATM   21 CL   UNL     1      11.561  11.395  22.514  0.00  0.00    -0.080 Cl
HETATM   22  N   UNL     1      12.030  14.664  20.378  0.00  0.00    -0.229 NA
HETATM   23  C   UNL     1      10.953  15.390  20.695  0.00  0.00     0.199 A 
HETATM   24  N   UNL     1       9.960  14.980  21.497  0.00  0.00    -0.211 NA
BRANCH  23  25
HETATM   25  N   UNL     1      10.887  16.636  20.120  0.00  0.00    -0.271 NA
HETATM   26  H   UNL     1       9.934  16.834  19.839  0.00  0.00     0.127 HD
HETATM   27  H   UNL     1      11.370  17.336  20.661  0.00  0.00     0.127 HD
ENDBRANCH  23  25
ENDBRANCH  15  18
ENDBRANCH   1  14
BRANCH  13  28
HETATM   28  C   UNL     1       1.686  13.406  23.858  0.00  0.00     0.140 A 
HETATM   29  N   UNL     1       1.091  13.001  24.966  0.00  0.00    -0.227 NA
HETATM   30  C   UNL     1      -0.170  12.584  24.619  0.00  0.00     0.103 A 
HETATM   31  C   UNL     1      -1.236  12.159  25.415  0.00  0.00     0.150 A 
HETATM   32  C   UNL     1      -0.332  12.627  23.243  0.00  0.00     0.065 A 
HETATM   33  N   UNL     1      -2.401  11.759  24.840  0.00  0.00    -0.271 NA
HETATM   34  C   UNL     1      -2.499  11.780  23.489  0.00  0.00     0.118 A 
HETATM   35  C   UNL     1      -1.504  12.209  22.616  0.00  0.00     0.051 A 
HETATM   36  N   UNL     1       0.852  13.150  22.782  0.00  0.00    -0.338 N 
HETATM   37  H   UNL     1       1.065  13.361  21.819  0.00  0.00     0.167 HD
ENDBRANCH  13  28
TORSDOF 4
ENDMDL
MODEL 4
REMARK VINA RESULT:    -9.843      1.370      1.932
REMARK INTER + INTRA:         -12.884
REMARK INTER:                 -12.203
REMARK INTRA:                  -0.681
REMARK UNBOUND:                -1.027
REMARK  4 active torsions:
REMARK  status: ('A' for Active; 'I' for Inactive)
REMARK    1  A    between atoms: N_1  and  C_2 
REMARK    2  A    between atoms: C_7  and  C_9 
REMARK       I    between atoms: C_9  and  N_11 
REMARK    3  A    between atoms: N_11  and  C_12 
REMARK    4  A    between atoms: C_24  and  C_25 
ROOT
HETATM    1  C   UNL     1       3.569  12.305  24.045  0.00  0.00     0.153 C 
HETATM    2  C   UNL     1       4.281  13.553  23.561  0.00  0.00    -0.020 A 
HETATM    3  C   UNL     1       3.857  14.875  23.668  0.00  0.00     0.010 A 
HETATM    4  C   UNL     1       4.757  15.894  23.360  0.00  0.00     0.001 A 
HETATM    5  C   UNL     1       6.067  15.586  22.989  0.00  0.00     0.001 A 
HETATM    6  C   UNL     1       6.484  14.254  22.883  0.00  0.00     0.013 A 
HETATM    7  C   UNL     1       5.589  13.220  23.127  0.00  0.00    -0.016 A 
HETATM    8  C   UNL     1       5.729  11.756  23.076  0.00  0.00    -0.003 A 
HETATM    9  C   UNL     1       4.493  11.205  23.548  0.00  0.00    -0.019 A 
HETATM   10  C   UNL     1       4.277   9.840  23.657  0.00  0.00     0.010 A 
HETATM   11  C   UNL     1       5.304   8.986  23.281  0.00  0.00     0.002 A 
HETATM   12  C   UNL     1       6.525   9.501  22.811  0.00  0.00     0.016 A 
HETATM   13  C   UNL     1       6.771  10.891  22.694  0.00  0.00     0.022 A 
ENDROOT
BRANCH   1  14
HETATM   14  N   UNL     1       2.165  12.177  23.702  0.00  0.00    -0.343 N 
HETATM   15  C   UNL     1       1.226  12.669  24.600  0.00  0.00     0.273 C 
HETATM   16  O   UNL     1       1.588  13.304  25.588  0.00  0.00    -0.266 OA
HETATM   17  H   UNL     1       1.867  11.650  22.886  0.00  0.00     0.163 HD
BRANCH  15  18
HETATM   18  C   UNL     1      -0.237  12.404  24.358  0.00  0.00     0.150 A 
HETATM   19  C   UNL     1      -0.791  12.570  23.095  0.00  0.00     0.086 A 
HETATM   20  C   UNL     1      -2.128  12.267  23.006  0.00  0.00     0.146 A 
HETATM   21 CL   UNL     1      -0.014  13.126  21.666  0.00  0.00    -0.080 Cl
HETATM   22  N   UNL     1      -2.877  11.865  24.050  0.00  0.00    -0.229 NA
HETATM   23  C   UNL     1      -2.267  11.778  25.236  0.00  0.00     0.199 A 
HETATM   24  N   UNL     1      -0.962  12.006  25.447  0.00  0.00    -0.211 NA
BRANCH  23  25
HETATM   25  N   UNL     1      -3.066  11.403  26.289  0.00  0.00    -0.271 NA
HETATM   26  H   UNL     1      -3.055  12.122  27.002  0.00  0.00     0.127 HD
HETATM   27  H   UNL     1      -3.964  11.057  25.986  0.00  0.00     0.127 HD
ENDBRANCH  23  25
ENDBRANCH  15  18
ENDBRANCH   1  14
BRANCH  13  28
HETATM   28  C   UNL     1       8.074  11.330  22.167  0.00  0.00     0.140 A 
HETATM   29  N   UNL     1       8.472  11.284  20.908  0.00  0.00    -0.227 NA
HETATM   30  C   UNL     1       9.718  11.858  20.857  0.00  0.00     0.103 A 
HETATM   31  C   UNL     1      10.538  12.149  19.764  0.00  0.00     0.150 A 
HETATM   32  C   UNL     1      10.159  12.173  22.133  0.00  0.00     0.065 A 
HETATM   33  N   UNL     1      11.766  12.700  19.959  0.00  0.00    -0.271 NA
HETATM   34  C   UNL     1      12.170  12.954  21.227  0.00  0.00     0.118 A 
HETATM   35  C   UNL     1      11.416  12.722  22.374  0.00  0.00     0.051 A 
HETATM   36  N   UNL     1       9.104  11.833  22.945  0.00  0.00    -0.338 N 
HETATM   37  H   UNL     1       9.064  11.970  23.943  0.00  0.00     0.167 HD
ENDBRANCH  13  28
TORSDOF 4
ENDMDL
MODEL 5
REMARK VINA RESULT:    -9.290      2.063      3.687
REMARK INTER + INTRA:         -12.218
REMARK INTER:                 -11.395
REMARK INTRA:                  -0.824
REMARK UNBOUND:                -1.027
REMARK  4 active torsions:
REMARK  status: ('A' for Active; 'I' for Inactive)
REMARK    1  A    between atoms: N_1  and  C_2 
REMARK    2  A    between atoms: C_7  and  C_9 
REMARK       I    between atoms: C_9  and  N_11 
REMARK    3  A    between atoms: N_11  and  C_12 
REMARK    4  A    between atoms: C_24  and  C_25 
ROOT
HETATM    1  C   UNL     1       3.372  12.499  22.926  0.00  0.00     0.153 C 
HETATM    2  C   UNL     1       4.445  11.484  22.579  0.00  0.00    -0.020 A 
HETATM    3  C   UNL     1       4.285  10.125  22.322  0.00  0.00     0.010 A 
HETATM    4  C   UNL     1       5.364   9.410  21.804  0.00  0.00     0.001 A 
HETATM    5  C   UNL     1       6.565  10.061  21.518  0.00  0.00     0.001 A 
HETATM    6  C   UNL     1       6.717  11.428  21.781  0.00  0.00     0.013 A 
HETATM    7  C   UNL     1       5.677  12.149  22.352  0.00  0.00    -0.016 A 
HETATM    8  C   UNL     1       5.552  13.560  22.752  0.00  0.00    -0.003 A 
HETATM    9  C   UNL     1       4.195  13.752  23.172  0.00  0.00    -0.019 A 
HETATM   10  C   UNL     1       3.713  14.980  23.600  0.00  0.00     0.010 A 
HETATM   11  C   UNL     1       4.593  16.052  23.624  0.00  0.00     0.002 A 
HETATM   12  C   UNL     1       5.930  15.890  23.219  0.00  0.00     0.016 A 
HETATM   13  C   UNL     1       6.445  14.646  22.777  0.00  0.00     0.022 A 
ENDROOT
BRANCH   1  14
HETATM   14  N   UNL     1       2.429  12.127  23.963  0.00  0.00    -0.343 N 
HETATM   15  C   UNL     1       1.108  12.533  23.822  0.00  0.00     0.273 C 
HETATM   16  O   UNL     1       0.736  13.078  22.785  0.00  0.00    -0.266 OA
HETATM   17  H   UNL     1       2.738  11.676  24.820  0.00  0.00     0.163 HD
BRANCH  15  18
HETATM   18  C   UNL     1       0.141  12.310  24.956  0.00  0.00     0.150 A 
HETATM   19  C   UNL     1      -0.721  11.221  24.952  0.00  0.00     0.086 A 
HETATM   20  C   UNL     1      -1.529  11.121  26.059  0.00  0.00     0.146 A 
HETATM   21 CL   UNL     1      -0.905  10.024  23.733  0.00  0.00    -0.080 Cl
HETATM   22  N   UNL     1      -1.529  12.009  27.071  0.00  0.00    -0.229 NA
HETATM   23  C   UNL     1      -0.697  13.049  26.964  0.00  0.00     0.199 A 
HETATM   24  N   UNL     1       0.169  13.240  25.958  0.00  0.00    -0.211 NA
BRANCH  23  25
HETATM   25  N   UNL     1      -0.747  13.958  27.994  0.00  0.00    -0.271 NA
HETATM   26  H   UNL     1       0.191  14.225  28.263  0.00  0.00     0.127 HD
HETATM   27  H   UNL     1      -1.413  14.696  27.822  0.00  0.00     0.127 HD
ENDBRANCH  23  25
ENDBRANCH  15  18
ENDBRANCH   1  14
BRANCH  13  28
HETATM   28  C   UNL     1       7.866  14.572  22.399  0.00  0.00     0.140 A 
HETATM   29  N   UNL     1       8.780  13.773  22.920  0.00  0.00    -0.227 NA
HETATM   30  C   UNL     1       9.945  13.985  22.225  0.00  0.00     0.103 A 
HETATM   31  C   UNL     1      11.179  13.335  22.304  0.00  0.00     0.150 A 
HETATM   32  C   UNL     1       9.787  15.022  21.318  0.00  0.00     0.065 A 
HETATM   33  N   UNL     1      12.217  13.743  21.525  0.00  0.00    -0.271 NA
HETATM   34  C   UNL     1      12.026  14.786  20.683  0.00  0.00     0.118 A 
HETATM   35  C   UNL     1      10.830  15.478  20.516  0.00  0.00     0.051 A 
HETATM   36  N   UNL     1       8.465  15.377  21.443  0.00  0.00    -0.338 N 
HETATM   37  H   UNL     1       7.992  16.078  20.895  0.00  0.00     0.167 HD
ENDBRANCH  13  28
TORSDOF 4
ENDMDL
MODEL 6
REMARK VINA RESULT:    -9.277      2.648      3.959
REMARK INTER + INTRA:         -12.202
REMARK INTER:                 -11.433
REMARK INTRA:                  -0.770
REMARK UNBOUND:                -1.027
REMARK  4 active torsions:
REMARK  status: ('A' for Active; 'I' for Inactive)
REMARK    1  A    between atoms: N_1  and  C_2 
REMARK    2  A    between atoms: C_7  and  C_9 
REMARK       I    between atoms: C_9  and  N_11 
REMARK    3  A    between atoms: N_11  and  C_12 
REMARK    4  A    between atoms: C_24  and  C_25 
ROOT
HETATM    1  C   UNL     1       3.128  13.259  23.219  0.00  0.00     0.153 C 
HETATM    2  C   UNL     1       4.275  12.421  22.687  0.00  0.00    -0.020 A 
HETATM    3  C   UNL     1       4.234  11.455  21.685  0.00  0.00     0.010 A 
HETATM    4  C   UNL     1       5.437  10.956  21.187  0.00  0.00     0.001 A 
HETATM    5  C   UNL     1       6.653  11.447  21.665  0.00  0.00     0.001 A 
HETATM    6  C   UNL     1       6.683  12.417  22.675  0.00  0.00     0.013 A 
HETATM    7  C   UNL     1       5.499  12.888  23.228  0.00  0.00    -0.016 A 
HETATM    8  C   UNL     1       5.223  13.867  24.290  0.00  0.00    -0.003 A 
HETATM    9  C   UNL     1       3.800  14.031  24.342  0.00  0.00    -0.019 A 
HETATM   10  C   UNL     1       3.180  14.905  25.222  0.00  0.00     0.010 A 
HETATM   11  C   UNL     1       3.983  15.635  26.087  0.00  0.00     0.002 A 
HETATM   12  C   UNL     1       5.381  15.491  26.059  0.00  0.00     0.016 A 
HETATM   13  C   UNL     1       6.037  14.607  25.167  0.00  0.00     0.022 A 
ENDROOT
BRANCH   1  14
HETATM   14  N   UNL     1       1.904  12.557  23.555  0.00  0.00    -0.343 N 
HETATM   15  C   UNL     1       0.709  13.264  23.503  0.00  0.00     0.273 C 
HETATM   16  O   UNL     1       0.688  14.411  23.062  0.00  0.00    -0.266 OA
HETATM   17  H   UNL     1       1.923  11.609  23.921  0.00  0.00     0.163 HD
BRANCH  15  18
HETATM   18  C   UNL     1      -0.555  12.617  24.006  0.00  0.00     0.150 A 
HETATM   19  C   UNL     1      -1.606  12.340  23.140  0.00  0.00     0.086 A 
HETATM   20  C   UNL     1      -2.686  11.723  23.723  0.00  0.00     0.146 A 
HETATM   21 CL   UNL     1      -1.713  12.698  21.463  0.00  0.00    -0.080 Cl
HETATM   22  N   UNL     1      -2.763  11.424  25.033  0.00  0.00    -0.229 NA
HETATM   23  C   UNL     1      -1.722  11.769  25.795  0.00  0.00     0.199 A 
HETATM   24  N   UNL     1      -0.594  12.337  25.344  0.00  0.00    -0.211 NA
BRANCH  23  25
HETATM   25  N   UNL     1      -1.846  11.486  27.135  0.00  0.00    -0.271 NA
HETATM   26  H   UNL     1      -2.243  10.562  27.254  0.00  0.00     0.127 HD
HETATM   27  H   UNL     1      -1.011  11.708  27.654  0.00  0.00     0.127 HD
ENDBRANCH  23  25
ENDBRANCH  15  18
ENDBRANCH   1  14
BRANCH  13  28
HETATM   28  C   UNL     1       7.505  14.508  25.232  0.00  0.00     0.140 A 
HETATM   29  N   UNL     1       8.210  13.812  26.106  0.00  0.00    -0.227 NA
HETATM   30  C   UNL     1       9.531  13.945  25.757  0.00  0.00     0.103 A 
HETATM   31  C   UNL     1      10.674  13.340  26.283  0.00  0.00     0.150 A 
HETATM   32  C   UNL     1       9.666  14.835  24.702  0.00  0.00     0.065 A 
HETATM   33  N   UNL     1      11.902  13.651  25.789  0.00  0.00    -0.271 NA
HETATM   34  C   UNL     1      11.988  14.557  24.785  0.00  0.00     0.118 A 
HETATM   35  C   UNL     1      10.907  15.192  24.180  0.00  0.00     0.051 A 
HETATM   36  N   UNL     1       8.373  15.178  24.386  0.00  0.00    -0.338 N 
HETATM   37  H   UNL     1       8.095  15.782  23.628  0.00  0.00     0.167 HD
ENDBRANCH  13  28
TORSDOF 4
ENDMDL
MODEL 7
REMARK VINA RESULT:    -9.137      3.167      9.284
REMARK INTER + INTRA:         -12.034
REMARK INTER:                 -11.485
REMARK INTRA:                  -0.549
REMARK UNBOUND:                -1.027
REMARK  4 active torsions:
REMARK  status: ('A' for Active; 'I' for Inactive)
REMARK    1  A    between atoms: N_1  and  C_2 
REMARK    2  A    between atoms: C_7  and  C_9 
REMARK       I    between atoms: C_9  and  N_11 
REMARK    3  A    between atoms: N_11  and  C_12 
REMARK    4  A    between atoms: C_24  and  C_25 
ROOT
HETATM    1  C   UNL     1       6.566  13.434  22.274  0.00  0.00     0.153 C 
HETATM    2  C   UNL     1       5.575  14.305  23.025  0.00  0.00    -0.020 A 
HETATM    3  C   UNL     1       5.638  15.678  23.241  0.00  0.00     0.010 A 
HETATM    4  C   UNL     1       4.517  16.325  23.762  0.00  0.00     0.001 A 
HETATM    5  C   UNL     1       3.350  15.607  24.024  0.00  0.00     0.001 A 
HETATM    6  C   UNL     1       3.298  14.225  23.804  0.00  0.00     0.013 A 
HETATM    7  C   UNL     1       4.419  13.548  23.342  0.00  0.00    -0.016 A 
HETATM    8  C   UNL     1       4.666  12.129  23.043  0.00  0.00    -0.003 A 
HETATM    9  C   UNL     1       5.980  12.047  22.479  0.00  0.00    -0.019 A 
HETATM   10  C   UNL     1       6.539  10.851  22.056  0.00  0.00     0.010 A 
HETATM   11  C   UNL     1       5.785   9.694  22.200  0.00  0.00     0.002 A 
HETATM   12  C   UNL     1       4.494   9.746  22.752  0.00  0.00     0.016 A 
HETATM   13  C   UNL     1       3.901  10.957  23.189  0.00  0.00     0.022 A 
ENDROOT
BRANCH   1  14
HETATM   14  N   UNL     1       7.968  13.603  22.605  0.00  0.00    -0.343 N 
HETATM   15  C   UNL     1       8.756  14.360  21.747  0.00  0.00     0.273 C 
HETATM   16  O   UNL     1       8.242  14.968  20.811  0.00  0.00    -0.266 OA
HETATM   17  H   UNL     1       8.392  13.099  23.379  0.00  0.00     0.163 HD
BRANCH  15  18
HETATM   18  C   UNL     1      10.245  14.417  21.967  0.00  0.00     0.150 A 
HETATM   19  C   UNL     1      10.778  15.089  23.061  0.00  0.00     0.086 A 
HETATM   20  C   UNL     1      12.147  15.038  23.158  0.00  0.00     0.146 A 
HETATM   21 CL   UNL     1       9.936  15.979  24.265  0.00  0.00    -0.080 Cl
HETATM   22  N   UNL     1      12.940  14.418  22.264  0.00  0.00    -0.229 NA
HETATM   23  C   UNL     1      12.340  13.837  21.221  0.00  0.00     0.199 A 
HETATM   24  N   UNL     1      11.014  13.781  21.032  0.00  0.00    -0.211 NA
BRANCH  23  25
HETATM   25  N   UNL     1      13.179  13.246  20.306  0.00  0.00    -0.271 NA
HETATM   26  H   UNL     1      13.859  12.671  20.786  0.00  0.00     0.127 HD
HETATM   27  H   UNL     1      12.677  12.834  19.535  0.00  0.00     0.127 HD
ENDBRANCH  23  25
ENDBRANCH  15  18
ENDBRANCH   1  14
BRANCH  13  28
HETATM   28  C   UNL     1       2.553  10.904  23.778  0.00  0.00     0.140 A 
HETATM   29  N   UNL     1       2.097   9.997  24.624  0.00  0.00    -0.227 NA
HETATM   30  C   UNL     1       0.821  10.370  24.968  0.00  0.00     0.103 A 
HETATM   31  C   UNL     1      -0.065   9.820  25.897  0.00  0.00     0.150 A 
HETATM   32  C   UNL     1       0.427  11.481  24.237  0.00  0.00     0.065 A 
HETATM   33  N   UNL     1      -1.309  10.348  26.050  0.00  0.00    -0.271 NA
HETATM   34  C   UNL     1      -1.663  11.409  25.285  0.00  0.00     0.118 A 
HETATM   35  C   UNL     1      -0.843  12.039  24.354  0.00  0.00     0.051 A 
HETATM   36  N   UNL     1       1.537  11.802  23.492  0.00  0.00    -0.338 N 
HETATM   37  H   UNL     1       1.619  12.593  22.873  0.00  0.00     0.167 HD
ENDBRANCH  13  28
TORSDOF 4
ENDMDL
MODEL 8
REMARK VINA RESULT:    -9.051      3.357      9.440
REMARK INTER + INTRA:         -11.930
REMARK INTER:                 -11.174
REMARK INTRA:                  -0.756
REMARK UNBOUND:                -1.027
REMARK  4 active torsions:
REMARK  status: ('A' for Active; 'I' for Inactive)
REMARK    1  A    between atoms: N_1  and  C_2 
REMARK    2  A    between atoms: C_7  and  C_9 
REMARK       I    between atoms: C_9  and  N_11 
REMARK    3  A    between atoms: N_11  and  C_12 
REMARK    4  A    between atoms: C_24  and  C_25 
ROOT
HETATM    1  C   UNL     1       6.498  13.015  23.515  0.00  0.00     0.153 C 
HETATM    2  C   UNL     1       5.467  14.095  23.781  0.00  0.00    -0.020 A 
HETATM    3  C   UNL     1       5.649  15.474  23.762  0.00  0.00     0.010 A 
HETATM    4  C   UNL     1       4.525  16.299  23.814  0.00  0.00     0.001 A 
HETATM    5  C   UNL     1       3.246  15.742  23.848  0.00  0.00     0.001 A 
HETATM    6  C   UNL     1       3.073  14.352  23.868  0.00  0.00     0.013 A 
HETATM    7  C   UNL     1       4.178  13.511  23.876  0.00  0.00    -0.016 A 
HETATM    8  C   UNL     1       4.307  12.045  23.915  0.00  0.00    -0.003 A 
HETATM    9  C   UNL     1       5.702  11.749  23.781  0.00  0.00    -0.019 A 
HETATM   10  C   UNL     1       6.191  10.451  23.754  0.00  0.00     0.010 A 
HETATM   11  C   UNL     1       5.281   9.411  23.873  0.00  0.00     0.002 A 
HETATM   12  C   UNL     1       3.907   9.674  24.009  0.00  0.00     0.016 A 
HETATM   13  C   UNL     1       3.384  10.991  24.037  0.00  0.00     0.022 A 
ENDROOT
BRANCH   1  14
HETATM   14  N   UNL     1       7.770  13.140  24.204  0.00  0.00    -0.343 N 
HETATM   15  C   UNL     1       8.893  13.454  23.450  0.00  0.00     0.273 C 
HETATM   16  O   UNL     1       8.780  13.741  22.260  0.00  0.00    -0.266 OA
HETATM   17  H   UNL     1       7.862  12.902  25.187  0.00  0.00     0.163 HD
BRANCH  15  18
HETATM   18  C   UNL     1      10.252  13.426  24.101  0.00  0.00     0.150 A 
HETATM   19  C   UNL     1      10.962  14.601  24.316  0.00  0.00     0.086 A 
HETATM   20  C   UNL     1      12.173  14.436  24.944  0.00  0.00     0.146 A 
HETATM   21 CL   UNL     1      10.518  16.199  23.870  0.00  0.00    -0.080 Cl
HETATM   22  N   UNL     1      12.672  13.240  25.308  0.00  0.00    -0.229 NA
HETATM   23  C   UNL     1      11.937  12.163  25.020  0.00  0.00     0.199 A 
HETATM   24  N   UNL     1      10.724  12.191  24.448  0.00  0.00    -0.211 NA
BRANCH  23  25
HETATM   25  N   UNL     1      12.491  10.954  25.370  0.00  0.00    -0.271 NA
HETATM   26  H   UNL     1      11.779  10.234  25.360  0.00  0.00     0.127 HD
HETATM   27  H   UNL     1      13.351  10.769  24.878  0.00  0.00     0.127 HD
ENDBRANCH  23  25
ENDBRANCH  15  18
ENDBRANCH   1  14
BRANCH  13  28
HETATM   28  C   UNL     1       1.932  11.163  24.209  0.00  0.00     0.140 A 
HETATM   29  N   UNL     1       1.180  10.624  25.152  0.00  0.00    -0.227 NA
HETATM   30  C   UNL     1      -0.094  11.107  24.979  0.00  0.00     0.103 A 
HETATM   31  C   UNL     1      -1.242  10.934  25.755  0.00  0.00     0.150 A 
HETATM   32  C   UNL     1      -0.166  11.883  23.832  0.00  0.00     0.065 A 
HETATM   33  N   UNL     1      -2.420  11.492  25.366  0.00  0.00    -0.271 NA
HETATM   34  C   UNL     1      -2.451  12.209  24.217  0.00  0.00     0.118 A 
HETATM   35  C   UNL     1      -1.357  12.456  23.392  0.00  0.00     0.051 A 
HETATM   36  N   UNL     1       1.125  11.907  23.362  0.00  0.00    -0.338 N 
HETATM   37  H   UNL     1       1.447  12.421  22.557  0.00  0.00     0.167 HD
ENDBRANCH  13  28
TORSDOF 4
ENDMDL
MODEL 9
REMARK VINA RESULT:    -8.913      1.777      3.570
REMARK INTER + INTRA:         -11.763
REMARK INTER:                 -10.736
REMARK INTRA:                  -1.027
REMARK UNBOUND:                -1.027
REMARK  4 active torsions:
REMARK  status: ('A' for Active; 'I' for Inactive)
REMARK    1  A    between atoms: N_1  and  C_2 
REMARK    2  A    between atoms: C_7  and  C_9 
REMARK       I    between atoms: C_9  and  N_11 
REMARK    3  A    between atoms: N_11  and  C_12 
REMARK    4  A    between atoms: C_24  and  C_25 
ROOT
HETATM    1  C   UNL     1       3.316  12.557  22.632  0.00  0.00     0.153 C 
HETATM    2  C   UNL     1       4.407  11.530  22.398  0.00  0.00    -0.020 A 
HETATM    3  C   UNL     1       4.262  10.199  22.017  0.00  0.00     0.010 A 
HETATM    4  C   UNL     1       5.398   9.483  21.639  0.00  0.00     0.001 A 
HETATM    5  C   UNL     1       6.645  10.108  21.612  0.00  0.00     0.001 A 
HETATM    6  C   UNL     1       6.781  11.447  21.999  0.00  0.00     0.013 A 
HETATM    7  C   UNL     1       5.675  12.164  22.436  0.00  0.00    -0.016 A 
HETATM    8  C   UNL     1       5.517  13.547  22.913  0.00  0.00    -0.003 A 
HETATM    9  C   UNL     1       4.113  13.759  23.109  0.00  0.00    -0.019 A 
HETATM   10  C   UNL     1       3.593  14.970  23.538  0.00  0.00     0.010 A 
HETATM   11  C   UNL     1       4.481  16.006  23.793  0.00  0.00     0.002 A 
HETATM   12  C   UNL     1       5.864  15.823  23.612  0.00  0.00     0.016 A 
HETATM   13  C   UNL     1       6.418  14.595  23.172  0.00  0.00     0.022 A 
ENDROOT
BRANCH   1  14
HETATM   14  N   UNL     1       2.198  12.147  23.462  0.00  0.00    -0.343 N 
HETATM   15  C   UNL     1       0.934  12.621  23.136  0.00  0.00     0.273 C 
HETATM   16  O   UNL     1       0.761  13.261  22.101  0.00  0.00    -0.266 OA
HETATM   17  H   UNL     1       2.342  11.619  24.317  0.00  0.00     0.163 HD
BRANCH  15  18
HETATM   18  C   UNL     1      -0.219  12.355  24.069  0.00  0.00     0.150 A 
HETATM   19  C   UNL     1      -0.204  12.836  25.372  0.00  0.00     0.086 A 
HETATM   20  C   UNL     1      -1.329  12.547  26.106  0.00  0.00     0.146 A 
HETATM   21 CL   UNL     1       1.047  13.711  26.161  0.00  0.00    -0.080 Cl
HETATM   22  N   UNL     1      -2.368  11.831  25.637  0.00  0.00    -0.229 NA
HETATM   23  C   UNL     1      -2.272  11.373  24.386  0.00  0.00     0.199 A 
HETATM   24  N   UNL     1      -1.249  11.618  23.554  0.00  0.00    -0.211 NA
BRANCH  23  25
HETATM   25  N   UNL     1      -3.331  10.613  23.948  0.00  0.00    -0.271 NA
HETATM   26  H   UNL     1      -2.989   9.760  23.524  0.00  0.00     0.127 HD
HETATM   27  H   UNL     1      -4.058  10.532  24.642  0.00  0.00     0.127 HD
ENDBRANCH  23  25
ENDBRANCH  15  18
ENDBRANCH   1  14
BRANCH  13  28
HETATM   28  C   UNL     1       7.881  14.496  23.038  0.00  0.00     0.140 A 
HETATM   29  N   UNL     1       8.586  14.672  21.935  0.00  0.00    -0.227 NA
HETATM   30  C   UNL     1       9.910  14.558  22.278  0.00  0.00     0.103 A 
HETATM   31  C   UNL     1      11.064  14.753  21.517  0.00  0.00     0.150 A 
HETATM   32  C   UNL     1      10.035  14.192  23.610  0.00  0.00     0.065 A 
HETATM   33  N   UNL     1      12.290  14.550  22.070  0.00  0.00    -0.271 NA
HETATM   34  C   UNL     1      12.361  14.154  23.364  0.00  0.00     0.118 A 
HETATM   35  C   UNL     1      11.271  13.958  24.207  0.00  0.00     0.051 A 
HETATM   36  N   UNL     1       8.741  14.160  24.071  0.00  0.00    -0.338 N 
HETATM   37  H   UNL     1       8.461  13.970  25.021  0.00  0.00     0.167 HD
ENDBRANCH  13  28
TORSDOF 4
ENDMDL
