MODEL 1
REMARK minimizedAffinity -9.90145683
REMARK minimizedRMSD -1
REMARK  2 active torsions:
REMARK  status: ('A' for Active; 'I' for Inactive)
REMARK    1  A    between atoms: C_9  and  N_10 
REMARK    2  A    between atoms: C_12  and  C_13 
REMARK       I    between atoms: C_13  and  N_15 
ROOT
HETATM    1  C   UNL     1       4.170  16.154  25.544  0.00  0.00     0.048 C 
HETATM    2  C   UNL     1       4.748  14.937  24.884  0.00  0.00    -0.061 A 
HETATM    3  C   UNL     1       3.934  13.879  24.460  0.00  0.00     0.023 A 
HETATM    4  C   UNL     1       6.119  14.858  24.657  0.00  0.00     0.009 A 
HETATM    5  C   UNL     1       6.661  13.734  24.030  0.00  0.00     0.033 A 
HETATM    6  C   UNL     1       5.871  12.676  23.610  0.00  0.00     0.073 A 
HETATM    7  C   UNL     1       4.490  12.737  23.811  0.00  0.00     0.028 A 
HETATM    8  N   UNL     1       6.490  11.626  23.058  0.00  0.00    -0.218 NA
HETATM    9  C   UNL     1       5.746  10.596  22.671  0.00  0.00     0.200 A 
HETATM   10  N   UNL     1       4.426  10.556  22.739  0.00  0.00    -0.212 NA
HETATM   11  C   UNL     1       3.811  11.600  23.348  0.00  0.00     0.140 A 
ENDROOT
BRANCH  11  12
HETATM   12  C   UNL     1       2.329  11.384  23.583  0.00  0.00     0.273 C 
HETATM   13  O   UNL     1       1.495  11.977  22.903  0.00  0.00    -0.266 OA
HETATM   14  N   UNL     1       1.961  10.505  24.607  0.00  0.00    -0.342 N 
HETATM   15  C   UNL     1       0.575  10.192  24.946  0.00  0.00     0.139 C 
HETATM   16  C   UNL     1       2.886   9.820  25.493  0.00  0.00     0.161 C 
HETATM   17  C   UNL     1       0.616   9.925  26.455  0.00  0.00     0.056 C 
HETATM   18  C   UNL     1       2.039   9.460  26.656  0.00  0.00    -0.056 C 
HETATM   19  C   UNL     1      -0.359   8.962  27.082  0.00  0.00    -0.020 C 
HETATM   20  C   UNL     1       2.418   8.729  27.719  0.00  0.00    -0.018 C 
HETATM   21  C   UNL     1       1.407   8.265  28.729  0.00  0.00     0.054 C 
HETATM   22  C   UNL     1       0.005   8.229  28.156  0.00  0.00    -0.026 C 
ENDBRANCH  11  12
BRANCH   9  23
HETATM   23  N   UNL     1       6.390   9.470  22.215  0.00  0.00    -0.271 NA
HETATM   24  H   UNL     1       7.318   9.689  21.886  0.00  0.00     0.127 HD
HETATM   25  H   UNL     1       5.790   8.920  21.618  0.00  0.00     0.127 HD
ENDBRANCH   9  23
TORSDOF 2
ENDMDL
MODEL 2
REMARK minimizedAffinity -9.20401192
REMARK minimizedRMSD -1
REMARK  2 active torsions:
REMARK  status: ('A' for Active; 'I' for Inactive)
REMARK    1  A    between atoms: C_9  and  N_10 
REMARK    2  A    between atoms: C_12  and  C_13 
REMARK       I    between atoms: C_13  and  N_15 
ROOT
HETATM    1  C   UNL     1       1.100   8.585  28.742  0.00  0.00     0.048 C 
HETATM    2  C   UNL     1       0.289   9.342  27.733  0.00  0.00    -0.061 A 
HETATM    3  C   UNL     1       0.832   9.736  26.503  0.00  0.00     0.023 A 
HETATM    4  C   UNL     1      -1.045   9.641  28.000  0.00  0.00     0.009 A 
HETATM    5  C   UNL     1      -1.809  10.333  27.059  0.00  0.00     0.033 A 
HETATM    6  C   UNL     1      -1.286  10.735  25.841  0.00  0.00     0.073 A 
HETATM    7  C   UNL     1       0.045  10.433  25.540  0.00  0.00     0.028 A 
HETATM    8  N   UNL     1      -2.086  11.430  25.024  0.00  0.00    -0.218 NA
HETATM    9  C   UNL     1      -1.589  11.840  23.863  0.00  0.00     0.200 A 
HETATM   10  N   UNL     1      -0.372  11.561  23.427  0.00  0.00    -0.212 NA
HETATM   11  C   UNL     1       0.450  10.904  24.282  0.00  0.00     0.140 A 
ENDROOT
BRANCH  11  12
HETATM   12  C   UNL     1       1.886  10.814  23.802  0.00  0.00     0.273 C 
HETATM   13  O   UNL     1       2.334   9.756  23.368  0.00  0.00    -0.266 OA
HETATM   14  N   UNL     1       2.668  11.969  23.893  0.00  0.00    -0.342 N 
HETATM   15  C   UNL     1       4.063  12.039  23.465  0.00  0.00     0.139 C 
HETATM   16  C   UNL     1       2.228  13.235  24.455  0.00  0.00     0.161 C 
HETATM   17  C   UNL     1       4.690  13.067  24.414  0.00  0.00     0.056 C 
HETATM   18  C   UNL     1       3.501  13.922  24.785  0.00  0.00    -0.056 C 
HETATM   19  C   UNL     1       5.844  13.920  23.954  0.00  0.00    -0.020 C 
HETATM   20  C   UNL     1       3.629  15.174  25.255  0.00  0.00    -0.018 C 
HETATM   21  C   UNL     1       4.983  15.819  25.355  0.00  0.00     0.054 C 
HETATM   22  C   UNL     1       5.991  15.176  24.425  0.00  0.00    -0.026 C 
ENDBRANCH  11  12
BRANCH   9  23
HETATM   23  N   UNL     1      -2.370  12.654  23.077  0.00  0.00    -0.271 NA
HETATM   24  H   UNL     1      -3.349  12.543  23.299  0.00  0.00     0.127 HD
HETATM   25  H   UNL     1      -2.094  12.606  22.108  0.00  0.00     0.127 HD
ENDBRANCH   9  23
TORSDOF 2
ENDMDL
MODEL 3
REMARK minimizedAffinity -9.12507915
REMARK minimizedRMSD -1
REMARK  2 active torsions:
REMARK  status: ('A' for Active; 'I' for Inactive)
REMARK    1  A    between atoms: C_9  and  N_10 
REMARK    2  A    between atoms: C_12  and  C_13 
REMARK       I    between atoms: C_13  and  N_15 
ROOT
HETATM    1  C   UNL     1       4.357  16.264  25.752  0.00  0.00     0.048 C 
HETATM    2  C   UNL     1       4.846  15.052  25.016  0.00  0.00    -0.061 A 
HETATM    3  C   UNL     1       4.051  13.906  24.884  0.00  0.00     0.023 A 
HETATM    4  C   UNL     1       6.105  15.063  24.421  0.00  0.00     0.009 A 
HETATM    5  C   UNL     1       6.559  13.943  23.723  0.00  0.00     0.033 A 
HETATM    6  C   UNL     1       5.789  12.800  23.588  0.00  0.00     0.073 A 
HETATM    7  C   UNL     1       4.514  12.768  24.160  0.00  0.00     0.028 A 
HETATM    8  N   UNL     1       6.330  11.764  22.936  0.00  0.00    -0.218 NA
HETATM    9  C   UNL     1       5.610  10.655  22.819  0.00  0.00     0.200 A 
HETATM   10  N   UNL     1       4.368  10.517  23.251  0.00  0.00    -0.212 NA
HETATM   11  C   UNL     1       3.846  11.551  23.958  0.00  0.00     0.140 A 
ENDROOT
BRANCH  11  12
HETATM   12  C   UNL     1       2.510  11.238  24.604  0.00  0.00     0.273 C 
HETATM   13  O   UNL     1       2.445  10.477  25.566  0.00  0.00    -0.266 OA
HETATM   14  N   UNL     1       1.372  11.832  24.049  0.00  0.00    -0.342 N 
HETATM   15  C   UNL     1       0.020  11.630  24.566  0.00  0.00     0.139 C 
HETATM   16  C   UNL     1       1.363  12.687  22.876  0.00  0.00     0.161 C 
HETATM   17  C   UNL     1      -0.870  11.735  23.322  0.00  0.00     0.056 C 
HETATM   18  C   UNL     1      -0.047  12.622  22.418  0.00  0.00    -0.056 C 
HETATM   19  C   UNL     1      -2.281  12.248  23.440  0.00  0.00    -0.020 C 
HETATM   20  C   UNL     1      -0.586  13.321  21.404  0.00  0.00    -0.018 C 
HETATM   21  C   UNL     1      -2.071  13.314  21.175  0.00  0.00     0.054 C 
HETATM   22  C   UNL     1      -2.839  12.942  22.426  0.00  0.00    -0.026 C 
ENDBRANCH  11  12
BRANCH   9  23
HETATM   23  N   UNL     1       6.208   9.552  22.257  0.00  0.00    -0.271 NA
HETATM   24  H   UNL     1       6.987   9.819  21.673  0.00  0.00     0.127 HD
HETATM   25  H   UNL     1       5.524   8.916  21.875  0.00  0.00     0.127 HD
ENDBRANCH   9  23
TORSDOF 2
ENDMDL
MODEL 4
REMARK minimizedAffinity -8.62554646
REMARK minimizedRMSD -1
REMARK  2 active torsions:
REMARK  status: ('A' for Active; 'I' for Inactive)
REMARK    1  A    between atoms: C_9  and  N_10 
REMARK    2  A    between atoms: C_12  and  C_13 
REMARK       I    between atoms: C_13  and  N_15 
ROOT
HETATM    1  C   UNL     1       3.833   6.220  26.890  0.00  0.00     0.048 C 
HETATM    2  C   UNL     1       4.048   6.598  25.455  0.00  0.00    -0.061 A 
HETATM    3  C   UNL     1       3.677   7.857  24.966  0.00  0.00     0.023 A 
HETATM    4  C   UNL     1       4.656   5.696  24.585  0.00  0.00     0.009 A 
HETATM    5  C   UNL     1       4.872   6.048  23.252  0.00  0.00     0.033 A 
HETATM    6  C   UNL     1       4.506   7.286  22.750  0.00  0.00     0.073 A 
HETATM    7  C   UNL     1       3.909   8.216  23.605  0.00  0.00     0.028 A 
HETATM    8  N   UNL     1       4.717   7.512  21.448  0.00  0.00    -0.218 NA
HETATM    9  C   UNL     1       4.349   8.687  20.951  0.00  0.00     0.200 A 
HETATM   10  N   UNL     1       3.841   9.678  21.663  0.00  0.00    -0.212 NA
HETATM   11  C   UNL     1       3.581   9.423  22.970  0.00  0.00     0.140 A 
ENDROOT
BRANCH  11  12
HETATM   12  C   UNL     1       2.802  10.524  23.664  0.00  0.00     0.273 C 
HETATM   13  O   UNL     1       1.586  10.432  23.810  0.00  0.00    -0.266 OA
HETATM   14  N   UNL     1       3.520  11.639  24.106  0.00  0.00    -0.342 N 
HETATM   15  C   UNL     1       2.910  12.774  24.795  0.00  0.00     0.139 C 
HETATM   16  C   UNL     1       4.944  11.848  23.911  0.00  0.00     0.161 C 
HETATM   17  C   UNL     1       3.771  13.970  24.372  0.00  0.00     0.056 C 
HETATM   18  C   UNL     1       5.099  13.314  24.075  0.00  0.00    -0.056 C 
HETATM   19  C   UNL     1       3.946  15.145  25.298  0.00  0.00    -0.020 C 
HETATM   20  C   UNL     1       6.258  13.996  24.071  0.00  0.00    -0.018 C 
HETATM   21  C   UNL     1       6.291  15.450  24.450  0.00  0.00     0.054 C 
HETATM   22  C   UNL     1       5.099  15.845  25.298  0.00  0.00    -0.026 C 
ENDBRANCH  11  12
BRANCH   9  23
HETATM   23  N   UNL     1       4.454   8.875  19.593  0.00  0.00    -0.271 NA
HETATM   24  H   UNL     1       5.131   8.244  19.190  0.00  0.00     0.127 HD
HETATM   25  H   UNL     1       4.519   9.855  19.361  0.00  0.00     0.127 HD
ENDBRANCH   9  23
TORSDOF 2
ENDMDL
MODEL 5
REMARK minimizedAffinity -8.38894939
REMARK minimizedRMSD -1
REMARK  2 active torsions:
REMARK  status: ('A' for Active; 'I' for Inactive)
REMARK    1  A    between atoms: C_9  and  N_10 
REMARK    2  A    between atoms: C_12  and  C_13 
REMARK       I    between atoms: C_13  and  N_15 
ROOT
HETATM    1  C   UNL     1       7.655  15.197  24.864  0.00  0.00     0.048 C 
HETATM    2  C   UNL     1       6.193  14.877  24.753  0.00  0.00    -0.061 A 
HETATM    3  C   UNL     1       5.750  13.635  24.280  0.00  0.00     0.023 A 
HETATM    4  C   UNL     1       5.246  15.816  25.153  0.00  0.00     0.009 A 
HETATM    5  C   UNL     1       3.886  15.518  25.066  0.00  0.00     0.033 A 
HETATM    6  C   UNL     1       3.430  14.298  24.595  0.00  0.00     0.073 A 
HETATM    7  C   UNL     1       4.359  13.331  24.202  0.00  0.00     0.028 A 
HETATM    8  N   UNL     1       2.105  14.124  24.510  0.00  0.00    -0.218 NA
HETATM    9  C   UNL     1       1.657  12.967  24.039  0.00  0.00     0.200 A 
HETATM   10  N   UNL     1       2.425  11.945  23.700  0.00  0.00    -0.212 NA
HETATM   11  C   UNL     1       3.766  12.148  23.738  0.00  0.00     0.140 A 
ENDROOT
BRANCH  11  12
HETATM   12  C   UNL     1       4.572  11.015  23.132  0.00  0.00     0.273 C 
HETATM   13  O   UNL     1       5.592  11.249  22.489  0.00  0.00    -0.266 OA
HETATM   14  N   UNL     1       4.096   9.714  23.320  0.00  0.00    -0.342 N 
HETATM   15  C   UNL     1       4.766   8.524  22.802  0.00  0.00     0.139 C 
HETATM   16  C   UNL     1       2.867   9.365  24.010  0.00  0.00     0.161 C 
HETATM   17  C   UNL     1       3.619   7.546  22.521  0.00  0.00     0.056 C 
HETATM   18  C   UNL     1       2.566   8.003  23.504  0.00  0.00    -0.056 C 
HETATM   19  C   UNL     1       3.845   6.061  22.627  0.00  0.00    -0.020 C 
HETATM   20  C   UNL     1       1.564   7.207  23.912  0.00  0.00    -0.018 C 
HETATM   21  C   UNL     1       1.493   5.774  23.464  0.00  0.00     0.054 C 
HETATM   22  C   UNL     1       2.844   5.248  23.025  0.00  0.00    -0.026 C 
ENDBRANCH  11  12
BRANCH   9  23
HETATM   23  N   UNL     1       0.303  12.832  23.839  0.00  0.00    -0.271 NA
HETATM   24  H   UNL     1      -0.216  13.483  24.410  0.00  0.00     0.127 HD
HETATM   25  H   UNL     1       0.024  11.863  23.848  0.00  0.00     0.127 HD
ENDBRANCH   9  23
TORSDOF 2
ENDMDL
MODEL 6
REMARK minimizedAffinity -7.94464874
REMARK minimizedRMSD -1
REMARK  2 active torsions:
REMARK  status: ('A' for Active; 'I' for Inactive)
REMARK    1  A    between atoms: C_9  and  N_10 
REMARK    2  A    between atoms: C_12  and  C_13 
REMARK       I    between atoms: C_13  and  N_15 
ROOT
HETATM    1  C   UNL     1       1.205  13.783  24.181  0.00  0.00     0.048 C 
HETATM    2  C   UNL     1       2.652  13.394  24.101  0.00  0.00    -0.061 A 
HETATM    3  C   UNL     1       3.050  12.160  23.571  0.00  0.00     0.023 A 
HETATM    4  C   UNL     1       3.633  14.282  24.535  0.00  0.00     0.009 A 
HETATM    5  C   UNL     1       4.981  13.931  24.450  0.00  0.00     0.033 A 
HETATM    6  C   UNL     1       5.391  12.713  23.934  0.00  0.00     0.073 A 
HETATM    7  C   UNL     1       4.429  11.809  23.476  0.00  0.00     0.028 A 
HETATM    8  N   UNL     1       6.704  12.453  23.934  0.00  0.00    -0.218 NA
HETATM    9  C   UNL     1       7.108  11.280  23.463  0.00  0.00     0.200 A 
HETATM   10  N   UNL     1       6.310  10.367  22.936  0.00  0.00    -0.212 NA
HETATM   11  C   UNL     1       4.977  10.614  22.988  0.00  0.00     0.140 A 
ENDROOT
BRANCH  11  12
HETATM   12  C   UNL     1       4.120   9.435  22.569  0.00  0.00     0.273 C 
HETATM   13  O   UNL     1       4.156   9.015  21.415  0.00  0.00    -0.266 OA
HETATM   14  N   UNL     1       3.285   8.871  23.538  0.00  0.00    -0.342 N 
HETATM   15  C   UNL     1       2.408   7.729  23.285  0.00  0.00     0.139 C 
HETATM   16  C   UNL     1       3.139   9.353  24.900  0.00  0.00     0.161 C 
HETATM   17  C   UNL     1       1.214   7.967  24.216  0.00  0.00     0.056 C 
HETATM   18  C   UNL     1       1.834   8.787  25.324  0.00  0.00    -0.056 C 
HETATM   19  C   UNL     1       0.444   6.800  24.778  0.00  0.00    -0.020 C 
HETATM   20  C   UNL     1       1.289   8.879  26.549  0.00  0.00    -0.018 C 
HETATM   21  C   UNL     1       0.060   8.088  26.900  0.00  0.00     0.054 C 
HETATM   22  C   UNL     1      -0.118   6.882  26.001  0.00  0.00    -0.026 C 
ENDBRANCH  11  12
BRANCH   9  23
HETATM   23  N   UNL     1       8.442  10.964  23.573  0.00  0.00    -0.271 NA
HETATM   24  H   UNL     1       9.007  11.796  23.660  0.00  0.00     0.127 HD
HETATM   25  H   UNL     1       8.714  10.273  22.890  0.00  0.00     0.127 HD
ENDBRANCH   9  23
TORSDOF 2
ENDMDL
MODEL 7
REMARK minimizedAffinity -7.90892601
REMARK minimizedRMSD -1
REMARK  2 active torsions:
REMARK  status: ('A' for Active; 'I' for Inactive)
REMARK    1  A    between atoms: C_9  and  N_10 
REMARK    2  A    between atoms: C_12  and  C_13 
REMARK       I    between atoms: C_13  and  N_15 
ROOT
HETATM    1  C   UNL     1       3.299  15.669  25.415  0.00  0.00     0.048 C 
HETATM    2  C   UNL     1       4.264  14.689  24.816  0.00  0.00    -0.061 A 
HETATM    3  C   UNL     1       3.840  13.441  24.342  0.00  0.00     0.023 A 
HETATM    4  C   UNL     1       5.609  15.027  24.696  0.00  0.00     0.009 A 
HETATM    5  C   UNL     1       6.509  14.125  24.126  0.00  0.00     0.033 A 
HETATM    6  C   UNL     1       6.108  12.885  23.658  0.00  0.00     0.073 A 
HETATM    7  C   UNL     1       4.761  12.526  23.750  0.00  0.00     0.028 A 
HETATM    8  N   UNL     1       7.054  12.075  23.167  0.00  0.00    -0.218 NA
HETATM    9  C   UNL     1       6.685  10.875  22.736  0.00  0.00     0.200 A 
HETATM   10  N   UNL     1       5.437  10.440  22.701  0.00  0.00    -0.212 NA
HETATM   11  C   UNL     1       4.492  11.244  23.249  0.00  0.00     0.140 A 
ENDROOT
BRANCH  11  12
HETATM   12  C   UNL     1       3.129  10.591  23.371  0.00  0.00     0.273 C 
HETATM   13  O   UNL     1       2.105  11.234  23.154  0.00  0.00    -0.266 OA
HETATM   14  N   UNL     1       3.092   9.247  23.755  0.00  0.00    -0.342 N 
HETATM   15  C   UNL     1       1.857   8.482  23.908  0.00  0.00     0.139 C 
HETATM   16  C   UNL     1       4.252   8.441  24.092  0.00  0.00     0.161 C 
HETATM   17  C   UNL     1       2.179   7.478  25.021  0.00  0.00     0.056 C 
HETATM   18  C   UNL     1       3.677   7.332  24.891  0.00  0.00    -0.056 C 
HETATM   19  C   UNL     1       1.507   6.130  25.045  0.00  0.00    -0.020 C 
HETATM   20  C   UNL     1       4.344   6.266  25.366  0.00  0.00    -0.018 C 
HETATM   21  C   UNL     1       3.604   5.114  25.985  0.00  0.00     0.054 C 
HETATM   22  C   UNL     1       2.160   5.053  25.529  0.00  0.00    -0.026 C 
ENDBRANCH  11  12
BRANCH   9  23
HETATM   23  N   UNL     1       7.670   9.998  22.344  0.00  0.00    -0.271 NA
HETATM   24  H   UNL     1       8.512  10.490  22.084  0.00  0.00     0.127 HD
HETATM   25  H   UNL     1       7.311   9.302  21.708  0.00  0.00     0.127 HD
ENDBRANCH   9  23
TORSDOF 2
ENDMDL
MODEL 8
REMARK minimizedAffinity -7.86637068
REMARK minimizedRMSD -1
REMARK  2 active torsions:
REMARK  status: ('A' for Active; 'I' for Inactive)
REMARK    1  A    between atoms: C_9  and  N_10 
REMARK    2  A    between atoms: C_12  and  C_13 
REMARK       I    between atoms: C_13  and  N_15 
ROOT
HETATM    1  C   UNL     1       6.739  14.644  24.400  0.00  0.00     0.048 C 
HETATM    2  C   UNL     1       5.274  14.324  24.409  0.00  0.00    -0.061 A 
HETATM    3  C   UNL     1       4.798  13.066  24.018  0.00  0.00     0.023 A 
HETATM    4  C   UNL     1       4.358  15.280  24.841  0.00  0.00     0.009 A 
HETATM    5  C   UNL     1       2.995  14.982  24.866  0.00  0.00     0.033 A 
HETATM    6  C   UNL     1       2.507  13.745  24.477  0.00  0.00     0.073 A 
HETATM    7  C   UNL     1       3.405  12.762  24.055  0.00  0.00     0.028 A 
HETATM    8  N   UNL     1       1.180  13.572  24.497  0.00  0.00    -0.218 NA
HETATM    9  C   UNL     1       0.698  12.398  24.105  0.00  0.00     0.200 A 
HETATM   10  N   UNL     1       1.440  11.363  23.751  0.00  0.00    -0.212 NA
HETATM   11  C   UNL     1       2.780  11.563  23.682  0.00  0.00     0.140 A 
ENDROOT
BRANCH  11  12
HETATM   12  C   UNL     1       3.540  10.406  23.062  0.00  0.00     0.273 C 
HETATM   13  O   UNL     1       3.961  10.480  21.911  0.00  0.00    -0.266 OA
HETATM   14  N   UNL     1       3.718   9.261  23.845  0.00  0.00    -0.342 N 
HETATM   15  C   UNL     1       4.433   8.072  23.388  0.00  0.00     0.139 C 
HETATM   16  C   UNL     1       3.194   9.075  25.186  0.00  0.00     0.161 C 
HETATM   17  C   UNL     1       3.733   6.918  24.115  0.00  0.00     0.056 C 
HETATM   18  C   UNL     1       3.200   7.601  25.353  0.00  0.00    -0.056 C 
HETATM   19  C   UNL     1       4.499   5.671  24.476  0.00  0.00    -0.020 C 
HETATM   20  C   UNL     1       2.883   6.926  26.472  0.00  0.00    -0.018 C 
HETATM   21  C   UNL     1       3.126   5.446  26.568  0.00  0.00     0.054 C 
HETATM   22  C   UNL     1       4.184   4.978  25.590  0.00  0.00    -0.026 C 
ENDBRANCH  11  12
BRANCH   9  23
HETATM   23  N   UNL     1      -0.667  12.260  24.010  0.00  0.00    -0.271 NA
HETATM   24  H   UNL     1      -1.142  12.933  24.592  0.00  0.00     0.127 HD
HETATM   25  H   UNL     1      -0.944  11.292  24.078  0.00  0.00     0.127 HD
ENDBRANCH   9  23
TORSDOF 2
ENDMDL
MODEL 9
REMARK minimizedAffinity -7.78184414
REMARK minimizedRMSD -1
REMARK  2 active torsions:
REMARK  status: ('A' for Active; 'I' for Inactive)
REMARK    1  A    between atoms: C_9  and  N_10 
REMARK    2  A    between atoms: C_12  and  C_13 
REMARK       I    between atoms: C_13  and  N_15 
ROOT
HETATM    1  C   UNL     1       5.640   9.598  22.167  0.00  0.00     0.048 C 
HETATM    2  C   UNL     1       5.514  10.940  22.823  0.00  0.00    -0.061 A 
HETATM    3  C   UNL     1       4.281  11.415  23.289  0.00  0.00     0.023 A 
HETATM    4  C   UNL     1       6.646  11.731  23.006  0.00  0.00     0.009 A 
HETATM    5  C   UNL     1       6.537  12.975  23.629  0.00  0.00     0.033 A 
HETATM    6  C   UNL     1       5.324  13.462  24.089  0.00  0.00     0.073 A 
HETATM    7  C   UNL     1       4.175  12.682  23.934  0.00  0.00     0.028 A 
HETATM    8  N   UNL     1       5.317  14.685  24.635  0.00  0.00    -0.218 NA
HETATM    9  C   UNL     1       4.157  15.171  25.060  0.00  0.00     0.200 A 
HETATM   10  N   UNL     1       3.012  14.510  25.037  0.00  0.00    -0.212 NA
HETATM   11  C   UNL     1       3.017  13.295  24.435  0.00  0.00     0.140 A 
ENDROOT
BRANCH  11  12
HETATM   12  C   UNL     1       1.635  12.697  24.253  0.00  0.00     0.273 C 
HETATM   13  O   UNL     1       0.767  13.308  23.635  0.00  0.00    -0.266 OA
HETATM   14  N   UNL     1       1.395  11.446  24.829  0.00  0.00    -0.342 N 
HETATM   15  C   UNL     1       0.118  10.742  24.733  0.00  0.00     0.139 C 
HETATM   16  C   UNL     1       2.348  10.695  25.627  0.00  0.00     0.161 C 
HETATM   17  C   UNL     1       0.032   9.952  26.044  0.00  0.00     0.056 C 
HETATM   18  C   UNL     1       1.489   9.759  26.393  0.00  0.00    -0.056 C 
HETATM   19  C   UNL     1      -0.711   8.642  26.093  0.00  0.00    -0.020 C 
HETATM   20  C   UNL     1       1.912   8.786  27.218  0.00  0.00    -0.018 C 
HETATM   21  C   UNL     1       0.945   7.779  27.773  0.00  0.00     0.054 C 
HETATM   22  C   UNL     1      -0.304   7.660  26.924  0.00  0.00    -0.026 C 
ENDBRANCH  11  12
BRANCH   9  23
HETATM   23  N   UNL     1       4.127  16.471  25.509  0.00  0.00    -0.271 NA
HETATM   24  H   UNL     1       5.043  16.774  25.804  0.00  0.00     0.127 HD
HETATM   25  H   UNL     1       3.350  16.626  26.133  0.00  0.00     0.127 HD
ENDBRANCH   9  23
TORSDOF 2
ENDMDL
