MODEL 1
REMARK VINA RESULT:    -7.598      0.000      0.000
REMARK INTER + INTRA:         -10.926
REMARK INTER:                  -9.725
REMARK INTRA:                  -1.201
REMARK UNBOUND:                -1.330
REMARK  6 active torsions:
REMARK  status: ('A' for Active; 'I' for Inactive)
REMARK    1  A    between atoms: O_1  and  C_2 
REMARK    2  A    between atoms: C_2  and  C_4 
REMARK    3  A    between atoms: C_6  and  C_7 
REMARK    4  A    between atoms: N_13  and  C_14 
REMARK    5  A    between atoms: C_21  and  O_22 
REMARK    6  A    between atoms: C_24  and  O_25 
ROOT
HETATM    1  C   UNL     1       6.055  10.871  21.454  0.00  0.00     0.071 C 
HETATM    2  C   UNL     1       6.832  11.661  22.323  0.00  0.00     0.039 C 
HETATM    3  C   UNL     1       6.482  11.772  23.669  0.00  0.00     0.046 C 
HETATM    4  C   UNL     1       5.375  11.026  24.130  0.00  0.00     0.082 C 
HETATM    5  C   UNL     1       4.529  10.351  23.253  0.00  0.00     0.075 C 
HETATM    6  C   UNL     1       4.871  10.283  21.911  0.00  0.00     0.085 C 
ENDROOT
BRANCH   3   7
HETATM    7  C   UNL     1       7.300  12.525  24.652  0.00  0.00     0.172 A 
HETATM    8  N   UNL     1       8.304  11.930  25.248  0.00  0.00    -0.151 NA
HETATM    9  N   UNL     1       8.857  12.886  26.035  0.00  0.00    -0.226 N 
HETATM   10  H   UNL     1       9.565  12.692  26.734  0.00  0.00     0.194 HD
HETATM   11  C   UNL     1       8.142  14.069  25.951  0.00  0.00     0.349 A 
HETATM   12  O   UNL     1       8.322  15.037  26.670  0.00  0.00    -0.245 OA
HETATM   13  N   UNL     1       7.167  13.848  24.987  0.00  0.00    -0.241 N 
BRANCH  13  14
HETATM   14  C   UNL     1       6.132  14.790  24.831  0.00  0.00     0.084 A 
HETATM   15  C   UNL     1       5.265  15.008  25.917  0.00  0.00     0.033 A 
HETATM   16  C   UNL     1       4.093  15.751  25.765  0.00  0.00     0.002 A 
HETATM   17  C   UNL     1       3.758  16.266  24.517  0.00  0.00     0.003 A 
HETATM   18  C   UNL     1       4.622  16.081  23.437  0.00  0.00     0.044 A 
HETATM   19  C   UNL     1       5.809  15.363  23.599  0.00  0.00     0.143 A 
HETATM   20  F   UNL     1       6.581  15.141  22.522  0.00  0.00    -0.204 F 
ENDBRANCH  13  14
ENDBRANCH   3   7
BRANCH   4  21
HETATM   21  O   UNL     1       5.087  10.842  25.459  0.00  0.00    -0.360 OA
HETATM   22  H   UNL     1       4.107  10.814  25.548  0.00  0.00     0.217 HD
ENDBRANCH   4  21
BRANCH   1  23
HETATM   23  C   UNL     1       6.587  10.625  20.083  0.00  0.00     0.179 C 
HETATM   24  O   UNL     1       5.880  10.269  19.166  0.00  0.00    -0.646 OA
BRANCH  23  25
HETATM   25  O   UNL     1       7.884  10.963  19.930  0.00  0.00    -0.773 OA
HETATM   26  H   UNL     1       8.025  11.646  19.233  0.00  0.00     0.167 HD
ENDBRANCH  23  25
ENDBRANCH   1  23
BRANCH   6  27
HETATM   27  O   UNL     1       4.074   9.573  21.054  0.00  0.00    -0.360 OA
HETATM   28  H   UNL     1       3.706  10.192  20.391  0.00  0.00     0.217 HD
ENDBRANCH   6  27
TORSDOF 6
ENDMDL
MODEL 2
REMARK VINA RESULT:    -7.588      1.442      1.765
REMARK INTER + INTRA:         -10.914
REMARK INTER:                  -9.614
REMARK INTRA:                  -1.300
REMARK UNBOUND:                -1.330
REMARK  6 active torsions:
REMARK  status: ('A' for Active; 'I' for Inactive)
REMARK    1  A    between atoms: O_1  and  C_2 
REMARK    2  A    between atoms: C_2  and  C_4 
REMARK    3  A    between atoms: C_6  and  C_7 
REMARK    4  A    between atoms: N_13  and  C_14 
REMARK    5  A    between atoms: C_21  and  O_22 
REMARK    6  A    between atoms: C_24  and  O_25 
ROOT
HETATM    1  C   UNL     1       5.395  10.468  21.130  0.00  0.00     0.071 C 
HETATM    2  C   UNL     1       6.249  11.500  21.565  0.00  0.00     0.039 C 
HETATM    3  C   UNL     1       6.537  11.644  22.922  0.00  0.00     0.046 C 
HETATM    4  C   UNL     1       5.999  10.695  23.819  0.00  0.00     0.082 C 
HETATM    5  C   UNL     1       5.053   9.756  23.413  0.00  0.00     0.075 C 
HETATM    6  C   UNL     1       4.749   9.653  22.064  0.00  0.00     0.085 C 
ENDROOT
BRANCH   3   7
HETATM    7  C   UNL     1       7.488  12.661  23.438  0.00  0.00     0.172 A 
HETATM    8  N   UNL     1       8.771  12.393  23.462  0.00  0.00    -0.151 NA
HETATM    9  N   UNL     1       9.352  13.521  23.939  0.00  0.00    -0.226 N 
HETATM   10  H   UNL     1      10.326  13.574  24.213  0.00  0.00     0.194 HD
HETATM   11  C   UNL     1       8.397  14.473  24.257  0.00  0.00     0.349 A 
HETATM   12  O   UNL     1       8.628  15.513  24.850  0.00  0.00    -0.245 OA
HETATM   13  N   UNL     1       7.183  13.931  23.857  0.00  0.00    -0.241 N 
BRANCH  13  14
HETATM   14  C   UNL     1       5.987  14.563  24.250  0.00  0.00     0.084 A 
HETATM   15  C   UNL     1       5.347  15.404  23.322  0.00  0.00     0.033 A 
HETATM   16  C   UNL     1       4.291  16.232  23.709  0.00  0.00     0.002 A 
HETATM   17  C   UNL     1       3.879  16.250  25.038  0.00  0.00     0.003 A 
HETATM   18  C   UNL     1       4.487  15.400  25.963  0.00  0.00     0.044 A 
HETATM   19  C   UNL     1       5.522  14.551  25.567  0.00  0.00     0.143 A 
HETATM   20  F   UNL     1       6.134  13.802  26.498  0.00  0.00    -0.204 F 
ENDBRANCH  13  14
ENDBRANCH   3   7
BRANCH   4  21
HETATM   21  O   UNL     1       6.409  10.568  25.122  0.00  0.00    -0.360 OA
HETATM   22  H   UNL     1       6.009  11.309  25.632  0.00  0.00     0.217 HD
ENDBRANCH   4  21
BRANCH   1  23
HETATM   23  C   UNL     1       5.286  10.237  19.661  0.00  0.00     0.179 C 
HETATM   24  O   UNL     1       4.218  10.158  19.094  0.00  0.00    -0.646 OA
BRANCH  23  25
HETATM   25  O   UNL     1       6.469  10.260  19.013  0.00  0.00    -0.773 OA
HETATM   26  H   UNL     1       7.187  10.684  19.536  0.00  0.00     0.167 HD
ENDBRANCH  23  25
ENDBRANCH   1  23
BRANCH   6  27
HETATM   27  O   UNL     1       3.863   8.694  21.651  0.00  0.00    -0.360 OA
HETATM   28  H   UNL     1       3.517   8.233  22.442  0.00  0.00     0.217 HD
ENDBRANCH   6  27
TORSDOF 6
ENDMDL
MODEL 3
REMARK VINA RESULT:    -7.545      2.305      3.330
REMARK INTER + INTRA:         -10.860
REMARK INTER:                  -9.554
REMARK INTRA:                  -1.306
REMARK UNBOUND:                -1.330
REMARK  6 active torsions:
REMARK  status: ('A' for Active; 'I' for Inactive)
REMARK    1  A    between atoms: O_1  and  C_2 
REMARK    2  A    between atoms: C_2  and  C_4 
REMARK    3  A    between atoms: C_6  and  C_7 
REMARK    4  A    between atoms: N_13  and  C_14 
REMARK    5  A    between atoms: C_21  and  O_22 
REMARK    6  A    between atoms: C_24  and  O_25 
ROOT
HETATM    1  C   UNL     1       7.807  12.188  20.605  0.00  0.00     0.071 C 
HETATM    2  C   UNL     1       7.842  12.469  21.984  0.00  0.00     0.039 C 
HETATM    3  C   UNL     1       8.268  13.719  22.433  0.00  0.00     0.046 C 
HETATM    4  C   UNL     1       8.599  14.694  21.467  0.00  0.00     0.082 C 
HETATM    5  C   UNL     1       8.692  14.381  20.112  0.00  0.00     0.075 C 
HETATM    6  C   UNL     1       8.301  13.121  19.687  0.00  0.00     0.085 C 
ENDROOT
BRANCH   3   7
HETATM    7  C   UNL     1       8.256  14.105  23.867  0.00  0.00     0.172 A 
HETATM    8  N   UNL     1       9.365  14.047  24.562  0.00  0.00    -0.151 NA
HETATM    9  N   UNL     1       9.026  14.496  25.795  0.00  0.00    -0.226 N 
HETATM   10  H   UNL     1       9.638  14.430  26.600  0.00  0.00     0.194 HD
HETATM   11  C   UNL     1       7.673  14.784  25.861  0.00  0.00     0.349 A 
HETATM   12  O   UNL     1       7.073  15.052  26.888  0.00  0.00    -0.245 OA
HETATM   13  N   UNL     1       7.188  14.597  24.574  0.00  0.00    -0.241 N 
BRANCH  13  14
HETATM   14  C   UNL     1       5.796  14.593  24.359  0.00  0.00     0.084 A 
HETATM   15  C   UNL     1       5.194  15.779  23.900  0.00  0.00     0.033 A 
HETATM   16  C   UNL     1       3.805  15.919  23.879  0.00  0.00     0.002 A 
HETATM   17  C   UNL     1       2.998  14.884  24.342  0.00  0.00     0.003 A 
HETATM   18  C   UNL     1       3.582  13.692  24.774  0.00  0.00     0.044 A 
HETATM   19  C   UNL     1       4.970  13.543  24.765  0.00  0.00     0.143 A 
HETATM   20  F   UNL     1       5.501  12.412  25.257  0.00  0.00    -0.204 F 
ENDBRANCH  13  14
ENDBRANCH   3   7
BRANCH   4  21
HETATM   21  O   UNL     1       8.777  16.022  21.761  0.00  0.00    -0.360 OA
HETATM   22  H   UNL     1       9.517  16.352  21.203  0.00  0.00     0.217 HD
ENDBRANCH   4  21
BRANCH   1  23
HETATM   23  C   UNL     1       7.154  10.918  20.175  0.00  0.00     0.179 C 
HETATM   24  O   UNL     1       6.605  10.802  19.101  0.00  0.00    -0.646 OA
BRANCH  23  25
HETATM   25  O   UNL     1       7.349   9.888  21.023  0.00  0.00    -0.773 OA
HETATM   26  H   UNL     1       6.948  10.037  21.911  0.00  0.00     0.167 HD
ENDBRANCH  23  25
ENDBRANCH   1  23
BRANCH   6  27
HETATM   27  O   UNL     1       8.337  12.826  18.350  0.00  0.00    -0.360 OA
HETATM   28  H   UNL     1       7.428  12.611  18.058  0.00  0.00     0.217 HD
ENDBRANCH   6  27
TORSDOF 6
ENDMDL
MODEL 4
REMARK VINA RESULT:    -7.498      1.590      2.927
REMARK INTER + INTRA:         -10.800
REMARK INTER:                  -9.580
REMARK INTRA:                  -1.220
REMARK UNBOUND:                -1.330
REMARK  6 active torsions:
REMARK  status: ('A' for Active; 'I' for Inactive)
REMARK    1  A    between atoms: O_1  and  C_2 
REMARK    2  A    between atoms: C_2  and  C_4 
REMARK    3  A    between atoms: C_6  and  C_7 
REMARK    4  A    between atoms: N_13  and  C_14 
REMARK    5  A    between atoms: C_21  and  O_22 
REMARK    6  A    between atoms: C_24  and  O_25 
ROOT
HETATM    1  C   UNL     1       6.115  10.956  21.368  0.00  0.00     0.071 C 
HETATM    2  C   UNL     1       6.645  11.661  22.466  0.00  0.00     0.039 C 
HETATM    3  C   UNL     1       7.813  12.409  22.318  0.00  0.00     0.046 C 
HETATM    4  C   UNL     1       8.398  12.481  21.034  0.00  0.00     0.082 C 
HETATM    5  C   UNL     1       7.954  11.684  19.981  0.00  0.00     0.075 C 
HETATM    6  C   UNL     1       6.813  10.915  20.157  0.00  0.00     0.085 C 
ENDROOT
BRANCH   3   7
HETATM    7  C   UNL     1       8.381  13.236  23.412  0.00  0.00     0.172 A 
HETATM    8  N   UNL     1       9.630  13.064  23.770  0.00  0.00    -0.151 NA
HETATM    9  N   UNL     1       9.842  13.983  24.744  0.00  0.00    -0.226 N 
HETATM   10  H   UNL     1      10.673  14.000  25.324  0.00  0.00     0.194 HD
HETATM   11  C   UNL     1       8.683  14.691  25.015  0.00  0.00     0.349 A 
HETATM   12  O   UNL     1       8.547  15.463  25.949  0.00  0.00    -0.245 OA
HETATM   13  N   UNL     1       7.749  14.248  24.088  0.00  0.00    -0.241 N 
BRANCH  13  14
HETATM   14  C   UNL     1       6.399  14.615  24.245  0.00  0.00     0.084 A 
HETATM   15  C   UNL     1       5.854  15.542  23.338  0.00  0.00     0.033 A 
HETATM   16  C   UNL     1       4.603  16.119  23.562  0.00  0.00     0.002 A 
HETATM   17  C   UNL     1       3.889  15.796  24.712  0.00  0.00     0.003 A 
HETATM   18  C   UNL     1       4.405  14.858  25.607  0.00  0.00     0.044 A 
HETATM   19  C   UNL     1       5.643  14.259  25.365  0.00  0.00     0.143 A 
HETATM   20  F   UNL     1       6.143  13.417  26.283  0.00  0.00    -0.204 F 
ENDBRANCH  13  14
ENDBRANCH   3   7
BRANCH   4  21
HETATM   21  O   UNL     1       9.380  13.377  20.699  0.00  0.00    -0.360 OA
HETATM   22  H   UNL     1       8.943  14.156  20.287  0.00  0.00     0.217 HD
ENDBRANCH   4  21
BRANCH   1  23
HETATM   23  C   UNL     1       4.764  10.344  21.528  0.00  0.00     0.179 C 
HETATM   24  O   UNL     1       4.409   9.815  22.559  0.00  0.00    -0.646 OA
BRANCH  23  25
HETATM   25  O   UNL     1       3.940  10.553  20.481  0.00  0.00    -0.773 OA
HETATM   26  H   UNL     1       3.222   9.881  20.415  0.00  0.00     0.167 HD
ENDBRANCH  23  25
ENDBRANCH   1  23
BRANCH   6  27
HETATM   27  O   UNL     1       6.339  10.173  19.108  0.00  0.00    -0.360 OA
HETATM   28  H   UNL     1       6.885   9.365  19.031  0.00  0.00     0.217 HD
ENDBRANCH   6  27
TORSDOF 6
ENDMDL
MODEL 5
REMARK VINA RESULT:    -7.399      1.294      1.810
REMARK INTER + INTRA:         -10.675
REMARK INTER:                  -9.496
REMARK INTRA:                  -1.179
REMARK UNBOUND:                -1.330
REMARK  6 active torsions:
REMARK  status: ('A' for Active; 'I' for Inactive)
REMARK    1  A    between atoms: O_1  and  C_2 
REMARK    2  A    between atoms: C_2  and  C_4 
REMARK    3  A    between atoms: C_6  and  C_7 
REMARK    4  A    between atoms: N_13  and  C_14 
REMARK    5  A    between atoms: C_21  and  O_22 
REMARK    6  A    between atoms: C_24  and  O_25 
ROOT
HETATM    1  C   UNL     1       7.945  12.135  20.675  0.00  0.00     0.071 C 
HETATM    2  C   UNL     1       8.283  12.796  21.871  0.00  0.00     0.039 C 
HETATM    3  C   UNL     1       7.677  12.423  23.071  0.00  0.00     0.046 C 
HETATM    4  C   UNL     1       6.775  11.337  23.050  0.00  0.00     0.082 C 
HETATM    5  C   UNL     1       6.340  10.769  21.855  0.00  0.00     0.075 C 
HETATM    6  C   UNL     1       6.924  11.178  20.666  0.00  0.00     0.085 C 
ENDROOT
BRANCH   3   7
HETATM    7  C   UNL     1       8.044  13.026  24.377  0.00  0.00     0.172 A 
HETATM    8  N   UNL     1       9.045  12.527  25.061  0.00  0.00    -0.151 NA
HETATM    9  N   UNL     1       9.141  13.315  26.160  0.00  0.00    -0.226 N 
HETATM   10  H   UNL     1       9.729  13.094  26.955  0.00  0.00     0.194 HD
HETATM   11  C   UNL     1       8.147  14.280  26.165  0.00  0.00     0.349 A 
HETATM   12  O   UNL     1       7.903  15.015  27.107  0.00  0.00    -0.245 OA
HETATM   13  N   UNL     1       7.477  14.132  24.958  0.00  0.00    -0.241 N 
BRANCH  13  14
HETATM   14  C   UNL     1       6.265  14.820  24.757  0.00  0.00     0.084 A 
HETATM   15  C   UNL     1       5.216  14.592  25.666  0.00  0.00     0.033 A 
HETATM   16  C   UNL     1       3.926  15.059  25.408  0.00  0.00     0.002 A 
HETATM   17  C   UNL     1       3.661  15.740  24.224  0.00  0.00     0.003 A 
HETATM   18  C   UNL     1       4.699  15.998  23.327  0.00  0.00     0.044 A 
HETATM   19  C   UNL     1       5.995  15.556  23.601  0.00  0.00     0.143 A 
HETATM   20  F   UNL     1       6.953  15.756  22.683  0.00  0.00    -0.204 F 
ENDBRANCH  13  14
ENDBRANCH   3   7
BRANCH   4  21
HETATM   21  O   UNL     1       6.318  10.711  24.181  0.00  0.00    -0.360 OA
HETATM   22  H   UNL     1       5.908   9.860  23.904  0.00  0.00     0.217 HD
ENDBRANCH   4  21
BRANCH   1  23
HETATM   23  C   UNL     1       8.766  12.433  19.466  0.00  0.00     0.179 C 
HETATM   24  O   UNL     1       9.933  12.117  19.380  0.00  0.00    -0.646 OA
BRANCH  23  25
HETATM   25  O   UNL     1       8.063  12.956  18.441  0.00  0.00    -0.773 OA
HETATM   26  H   UNL     1       7.356  12.355  18.111  0.00  0.00     0.167 HD
ENDBRANCH  23  25
ENDBRANCH   1  23
BRANCH   6  27
HETATM   27  O   UNL     1       6.542  10.584  19.493  0.00  0.00    -0.360 OA
HETATM   28  H   UNL     1       6.758  11.189  18.756  0.00  0.00     0.217 HD
ENDBRANCH   6  27
TORSDOF 6
ENDMDL
MODEL 6
REMARK VINA RESULT:    -7.133      1.205      2.757
REMARK INTER + INTRA:         -10.340
REMARK INTER:                  -8.947
REMARK INTRA:                  -1.393
REMARK UNBOUND:                -1.330
REMARK  6 active torsions:
REMARK  status: ('A' for Active; 'I' for Inactive)
REMARK    1  A    between atoms: O_1  and  C_2 
REMARK    2  A    between atoms: C_2  and  C_4 
REMARK    3  A    between atoms: C_6  and  C_7 
REMARK    4  A    between atoms: N_13  and  C_14 
REMARK    5  A    between atoms: C_21  and  O_22 
REMARK    6  A    between atoms: C_24  and  O_25 
ROOT
HETATM    1  C   UNL     1       4.496  10.282  24.059  0.00  0.00     0.071 C 
HETATM    2  C   UNL     1       5.365  11.061  24.848  0.00  0.00     0.039 C 
HETATM    3  C   UNL     1       6.492  11.650  24.274  0.00  0.00     0.046 C 
HETATM    4  C   UNL     1       6.691  11.488  22.885  0.00  0.00     0.082 C 
HETATM    5  C   UNL     1       5.911  10.615  22.129  0.00  0.00     0.075 C 
HETATM    6  C   UNL     1       4.817  10.007  22.725  0.00  0.00     0.085 C 
ENDROOT
BRANCH   3   7
HETATM    7  C   UNL     1       7.405  12.543  25.030  0.00  0.00     0.172 A 
HETATM    8  N   UNL     1       8.470  12.042  25.606  0.00  0.00    -0.151 NA
HETATM    9  N   UNL     1       9.097  13.107  26.163  0.00  0.00    -0.226 N 
HETATM   10  H   UNL     1       9.876  13.023  26.806  0.00  0.00     0.194 HD
HETATM   11  C   UNL     1       8.369  14.269  25.964  0.00  0.00     0.349 A 
HETATM   12  O   UNL     1       8.618  15.339  26.492  0.00  0.00    -0.245 OA
HETATM   13  N   UNL     1       7.299  13.905  25.156  0.00  0.00    -0.241 N 
BRANCH  13  14
HETATM   14  C   UNL     1       6.248  14.821  24.958  0.00  0.00     0.084 A 
HETATM   15  C   UNL     1       5.351  15.039  26.020  0.00  0.00     0.033 A 
HETATM   16  C   UNL     1       4.167  15.753  25.826  0.00  0.00     0.002 A 
HETATM   17  C   UNL     1       3.850  16.236  24.561  0.00  0.00     0.003 A 
HETATM   18  C   UNL     1       4.743  16.050  23.505  0.00  0.00     0.044 A 
HETATM   19  C   UNL     1       5.942  15.363  23.708  0.00  0.00     0.143 A 
HETATM   20  F   UNL     1       6.743  15.138  22.654  0.00  0.00    -0.204 F 
ENDBRANCH  13  14
ENDBRANCH   3   7
BRANCH   4  21
HETATM   21  O   UNL     1       7.598  12.219  22.160  0.00  0.00    -0.360 OA
HETATM   22  H   UNL     1       8.241  12.607  22.796  0.00  0.00     0.217 HD
ENDBRANCH   4  21
BRANCH   1  23
HETATM   23  C   UNL     1       3.208   9.850  24.673  0.00  0.00     0.179 C 
HETATM   24  O   UNL     1       3.151   9.345  25.773  0.00  0.00    -0.646 OA
BRANCH  23  25
HETATM   25  O   UNL     1       2.117  10.194  23.958  0.00  0.00    -0.773 OA
HETATM   26  H   UNL     1       1.695  11.027  24.275  0.00  0.00     0.167 HD
ENDBRANCH  23  25
ENDBRANCH   1  23
BRANCH   6  27
HETATM   27  O   UNL     1       4.013   9.192  21.974  0.00  0.00    -0.360 OA
HETATM   28  H   UNL     1       4.252   8.263  22.166  0.00  0.00     0.217 HD
ENDBRANCH   6  27
TORSDOF 6
ENDMDL
MODEL 7
REMARK VINA RESULT:    -7.044      4.966      6.576
REMARK INTER + INTRA:         -10.226
REMARK INTER:                  -9.248
REMARK INTRA:                  -0.978
REMARK UNBOUND:                -1.330
REMARK  6 active torsions:
REMARK  status: ('A' for Active; 'I' for Inactive)
REMARK    1  A    between atoms: O_1  and  C_2 
REMARK    2  A    between atoms: C_2  and  C_4 
REMARK    3  A    between atoms: C_6  and  C_7 
REMARK    4  A    between atoms: N_13  and  C_14 
REMARK    5  A    between atoms: C_21  and  O_22 
REMARK    6  A    between atoms: C_24  and  O_25 
ROOT
HETATM    1  C   UNL     1      -1.304  11.744  25.478  0.00  0.00     0.071 C 
HETATM    2  C   UNL     1       0.063  11.406  25.517  0.00  0.00     0.039 C 
HETATM    3  C   UNL     1       0.873  11.638  24.405  0.00  0.00     0.046 C 
HETATM    4  C   UNL     1       0.293  12.269  23.282  0.00  0.00     0.082 C 
HETATM    5  C   UNL     1      -1.080  12.484  23.189  0.00  0.00     0.075 C 
HETATM    6  C   UNL     1      -1.877  12.211  24.291  0.00  0.00     0.085 C 
ENDROOT
BRANCH   3   7
HETATM    7  C   UNL     1       2.334  11.377  24.407  0.00  0.00     0.172 A 
HETATM    8  N   UNL     1       2.770  10.142  24.444  0.00  0.00    -0.151 NA
HETATM    9  N   UNL     1       4.121  10.249  24.392  0.00  0.00    -0.226 N 
HETATM   10  H   UNL     1       4.748   9.470  24.552  0.00  0.00     0.194 HD
HETATM   11  C   UNL     1       4.511  11.578  24.374  0.00  0.00     0.349 A 
HETATM   12  O   UNL     1       5.662  11.962  24.488  0.00  0.00    -0.245 OA
HETATM   13  N   UNL     1       3.334  12.312  24.308  0.00  0.00    -0.241 N 
BRANCH  13  14
HETATM   14  C   UNL     1       3.383  13.705  24.503  0.00  0.00     0.084 A 
HETATM   15  C   UNL     1       3.957  14.495  23.490  0.00  0.00     0.033 A 
HETATM   16  C   UNL     1       4.242  15.845  23.704  0.00  0.00     0.002 A 
HETATM   17  C   UNL     1       3.981  16.418  24.945  0.00  0.00     0.003 A 
HETATM   18  C   UNL     1       3.387  15.653  25.950  0.00  0.00     0.044 A 
HETATM   19  C   UNL     1       3.074  14.311  25.722  0.00  0.00     0.143 A 
HETATM   20  F   UNL     1       2.572  13.585  26.734  0.00  0.00    -0.204 F 
ENDBRANCH  13  14
ENDBRANCH   3   7
BRANCH   4  21
HETATM   21  O   UNL     1       1.025  12.783  22.242  0.00  0.00    -0.360 OA
HETATM   22  H   UNL     1       1.049  12.102  21.532  0.00  0.00     0.217 HD
ENDBRANCH   4  21
BRANCH   1  23
HETATM   23  C   UNL     1      -2.071  11.665  26.755  0.00  0.00     0.179 C 
HETATM   24  O   UNL     1      -1.626  12.074  27.805  0.00  0.00    -0.646 OA
BRANCH  23  25
HETATM   25  O   UNL     1      -3.338  11.228  26.607  0.00  0.00    -0.773 OA
HETATM   26  H   UNL     1      -4.011  11.919  26.809  0.00  0.00     0.167 HD
ENDBRANCH  23  25
ENDBRANCH   1  23
BRANCH   6  27
HETATM   27  O   UNL     1      -3.219  12.474  24.226  0.00  0.00    -0.360 OA
HETATM   28  H   UNL     1      -3.704  11.645  24.414  0.00  0.00     0.217 HD
ENDBRANCH   6  27
TORSDOF 6
ENDMDL
MODEL 8
REMARK VINA RESULT:    -7.032      6.960      8.983
REMARK INTER + INTRA:         -10.212
REMARK INTER:                  -9.063
REMARK INTRA:                  -1.150
REMARK UNBOUND:                -1.330
REMARK  6 active torsions:
REMARK  status: ('A' for Active; 'I' for Inactive)
REMARK    1  A    between atoms: O_1  and  C_2 
REMARK    2  A    between atoms: C_2  and  C_4 
REMARK    3  A    between atoms: C_6  and  C_7 
REMARK    4  A    between atoms: N_13  and  C_14 
REMARK    5  A    between atoms: C_21  and  O_22 
REMARK    6  A    between atoms: C_24  and  O_25 
ROOT
HETATM    1  C   UNL     1      -2.077  10.090  27.447  0.00  0.00     0.071 C 
HETATM    2  C   UNL     1      -2.293  10.899  26.315  0.00  0.00     0.039 C 
HETATM    3  C   UNL     1      -1.484  10.755  25.188  0.00  0.00     0.046 C 
HETATM    4  C   UNL     1      -0.498   9.744  25.203  0.00  0.00     0.082 C 
HETATM    5  C   UNL     1      -0.195   9.033  26.363  0.00  0.00     0.075 C 
HETATM    6  C   UNL     1      -0.986   9.216  27.487  0.00  0.00     0.085 C 
ENDROOT
BRANCH   3   7
HETATM    7  C   UNL     1      -1.706  11.522  23.936  0.00  0.00     0.172 A 
HETATM    8  N   UNL     1      -2.745  11.247  23.186  0.00  0.00    -0.151 NA
HETATM    9  N   UNL     1      -2.680  12.136  22.164  0.00  0.00    -0.226 N 
HETATM   10  H   UNL     1      -3.265  12.080  21.338  0.00  0.00     0.194 HD
HETATM   11  C   UNL     1      -1.551  12.931  22.272  0.00  0.00     0.349 A 
HETATM   12  O   UNL     1      -1.164  13.701  21.410  0.00  0.00    -0.245 OA
HETATM   13  N   UNL     1      -0.957  12.575  23.475  0.00  0.00    -0.241 N 
BRANCH  13  14
HETATM   14  C   UNL     1       0.337  13.047  23.767  0.00  0.00     0.084 A 
HETATM   15  C   UNL     1       1.388  12.670  22.912  0.00  0.00     0.033 A 
HETATM   16  C   UNL     1       2.719  12.910  23.258  0.00  0.00     0.002 A 
HETATM   17  C   UNL     1       3.020  13.507  24.478  0.00  0.00     0.003 A 
HETATM   18  C   UNL     1       1.986  13.911  25.324  0.00  0.00     0.044 A 
HETATM   19  C   UNL     1       0.654  13.697  24.962  0.00  0.00     0.143 A 
HETATM   20  F   UNL     1      -0.313  14.031  25.832  0.00  0.00    -0.204 F 
ENDBRANCH  13  14
ENDBRANCH   3   7
BRANCH   4  21
HETATM   21  O   UNL     1       0.178   9.329  24.084  0.00  0.00    -0.360 OA
HETATM   22  H   UNL     1       0.960   9.916  23.976  0.00  0.00     0.217 HD
ENDBRANCH   4  21
BRANCH   1  23
HETATM   23  C   UNL     1      -3.093  10.144  28.538  0.00  0.00     0.179 C 
HETATM   24  O   UNL     1      -3.576  11.186  28.924  0.00  0.00    -0.646 OA
BRANCH  23  25
HETATM   25  O   UNL     1      -3.518   8.932  28.952  0.00  0.00    -0.773 OA
HETATM   26  H   UNL     1      -2.781   8.292  29.090  0.00  0.00     0.167 HD
ENDBRANCH  23  25
ENDBRANCH   1  23
BRANCH   6  27
HETATM   27  O   UNL     1      -0.729   8.479  28.612  0.00  0.00    -0.360 OA
HETATM   28  H   UNL     1       0.226   8.545  28.812  0.00  0.00     0.217 HD
ENDBRANCH   6  27
TORSDOF 6
ENDMDL
MODEL 9
REMARK VINA RESULT:    -6.700      2.812      5.459
REMARK INTER + INTRA:          -9.793
REMARK INTER:                  -8.463
REMARK INTRA:                  -1.330
REMARK UNBOUND:                -1.330
REMARK  6 active torsions:
REMARK  status: ('A' for Active; 'I' for Inactive)
REMARK    1  A    between atoms: O_1  and  C_2 
REMARK    2  A    between atoms: C_2  and  C_4 
REMARK    3  A    between atoms: C_6  and  C_7 
REMARK    4  A    between atoms: N_13  and  C_14 
REMARK    5  A    between atoms: C_21  and  O_22 
REMARK    6  A    between atoms: C_24  and  O_25 
ROOT
HETATM    1  C   UNL     1       3.570  14.452  24.144  0.00  0.00     0.071 C 
HETATM    2  C   UNL     1       4.658  14.419  23.250  0.00  0.00     0.039 C 
HETATM    3  C   UNL     1       5.938  14.750  23.695  0.00  0.00     0.046 C 
HETATM    4  C   UNL     1       6.108  15.052  25.064  0.00  0.00     0.082 C 
HETATM    5  C   UNL     1       5.021  15.213  25.920  0.00  0.00     0.075 C 
HETATM    6  C   UNL     1       3.750  14.918  25.451  0.00  0.00     0.085 C 
ENDROOT
BRANCH   3   7
HETATM    7  C   UNL     1       7.138  14.662  22.825  0.00  0.00     0.172 A 
HETATM    8  N   UNL     1       7.407  15.638  21.994  0.00  0.00    -0.151 NA
HETATM    9  N   UNL     1       8.566  15.273  21.393  0.00  0.00    -0.226 N 
HETATM   10  H   UNL     1       8.954  15.755  20.590  0.00  0.00     0.194 HD
HETATM   11  C   UNL     1       8.980  14.027  21.833  0.00  0.00     0.349 A 
HETATM   12  O   UNL     1       9.898  13.391  21.344  0.00  0.00    -0.245 OA
HETATM   13  N   UNL     1       8.080  13.664  22.826  0.00  0.00    -0.241 N 
BRANCH  13  14
HETATM   14  C   UNL     1       8.097  12.345  23.318  0.00  0.00     0.084 A 
HETATM   15  C   UNL     1       8.916  12.062  24.426  0.00  0.00     0.033 A 
HETATM   16  C   UNL     1       9.156  10.746  24.827  0.00  0.00     0.002 A 
HETATM   17  C   UNL     1       8.600   9.692  24.107  0.00  0.00     0.003 A 
HETATM   18  C   UNL     1       7.764   9.960  23.023  0.00  0.00     0.044 A 
HETATM   19  C   UNL     1       7.501  11.278  22.643  0.00  0.00     0.143 A 
HETATM   20  F   UNL     1       6.752  11.497  21.550  0.00  0.00    -0.204 F 
ENDBRANCH  13  14
ENDBRANCH   3   7
BRANCH   4  21
HETATM   21  O   UNL     1       7.334  15.136  25.674  0.00  0.00    -0.360 OA
HETATM   22  H   UNL     1       7.433  16.053  26.015  0.00  0.00     0.217 HD
ENDBRANCH   4  21
BRANCH   1  23
HETATM   23  C   UNL     1       2.270  13.896  23.670  0.00  0.00     0.179 C 
HETATM   24  O   UNL     1       1.232  14.516  23.748  0.00  0.00    -0.646 OA
BRANCH  23  25
HETATM   25  O   UNL     1       2.380  12.713  23.031  0.00  0.00    -0.773 OA
HETATM   26  H   UNL     1       3.075  12.716  22.332  0.00  0.00     0.167 HD
ENDBRANCH  23  25
ENDBRANCH   1  23
BRANCH   6  27
HETATM   27  O   UNL     1       2.683  15.020  26.303  0.00  0.00    -0.360 OA
HETATM   28  H   UNL     1       2.994  14.827  27.210  0.00  0.00     0.217 HD
ENDBRANCH   6  27
TORSDOF 6
ENDMDL
