MODEL 1
REMARK VINA RESULT:    -8.036      0.000      0.000
REMARK INTER + INTRA:         -12.408
REMARK INTER:                 -10.374
REMARK INTRA:                  -2.034
REMARK UNBOUND:                -1.554
REMARK  7 active torsions:
REMARK  status: ('A' for Active; 'I' for Inactive)
REMARK    1  A    between atoms: C_7  and  N_8 
REMARK    2  A    between atoms: C_14  and  C_15 
REMARK    3  A    between atoms: C_16  and  O_17 
REMARK    4  A    between atoms: C_19  and  O_20 
REMARK    5  A    between atoms: C_22  and  C_23 
REMARK       I    between atoms: C_23  and  N_25 
REMARK    6  A    between atoms: N_25  and  C_27 
REMARK    7  A    between atoms: C_27  and  C_28 
ROOT
HETATM    1  C   UNL     1      -2.530  13.773  25.630  0.00  0.00     0.046 C 
HETATM    2  C   UNL     1      -3.039  12.593  26.213  0.00  0.00     0.082 C 
HETATM    3  C   UNL     1      -3.947  11.777  25.541  0.00  0.00     0.075 C 
HETATM    4  C   UNL     1      -4.340  12.100  24.242  0.00  0.00     0.084 C 
HETATM    5  C   UNL     1      -3.019  14.129  24.360  0.00  0.00     0.038 C 
HETATM    6  C   UNL     1      -3.859  13.266  23.613  0.00  0.00     0.066 C 
ENDROOT
BRANCH   1   7
HETATM    7  C   UNL     1      -1.524  14.560  26.423  0.00  0.00     0.172 A 
HETATM    8  N   UNL     1      -0.283  15.077  26.067  0.00  0.00    -0.241 N 
HETATM    9  C   UNL     1       0.181  15.679  27.237  0.00  0.00     0.349 A 
HETATM   10  O   UNL     1       1.245  16.222  27.498  0.00  0.00    -0.245 OA
HETATM   11  N   UNL     1      -0.815  15.515  28.176  0.00  0.00    -0.226 N 
HETATM   12  H   UNL     1      -0.754  15.810  29.143  0.00  0.00     0.194 HD
HETATM   13  N   UNL     1      -1.846  14.815  27.672  0.00  0.00    -0.151 NA
BRANCH   8  14
HETATM   14  C   UNL     1       0.511  15.043  24.872  0.00  0.00     0.084 C 
HETATM   15  C   UNL     1       0.264  15.812  23.742  0.00  0.00     0.143 C 
HETATM   16  F   UNL     1      -0.901  16.451  23.590  0.00  0.00    -0.204 F 
HETATM   17  C   UNL     1       1.166  15.894  22.678  0.00  0.00     0.044 C 
HETATM   18  C   UNL     1       2.292  15.081  22.651  0.00  0.00     0.003 C 
HETATM   19  C   UNL     1       2.497  14.188  23.690  0.00  0.00     0.002 C 
HETATM   20  C   UNL     1       1.634  14.188  24.795  0.00  0.00     0.033 C 
ENDBRANCH   8  14
ENDBRANCH   1   7
BRANCH   2  21
HETATM   21  O   UNL     1      -2.696  12.144  27.465  0.00  0.00    -0.360 OA
HETATM   22  H   UNL     1      -1.970  12.712  27.803  0.00  0.00     0.217 HD
ENDBRANCH   2  21
BRANCH   6  23
HETATM   23  C   UNL     1      -3.974  13.374  22.104  0.00  0.00     0.256 C 
HETATM   24  O   UNL     1      -3.322  12.556  21.448  0.00  0.00    -0.267 OA
HETATM   25  N   UNL     1      -4.667  14.412  21.450  0.00  0.00    -0.352 N 
HETATM   26  C   UNL     1      -5.442  15.429  22.139  0.00  0.00     0.152 C 
BRANCH  25  27
HETATM   27  C   UNL     1      -4.248  14.778  20.083  0.00  0.00     0.125 C 
BRANCH  27  28
HETATM   28  C   UNL     1      -3.544  16.120  19.826  0.00  0.00     0.015 C 
HETATM   29  C   UNL     1      -2.172  16.258  20.464  0.00  0.00     0.006 C 
ENDBRANCH  27  28
ENDBRANCH  25  27
ENDBRANCH   6  23
BRANCH   4  30
HETATM   30  O   UNL     1      -5.215  11.261  23.623  0.00  0.00    -0.360 OA
HETATM   31  H   UNL     1      -5.040  10.341  23.894  0.00  0.00     0.217 HD
ENDBRANCH   4  30
TORSDOF 7
ENDMDL
MODEL 2
REMARK VINA RESULT:    -7.966      3.215      5.541
REMARK INTER + INTRA:         -12.314
REMARK INTER:                 -10.550
REMARK INTRA:                  -1.764
REMARK UNBOUND:                -1.554
REMARK  7 active torsions:
REMARK  status: ('A' for Active; 'I' for Inactive)
REMARK    1  A    between atoms: C_7  and  N_8 
REMARK    2  A    between atoms: C_14  and  C_15 
REMARK    3  A    between atoms: C_16  and  O_17 
REMARK    4  A    between atoms: C_19  and  O_20 
REMARK    5  A    between atoms: C_22  and  C_23 
REMARK       I    between atoms: C_23  and  N_25 
REMARK    6  A    between atoms: N_25  and  C_27 
REMARK    7  A    between atoms: C_27  and  C_28 
ROOT
HETATM    1  C   UNL     1      -2.719  14.063  23.477  0.00  0.00     0.046 C 
HETATM    2  C   UNL     1      -3.564  14.498  22.433  0.00  0.00     0.082 C 
HETATM    3  C   UNL     1      -3.109  15.350  21.429  0.00  0.00     0.075 C 
HETATM    4  C   UNL     1      -1.775  15.759  21.419  0.00  0.00     0.084 C 
HETATM    5  C   UNL     1      -1.408  14.571  23.500  0.00  0.00     0.038 C 
HETATM    6  C   UNL     1      -0.889  15.352  22.436  0.00  0.00     0.066 C 
ENDROOT
BRANCH   1   7
HETATM    7  C   UNL     1      -3.298  13.112  24.486  0.00  0.00     0.172 A 
HETATM    8  N   UNL     1      -2.815  11.909  24.990  0.00  0.00    -0.241 N 
HETATM    9  C   UNL     1      -3.811  11.485  25.870  0.00  0.00     0.349 A 
HETATM   10  O   UNL     1      -3.926  10.461  26.527  0.00  0.00    -0.245 OA
HETATM   11  N   UNL     1      -4.780  12.467  25.858  0.00  0.00    -0.226 N 
HETATM   12  H   UNL     1      -5.653  12.426  26.367  0.00  0.00     0.194 HD
HETATM   13  N   UNL     1      -4.462  13.449  24.996  0.00  0.00    -0.151 NA
BRANCH   8  14
HETATM   14  C   UNL     1      -1.646  11.116  24.739  0.00  0.00     0.084 C 
HETATM   15  C   UNL     1      -1.302  10.595  23.498  0.00  0.00     0.143 C 
HETATM   16  F   UNL     1      -2.187  10.572  22.495  0.00  0.00    -0.204 F 
HETATM   17  C   UNL     1      -0.063   9.995  23.252  0.00  0.00     0.044 C 
HETATM   18  C   UNL     1       0.823   9.768  24.297  0.00  0.00     0.003 C 
HETATM   19  C   UNL     1       0.454  10.138  25.580  0.00  0.00     0.002 C 
HETATM   20  C   UNL     1      -0.750  10.825  25.792  0.00  0.00     0.033 C 
ENDBRANCH   8  14
ENDBRANCH   1   7
BRANCH   2  21
HETATM   21  O   UNL     1      -4.882  14.130  22.306  0.00  0.00    -0.360 OA
HETATM   22  H   UNL     1      -4.910  13.241  21.890  0.00  0.00     0.217 HD
ENDBRANCH   2  21
BRANCH   6  23
HETATM   23  C   UNL     1       0.603  15.469  22.186  0.00  0.00     0.256 C 
HETATM   24  O   UNL     1       1.106  16.575  22.399  0.00  0.00    -0.267 OA
HETATM   25  N   UNL     1       1.379  14.437  21.620  0.00  0.00    -0.352 N 
HETATM   26  C   UNL     1       0.868  13.112  21.318  0.00  0.00     0.152 C 
BRANCH  25  27
HETATM   27  C   UNL     1       2.603  14.809  20.886  0.00  0.00     0.125 C 
BRANCH  27  28
HETATM   28  C   UNL     1       3.980  14.371  21.412  0.00  0.00     0.015 C 
HETATM   29  C   UNL     1       4.215  14.628  22.890  0.00  0.00     0.006 C 
ENDBRANCH  27  28
ENDBRANCH  25  27
ENDBRANCH   6  23
BRANCH   4  30
HETATM   30  O   UNL     1      -1.376  16.577  20.406  0.00  0.00    -0.360 OA
HETATM   31  H   UNL     1      -0.885  16.063  19.739  0.00  0.00     0.217 HD
ENDBRANCH   4  30
TORSDOF 7
ENDMDL
MODEL 3
REMARK VINA RESULT:    -7.694      2.255      6.063
REMARK INTER + INTRA:         -11.947
REMARK INTER:                 -10.274
REMARK INTRA:                  -1.672
REMARK UNBOUND:                -1.554
REMARK  7 active torsions:
REMARK  status: ('A' for Active; 'I' for Inactive)
REMARK    1  A    between atoms: C_7  and  N_8 
REMARK    2  A    between atoms: C_14  and  C_15 
REMARK    3  A    between atoms: C_16  and  O_17 
REMARK    4  A    between atoms: C_19  and  O_20 
REMARK    5  A    between atoms: C_22  and  C_23 
REMARK       I    between atoms: C_23  and  N_25 
REMARK    6  A    between atoms: N_25  and  C_27 
REMARK    7  A    between atoms: C_27  and  C_28 
ROOT
HETATM    1  C   UNL     1      -1.755  13.477  25.547  0.00  0.00     0.046 C 
HETATM    2  C   UNL     1      -1.854  14.130  26.794  0.00  0.00     0.082 C 
HETATM    3  C   UNL     1      -0.887  15.036  27.225  0.00  0.00     0.075 C 
HETATM    4  C   UNL     1       0.190  15.348  26.396  0.00  0.00     0.084 C 
HETATM    5  C   UNL     1      -0.608  13.733  24.774  0.00  0.00     0.038 C 
HETATM    6  C   UNL     1       0.334  14.727  25.139  0.00  0.00     0.066 C 
ENDROOT
BRANCH   1   7
HETATM    7  C   UNL     1      -2.872  12.549  25.159  0.00  0.00     0.172 A 
HETATM    8  N   UNL     1      -3.634  12.471  23.998  0.00  0.00    -0.241 N 
HETATM    9  C   UNL     1      -4.527  11.429  24.248  0.00  0.00     0.349 A 
HETATM   10  O   UNL     1      -5.458  10.988  23.589  0.00  0.00    -0.245 OA
HETATM   11  N   UNL     1      -4.213  10.944  25.500  0.00  0.00    -0.226 N 
HETATM   12  H   UNL     1      -4.716  10.208  25.980  0.00  0.00     0.194 HD
HETATM   13  N   UNL     1      -3.210  11.647  26.054  0.00  0.00    -0.151 NA
BRANCH   8  14
HETATM   14  C   UNL     1      -3.680  13.226  22.779  0.00  0.00     0.084 C 
HETATM   15  C   UNL     1      -2.964  12.909  21.631  0.00  0.00     0.143 C 
HETATM   16  F   UNL     1      -1.966  12.020  21.669  0.00  0.00    -0.204 F 
HETATM   17  C   UNL     1      -3.183  13.552  20.409  0.00  0.00     0.044 C 
HETATM   18  C   UNL     1      -4.036  14.646  20.336  0.00  0.00     0.003 C 
HETATM   19  C   UNL     1      -4.655  15.089  21.494  0.00  0.00     0.002 C 
HETATM   20  C   UNL     1      -4.499  14.374  22.690  0.00  0.00     0.033 C 
ENDBRANCH   8  14
ENDBRANCH   1   7
BRANCH   2  21
HETATM   21  O   UNL     1      -2.887  13.942  27.680  0.00  0.00    -0.360 OA
HETATM   22  H   UNL     1      -3.120  12.988  27.677  0.00  0.00     0.217 HD
ENDBRANCH   2  21
BRANCH   6  23
HETATM   23  C   UNL     1       1.256  15.366  24.117  0.00  0.00     0.256 C 
HETATM   24  O   UNL     1       0.843  16.398  23.583  0.00  0.00    -0.267 OA
HETATM   25  N   UNL     1       2.460  14.777  23.682  0.00  0.00    -0.352 N 
HETATM   26  C   UNL     1       3.012  13.554  24.238  0.00  0.00     0.152 C 
BRANCH  25  27
HETATM   27  C   UNL     1       2.958  15.122  22.336  0.00  0.00     0.125 C 
BRANCH  27  28
HETATM   28  C   UNL     1       4.099  14.308  21.705  0.00  0.00     0.015 C 
HETATM   29  C   UNL     1       5.476  14.942  21.812  0.00  0.00     0.006 C 
ENDBRANCH  27  28
ENDBRANCH  25  27
ENDBRANCH   6  23
BRANCH   4  30
HETATM   30  O   UNL     1       1.096  16.253  26.856  0.00  0.00    -0.360 OA
HETATM   31  H   UNL     1       1.112  17.033  26.273  0.00  0.00     0.217 HD
ENDBRANCH   4  30
TORSDOF 7
ENDMDL
MODEL 4
REMARK VINA RESULT:    -7.242      3.192      5.919
REMARK INTER + INTRA:         -11.336
REMARK INTER:                  -9.654
REMARK INTRA:                  -1.682
REMARK UNBOUND:                -1.554
REMARK  7 active torsions:
REMARK  status: ('A' for Active; 'I' for Inactive)
REMARK    1  A    between atoms: C_7  and  N_8 
REMARK    2  A    between atoms: C_14  and  C_15 
REMARK    3  A    between atoms: C_16  and  O_17 
REMARK    4  A    between atoms: C_19  and  O_20 
REMARK    5  A    between atoms: C_22  and  C_23 
REMARK       I    between atoms: C_23  and  N_25 
REMARK    6  A    between atoms: N_25  and  C_27 
REMARK    7  A    between atoms: C_27  and  C_28 
ROOT
HETATM    1  C   UNL     1      -3.068  11.970  23.931  0.00  0.00     0.046 C 
HETATM    2  C   UNL     1      -3.669  12.363  25.146  0.00  0.00     0.082 C 
HETATM    3  C   UNL     1      -3.354  11.741  26.353  0.00  0.00     0.075 C 
HETATM    4  C   UNL     1      -2.392  10.732  26.383  0.00  0.00     0.084 C 
HETATM    5  C   UNL     1      -2.176  10.883  23.973  0.00  0.00     0.038 C 
HETATM    6  C   UNL     1      -1.759  10.305  25.199  0.00  0.00     0.066 C 
ENDROOT
BRANCH   1   7
HETATM    7  C   UNL     1      -3.446  12.733  22.692  0.00  0.00     0.172 A 
HETATM    8  N   UNL     1      -2.662  13.309  21.699  0.00  0.00    -0.241 N 
HETATM    9  C   UNL     1      -3.586  13.896  20.835  0.00  0.00     0.349 A 
HETATM   10  O   UNL     1      -3.434  14.587  19.838  0.00  0.00    -0.245 OA
HETATM   11  N   UNL     1      -4.833  13.600  21.345  0.00  0.00    -0.226 N 
HETATM   12  H   UNL     1      -5.710  13.926  20.959  0.00  0.00     0.194 HD
HETATM   13  N   UNL     1      -4.734  12.901  22.489  0.00  0.00    -0.151 NA
BRANCH   8  14
HETATM   14  C   UNL     1      -1.248  13.429  21.483  0.00  0.00     0.084 C 
HETATM   15  C   UNL     1      -0.499  14.556  21.797  0.00  0.00     0.143 C 
HETATM   16  F   UNL     1      -1.096  15.719  22.080  0.00  0.00    -0.204 F 
HETATM   17  C   UNL     1       0.898  14.565  21.754  0.00  0.00     0.044 C 
HETATM   18  C   UNL     1       1.589  13.472  21.247  0.00  0.00     0.003 C 
HETATM   19  C   UNL     1       0.870  12.383  20.781  0.00  0.00     0.002 C 
HETATM   20  C   UNL     1      -0.525  12.353  20.922  0.00  0.00     0.033 C 
ENDBRANCH   8  14
ENDBRANCH   1   7
BRANCH   2  21
HETATM   21  O   UNL     1      -4.596  13.370  25.255  0.00  0.00    -0.360 OA
HETATM   22  H   UNL     1      -5.437  12.976  25.574  0.00  0.00     0.217 HD
ENDBRANCH   2  21
BRANCH   6  23
HETATM   23  C   UNL     1      -0.464   9.521  25.312  0.00  0.00     0.256 C 
HETATM   24  O   UNL     1      -0.553   8.390  25.794  0.00  0.00    -0.267 OA
HETATM   25  N   UNL     1       0.802  10.067  25.017  0.00  0.00    -0.352 N 
HETATM   26  C   UNL     1       1.003  11.396  24.466  0.00  0.00     0.152 C 
BRANCH  25  27
HETATM   27  C   UNL     1       1.982   9.493  25.691  0.00  0.00     0.125 C 
BRANCH  27  28
HETATM   28  C   UNL     1       2.761   8.342  25.033  0.00  0.00     0.015 C 
HETATM   29  C   UNL     1       2.247   7.915  23.669  0.00  0.00     0.006 C 
ENDBRANCH  27  28
ENDBRANCH  25  27
ENDBRANCH   6  23
BRANCH   4  30
HETATM   30  O   UNL     1      -2.108  10.170  27.590  0.00  0.00    -0.360 OA
HETATM   31  H   UNL     1      -2.518  10.692  28.304  0.00  0.00     0.217 HD
ENDBRANCH   4  30
TORSDOF 7
ENDMDL
MODEL 5
REMARK VINA RESULT:    -7.234      4.383      5.402
REMARK INTER + INTRA:         -11.326
REMARK INTER:                  -9.740
REMARK INTRA:                  -1.585
REMARK UNBOUND:                -1.554
REMARK  7 active torsions:
REMARK  status: ('A' for Active; 'I' for Inactive)
REMARK    1  A    between atoms: C_7  and  N_8 
REMARK    2  A    between atoms: C_14  and  C_15 
REMARK    3  A    between atoms: C_16  and  O_17 
REMARK    4  A    between atoms: C_19  and  O_20 
REMARK    5  A    between atoms: C_22  and  C_23 
REMARK       I    between atoms: C_23  and  N_25 
REMARK    6  A    between atoms: N_25  and  C_27 
REMARK    7  A    between atoms: C_27  and  C_28 
ROOT
HETATM    1  C   UNL     1      -2.553  10.795  26.188  0.00  0.00     0.046 C 
HETATM    2  C   UNL     1      -3.951  10.893  26.361  0.00  0.00     0.082 C 
HETATM    3  C   UNL     1      -4.772  11.454  25.386  0.00  0.00     0.075 C 
HETATM    4  C   UNL     1      -4.219  11.896  24.184  0.00  0.00     0.084 C 
HETATM    5  C   UNL     1      -2.010  11.340  25.011  0.00  0.00     0.038 C 
HETATM    6  C   UNL     1      -2.831  11.819  23.959  0.00  0.00     0.066 C 
ENDROOT
BRANCH   1   7
HETATM    7  C   UNL     1      -1.763  10.136  27.283  0.00  0.00     0.172 A 
HETATM    8  N   UNL     1      -0.721   9.217  27.232  0.00  0.00    -0.241 N 
HETATM    9  C   UNL     1      -0.426   8.963  28.571  0.00  0.00     0.349 A 
HETATM   10  O   UNL     1       0.359   8.184  29.092  0.00  0.00    -0.245 OA
HETATM   11  N   UNL     1      -1.271   9.764  29.310  0.00  0.00    -0.226 N 
HETATM   12  H   UNL     1      -1.325   9.773  30.321  0.00  0.00     0.194 HD
HETATM   13  N   UNL     1      -2.095  10.465  28.512  0.00  0.00    -0.151 NA
BRANCH   8  14
HETATM   14  C   UNL     1      -0.037   8.537  26.169  0.00  0.00     0.084 C 
HETATM   15  C   UNL     1      -0.268   7.217  25.804  0.00  0.00     0.143 C 
HETATM   16  F   UNL     1      -0.962   6.397  26.600  0.00  0.00    -0.204 F 
HETATM   17  C   UNL     1       0.275   6.653  24.645  0.00  0.00     0.044 C 
HETATM   18  C   UNL     1       1.194   7.364  23.886  0.00  0.00     0.003 C 
HETATM   19  C   UNL     1       1.567   8.632  24.300  0.00  0.00     0.002 C 
HETATM   20  C   UNL     1       0.941   9.219  25.409  0.00  0.00     0.033 C 
ENDBRANCH   8  14
ENDBRANCH   1   7
BRANCH   2  21
HETATM   21  O   UNL     1      -4.619  10.454  27.478  0.00  0.00    -0.360 OA
HETATM   22  H   UNL     1      -4.131  10.771  28.269  0.00  0.00     0.217 HD
ENDBRANCH   2  21
BRANCH   6  23
HETATM   23  C   UNL     1      -2.322  11.921  22.532  0.00  0.00     0.256 C 
HETATM   24  O   UNL     1      -2.522  10.940  21.812  0.00  0.00    -0.267 OA
HETATM   25  N   UNL     1      -1.547  12.999  22.059  0.00  0.00    -0.352 N 
HETATM   26  C   UNL     1      -1.243  14.183  22.843  0.00  0.00     0.152 C 
BRANCH  25  27
HETATM   27  C   UNL     1      -0.631  12.755  20.929  0.00  0.00     0.125 C 
BRANCH  27  28
HETATM   28  C   UNL     1       0.873  12.562  21.183  0.00  0.00     0.015 C 
HETATM   29  C   UNL     1       1.758  13.698  20.698  0.00  0.00     0.006 C 
ENDBRANCH  27  28
ENDBRANCH  25  27
ENDBRANCH   6  23
BRANCH   4  30
HETATM   30  O   UNL     1      -5.068  12.419  23.257  0.00  0.00    -0.360 OA
HETATM   31  H   UNL     1      -5.625  13.106  23.666  0.00  0.00     0.217 HD
ENDBRANCH   4  30
TORSDOF 7
ENDMDL
MODEL 6
REMARK VINA RESULT:    -7.234      4.706      6.958
REMARK INTER + INTRA:         -11.325
REMARK INTER:                  -9.666
REMARK INTRA:                  -1.659
REMARK UNBOUND:                -1.554
REMARK  7 active torsions:
REMARK  status: ('A' for Active; 'I' for Inactive)
REMARK    1  A    between atoms: C_7  and  N_8 
REMARK    2  A    between atoms: C_14  and  C_15 
REMARK    3  A    between atoms: C_16  and  O_17 
REMARK    4  A    between atoms: C_19  and  O_20 
REMARK    5  A    between atoms: C_22  and  C_23 
REMARK       I    between atoms: C_23  and  N_25 
REMARK    6  A    between atoms: N_25  and  C_27 
REMARK    7  A    between atoms: C_27  and  C_28 
ROOT
HETATM    1  C   UNL     1      -1.078  10.418  23.928  0.00  0.00     0.046 C 
HETATM    2  C   UNL     1      -1.777  10.446  25.154  0.00  0.00     0.082 C 
HETATM    3  C   UNL     1      -1.331   9.739  26.268  0.00  0.00     0.075 C 
HETATM    4  C   UNL     1      -0.142   9.014  26.199  0.00  0.00     0.084 C 
HETATM    5  C   UNL     1       0.063   9.598  23.855  0.00  0.00     0.038 C 
HETATM    6  C   UNL     1       0.597   8.955  25.001  0.00  0.00     0.066 C 
ENDROOT
BRANCH   1   7
HETATM    7  C   UNL     1      -1.621  11.249  22.800  0.00  0.00     0.172 A 
HETATM    8  N   UNL     1      -1.075  12.328  22.114  0.00  0.00    -0.241 N 
HETATM    9  C   UNL     1      -2.066  12.686  21.200  0.00  0.00     0.349 A 
HETATM   10  O   UNL     1      -2.132  13.609  20.401  0.00  0.00    -0.245 OA
HETATM   11  N   UNL     1      -3.096  11.787  21.376  0.00  0.00    -0.226 N 
HETATM   12  H   UNL     1      -3.980  11.813  20.883  0.00  0.00     0.194 HD
HETATM   13  N   UNL     1      -2.820  10.922  22.368  0.00  0.00    -0.151 NA
BRANCH   8  14
HETATM   14  C   UNL     1       0.151  13.066  22.223  0.00  0.00     0.084 C 
HETATM   15  C   UNL     1       1.129  13.115  21.238  0.00  0.00     0.143 C 
HETATM   16  F   UNL     1       1.116  12.252  20.216  0.00  0.00    -0.204 F 
HETATM   17  C   UNL     1       2.214  13.995  21.299  0.00  0.00     0.044 C 
HETATM   18  C   UNL     1       2.429  14.761  22.438  0.00  0.00     0.003 C 
HETATM   19  C   UNL     1       1.558  14.630  23.507  0.00  0.00     0.002 C 
HETATM   20  C   UNL     1       0.423  13.815  23.391  0.00  0.00     0.033 C 
ENDBRANCH   8  14
ENDBRANCH   1   7
BRANCH   2  21
HETATM   21  O   UNL     1      -2.934  11.157  25.362  0.00  0.00    -0.360 OA
HETATM   22  H   UNL     1      -2.919  11.499  26.282  0.00  0.00     0.217 HD
ENDBRANCH   2  21
BRANCH   6  23
HETATM   23  C   UNL     1       2.048   8.516  25.065  0.00  0.00     0.256 C 
HETATM   24  O   UNL     1       2.836   9.315  25.578  0.00  0.00    -0.267 OA
HETATM   25  N   UNL     1       2.529   7.333  24.469  0.00  0.00    -0.352 N 
HETATM   26  C   UNL     1       1.679   6.346  23.825  0.00  0.00     0.152 C 
BRANCH  25  27
HETATM   27  C   UNL     1       3.947   7.282  24.065  0.00  0.00     0.125 C 
BRANCH  27  28
HETATM   28  C   UNL     1       4.322   7.215  22.576  0.00  0.00     0.015 C 
HETATM   29  C   UNL     1       5.804   7.371  22.279  0.00  0.00     0.006 C 
ENDBRANCH  27  28
ENDBRANCH  25  27
ENDBRANCH   6  23
BRANCH   4  30
HETATM   30  O   UNL     1       0.259   8.356  27.321  0.00  0.00    -0.360 OA
HETATM   31  H   UNL     1      -0.416   7.704  27.583  0.00  0.00     0.217 HD
ENDBRANCH   4  30
TORSDOF 7
ENDMDL
MODEL 7
REMARK VINA RESULT:    -7.219      3.551      6.573
REMARK INTER + INTRA:         -11.305
REMARK INTER:                  -9.880
REMARK INTRA:                  -1.425
REMARK UNBOUND:                -1.554
REMARK  7 active torsions:
REMARK  status: ('A' for Active; 'I' for Inactive)
REMARK    1  A    between atoms: C_7  and  N_8 
REMARK    2  A    between atoms: C_14  and  C_15 
REMARK    3  A    between atoms: C_16  and  O_17 
REMARK    4  A    between atoms: C_19  and  O_20 
REMARK    5  A    between atoms: C_22  and  C_23 
REMARK       I    between atoms: C_23  and  N_25 
REMARK    6  A    between atoms: N_25  and  C_27 
REMARK    7  A    between atoms: C_27  and  C_28 
ROOT
HETATM    1  C   UNL     1      -2.623  11.295  24.024  0.00  0.00     0.046 C 
HETATM    2  C   UNL     1      -3.922  11.826  24.176  0.00  0.00     0.082 C 
HETATM    3  C   UNL     1      -4.646  11.664  25.355  0.00  0.00     0.075 C 
HETATM    4  C   UNL     1      -4.070  10.998  26.437  0.00  0.00     0.084 C 
HETATM    5  C   UNL     1      -2.105  10.542  25.093  0.00  0.00     0.038 C 
HETATM    6  C   UNL     1      -2.775  10.452  26.339  0.00  0.00     0.066 C 
ENDROOT
BRANCH   1   7
HETATM    7  C   UNL     1      -1.912  11.562  22.727  0.00  0.00     0.172 A 
HETATM    8  N   UNL     1      -0.733  12.248  22.456  0.00  0.00    -0.241 N 
HETATM    9  C   UNL     1      -0.611  12.177  21.068  0.00  0.00     0.349 A 
HETATM   10  O   UNL     1       0.205  12.670  20.303  0.00  0.00    -0.245 OA
HETATM   11  N   UNL     1      -1.685  11.433  20.624  0.00  0.00    -0.226 N 
HETATM   12  H   UNL     1      -1.896  11.242  19.653  0.00  0.00     0.194 HD
HETATM   13  N   UNL     1      -2.482  11.076  21.646  0.00  0.00    -0.151 NA
BRANCH   8  14
HETATM   14  C   UNL     1       0.213  12.969  23.258  0.00  0.00     0.084 C 
HETATM   15  C   UNL     1       1.263  12.381  23.953  0.00  0.00     0.143 C 
HETATM   16  F   UNL     1       1.305  11.057  24.139  0.00  0.00    -0.204 F 
HETATM   17  C   UNL     1       2.273  13.131  24.562  0.00  0.00     0.044 C 
HETATM   18  C   UNL     1       2.180  14.515  24.617  0.00  0.00     0.003 C 
HETATM   19  C   UNL     1       1.069  15.134  24.066  0.00  0.00     0.002 C 
HETATM   20  C   UNL     1       0.115  14.374  23.375  0.00  0.00     0.033 C 
ENDBRANCH   8  14
ENDBRANCH   1   7
BRANCH   2  21
HETATM   21  O   UNL     1      -4.580  12.538  23.202  0.00  0.00    -0.360 OA
HETATM   22  H   UNL     1      -4.098  13.382  23.064  0.00  0.00     0.217 HD
ENDBRANCH   2  21
BRANCH   6  23
HETATM   23  C   UNL     1      -2.036  10.107  27.619  0.00  0.00     0.256 C 
HETATM   24  O   UNL     1      -2.193  10.884  28.565  0.00  0.00    -0.267 OA
HETATM   25  N   UNL     1      -1.114   9.046  27.722  0.00  0.00    -0.352 N 
HETATM   26  C   UNL     1      -0.850   8.096  26.656  0.00  0.00     0.152 C 
BRANCH  25  27
HETATM   27  C   UNL     1      -0.049   9.144  28.739  0.00  0.00     0.125 C 
BRANCH  27  28
HETATM   28  C   UNL     1      -0.292   8.617  30.162  0.00  0.00     0.015 C 
HETATM   29  C   UNL     1      -0.438   7.109  30.273  0.00  0.00     0.006 C 
ENDBRANCH  27  28
ENDBRANCH  25  27
ENDBRANCH   6  23
BRANCH   4  30
HETATM   30  O   UNL     1      -4.813  10.883  27.572  0.00  0.00    -0.360 OA
HETATM   31  H   UNL     1      -5.503  10.206  27.449  0.00  0.00     0.217 HD
ENDBRANCH   4  30
TORSDOF 7
ENDMDL
MODEL 8
REMARK VINA RESULT:    -7.021      3.793      6.119
REMARK INTER + INTRA:         -11.037
REMARK INTER:                  -9.376
REMARK INTRA:                  -1.662
REMARK UNBOUND:                -1.554
REMARK  7 active torsions:
REMARK  status: ('A' for Active; 'I' for Inactive)
REMARK    1  A    between atoms: C_7  and  N_8 
REMARK    2  A    between atoms: C_14  and  C_15 
REMARK    3  A    between atoms: C_16  and  O_17 
REMARK    4  A    between atoms: C_19  and  O_20 
REMARK    5  A    between atoms: C_22  and  C_23 
REMARK       I    between atoms: C_23  and  N_25 
REMARK    6  A    between atoms: N_25  and  C_27 
REMARK    7  A    between atoms: C_27  and  C_28 
ROOT
HETATM    1  C   UNL     1      -2.413  11.292  25.244  0.00  0.00     0.046 C 
HETATM    2  C   UNL     1      -2.958  11.424  26.540  0.00  0.00     0.082 C 
HETATM    3  C   UNL     1      -2.473  10.684  27.617  0.00  0.00     0.075 C 
HETATM    4  C   UNL     1      -1.394   9.819  27.434  0.00  0.00     0.084 C 
HETATM    5  C   UNL     1      -1.393  10.340  25.067  0.00  0.00     0.038 C 
HETATM    6  C   UNL     1      -0.811   9.653  26.162  0.00  0.00     0.066 C 
ENDROOT
BRANCH   1   7
HETATM    7  C   UNL     1      -2.981  12.166  24.162  0.00  0.00     0.172 A 
HETATM    8  N   UNL     1      -2.409  13.198  23.426  0.00  0.00    -0.241 N 
HETATM    9  C   UNL     1      -3.441  13.637  22.597  0.00  0.00     0.349 A 
HETATM   10  O   UNL     1      -3.500  14.564  21.802  0.00  0.00    -0.245 OA
HETATM   11  N   UNL     1      -4.523  12.824  22.865  0.00  0.00    -0.226 N 
HETATM   12  H   UNL     1      -5.440  12.923  22.448  0.00  0.00     0.194 HD
HETATM   13  N   UNL     1      -4.234  11.939  23.835  0.00  0.00    -0.151 NA
BRANCH   8  14
HETATM   14  C   UNL     1      -1.122  13.834  23.427  0.00  0.00     0.084 C 
HETATM   15  C   UNL     1      -0.797  14.949  24.191  0.00  0.00     0.143 C 
HETATM   16  F   UNL     1      -1.751  15.675  24.785  0.00  0.00    -0.204 F 
HETATM   17  C   UNL     1       0.514  15.419  24.312  0.00  0.00     0.044 C 
HETATM   18  C   UNL     1       1.529  14.866  23.544  0.00  0.00     0.003 C 
HETATM   19  C   UNL     1       1.218  13.849  22.655  0.00  0.00     0.002 C 
HETATM   20  C   UNL     1      -0.082  13.325  22.617  0.00  0.00     0.033 C 
ENDBRANCH   8  14
ENDBRANCH   1   7
BRANCH   2  21
HETATM   21  O   UNL     1      -3.990  12.272  26.857  0.00  0.00    -0.360 OA
HETATM   22  H   UNL     1      -4.828  11.856  26.559  0.00  0.00     0.217 HD
ENDBRANCH   2  21
BRANCH   6  23
HETATM   23  C   UNL     1       0.575   9.042  26.075  0.00  0.00     0.256 C 
HETATM   24  O   UNL     1       1.523   9.826  26.173  0.00  0.00    -0.267 OA
HETATM   25  N   UNL     1       0.809   7.687  25.769  0.00  0.00    -0.352 N 
HETATM   26  C   UNL     1      -0.244   6.698  25.614  0.00  0.00     0.152 C 
BRANCH  25  27
HETATM   27  C   UNL     1       2.091   7.326  25.135  0.00  0.00     0.125 C 
BRANCH  27  28
HETATM   28  C   UNL     1       2.303   7.567  23.632  0.00  0.00     0.015 C 
HETATM   29  C   UNL     1       3.679   7.191  23.108  0.00  0.00     0.006 C 
ENDBRANCH  27  28
ENDBRANCH  25  27
ENDBRANCH   6  23
BRANCH   4  30
HETATM   30  O   UNL     1      -0.947   9.134  28.522  0.00  0.00    -0.360 OA
HETATM   31  H   UNL     1       0.011   8.972  28.441  0.00  0.00     0.217 HD
ENDBRANCH   4  30
TORSDOF 7
ENDMDL
MODEL 9
REMARK VINA RESULT:    -6.949      4.275      6.530
REMARK INTER + INTRA:         -10.941
REMARK INTER:                  -9.387
REMARK INTRA:                  -1.554
REMARK UNBOUND:                -1.554
REMARK  7 active torsions:
REMARK  status: ('A' for Active; 'I' for Inactive)
REMARK    1  A    between atoms: C_7  and  N_8 
REMARK    2  A    between atoms: C_14  and  C_15 
REMARK    3  A    between atoms: C_16  and  O_17 
REMARK    4  A    between atoms: C_19  and  O_20 
REMARK    5  A    between atoms: C_22  and  C_23 
REMARK       I    between atoms: C_23  and  N_25 
REMARK    6  A    between atoms: N_25  and  C_27 
REMARK    7  A    between atoms: C_27  and  C_28 
ROOT
HETATM    1  C   UNL     1      -2.053  10.600  25.516  0.00  0.00     0.046 C 
HETATM    2  C   UNL     1      -2.287  10.506  26.905  0.00  0.00     0.082 C 
HETATM    3  C   UNL     1      -1.488   9.719  27.731  0.00  0.00     0.075 C 
HETATM    4  C   UNL     1      -0.400   9.032  27.193  0.00  0.00     0.084 C 
HETATM    5  C   UNL     1      -1.011   9.819  24.984  0.00  0.00     0.038 C 
HETATM    6  C   UNL     1      -0.120   9.094  25.814  0.00  0.00     0.066 C 
ENDROOT
BRANCH   1   7
HETATM    7  C   UNL     1      -2.947  11.509  24.722  0.00  0.00     0.172 A 
HETATM    8  N   UNL     1      -2.783  12.831  24.321  0.00  0.00    -0.241 N 
HETATM    9  C   UNL     1      -3.963  13.128  23.639  0.00  0.00     0.349 A 
HETATM   10  O   UNL     1      -4.368  14.168  23.141  0.00  0.00    -0.245 OA
HETATM   11  N   UNL     1      -4.715  11.971  23.648  0.00  0.00    -0.226 N 
HETATM   12  H   UNL     1      -5.648  11.883  23.265  0.00  0.00     0.194 HD
HETATM   13  N   UNL     1      -4.090  10.993  24.327  0.00  0.00    -0.151 NA
BRANCH   8  14
HETATM   14  C   UNL     1      -1.761  13.818  24.521  0.00  0.00     0.084 C 
HETATM   15  C   UNL     1      -1.468  14.409  25.744  0.00  0.00     0.143 C 
HETATM   16  F   UNL     1      -2.307  14.292  26.780  0.00  0.00    -0.204 F 
HETATM   17  C   UNL     1      -0.344  15.217  25.937  0.00  0.00     0.044 C 
HETATM   18  C   UNL     1       0.451  15.579  24.858  0.00  0.00     0.003 C 
HETATM   19  C   UNL     1       0.105  15.132  23.592  0.00  0.00     0.002 C 
HETATM   20  C   UNL     1      -0.968  14.245  23.432  0.00  0.00     0.033 C 
ENDBRANCH   8  14
ENDBRANCH   1   7
BRANCH   2  21
HETATM   21  O   UNL     1      -3.298  11.168  27.560  0.00  0.00    -0.360 OA
HETATM   22  H   UNL     1      -3.353  12.077  27.194  0.00  0.00     0.217 HD
ENDBRANCH   2  21
BRANCH   6  23
HETATM   23  C   UNL     1       1.263   8.688  25.337  0.00  0.00     0.256 C 
HETATM   24  O   UNL     1       2.191   9.435  25.657  0.00  0.00    -0.267 OA
HETATM   25  N   UNL     1       1.497   7.602  24.468  0.00  0.00    -0.352 N 
HETATM   26  C   UNL     1       0.464   6.684  24.023  0.00  0.00     0.152 C 
BRANCH  25  27
HETATM   27  C   UNL     1       2.699   7.640  23.614  0.00  0.00     0.125 C 
BRANCH  27  28
HETATM   28  C   UNL     1       3.964   6.871  24.029  0.00  0.00     0.015 C 
HETATM   29  C   UNL     1       5.228   7.266  23.286  0.00  0.00     0.006 C 
ENDBRANCH  27  28
ENDBRANCH  25  27
ENDBRANCH   6  23
BRANCH   4  30
HETATM   30  O   UNL     1       0.360   8.292  28.046  0.00  0.00    -0.360 OA
HETATM   31  H   UNL     1       0.470   7.389  27.695  0.00  0.00     0.217 HD
ENDBRANCH   4  30
TORSDOF 7
ENDMDL
