MODEL 1
REMARK VINA RESULT:    -8.230      0.000      0.000
REMARK INTER + INTRA:         -12.189
REMARK INTER:                 -10.880
REMARK INTRA:                  -1.308
REMARK UNBOUND:                -1.313
REMARK  6 active torsions:
REMARK  status: ('A' for Active; 'I' for Inactive)
REMARK    1  A    between atoms: N_6  and  C_7 
REMARK    2  A    between atoms: C_12  and  N_13 
REMARK       I    between atoms: N_13  and  C_15 
REMARK    3  A    between atoms: C_15  and  C_17 
REMARK    4  A    between atoms: C_18  and  O_20 
REMARK    5  A    between atoms: C_24  and  C_28 
REMARK       I    between atoms: C_28  and  N_30 
REMARK    6  A    between atoms: C_32  and  O_33 
ROOT
HETATM    1  C   UNL     1      -1.085   9.564  25.721  0.00  0.00     0.066 C 
HETATM    2  C   UNL     1      -1.380   9.849  27.071  0.00  0.00     0.083 C 
HETATM    3  C   UNL     1      -2.305  10.836  27.446  0.00  0.00     0.069 C 
HETATM    4  C   UNL     1      -1.803  10.262  24.729  0.00  0.00     0.036 C 
HETATM    5  C   UNL     1      -2.620  11.366  25.080  0.00  0.00     0.029 C 
HETATM    6  C   UNL     1      -2.880  11.587  26.426  0.00  0.00     0.065 C 
HETATM    7  C   UNL     1      -3.245  12.463  24.397  0.00  0.00     0.157 C 
HETATM    8  N   UNL     1      -3.993  13.189  25.258  0.00  0.00    -0.168 NA
HETATM    9  N   UNL     1      -3.764  12.631  26.452  0.00  0.00    -0.277 N 
HETATM   10  H   UNL     1      -4.215  13.034  27.266  0.00  0.00     0.189 HD
ENDROOT
BRANCH   1  11
HETATM   11  C   UNL     1      -0.008   8.535  25.413  0.00  0.00     0.260 C 
HETATM   12  N   UNL     1       1.327   8.921  25.114  0.00  0.00    -0.318 N 
HETATM   13  C   UNL     1       1.720  10.333  25.147  0.00  0.00     0.159 C 
HETATM   14  O   UNL     1      -0.397   7.368  25.523  0.00  0.00    -0.267 OA
BRANCH  12  15
HETATM   15  C   UNL     1       2.415   7.965  24.893  0.00  0.00     0.037 A 
HETATM   16  C   UNL     1       2.591   7.360  23.638  0.00  0.00     0.032 A 
HETATM   17  C   UNL     1       3.718   6.581  23.319  0.00  0.00     0.031 A 
HETATM   18  C   UNL     1       4.728   6.309  24.243  0.00  0.00     0.030 A 
HETATM   19  C   UNL     1       4.498   6.811  25.529  0.00  0.00     0.031 A 
HETATM   20  C   UNL     1       3.375   7.621  25.849  0.00  0.00     0.032 A 
BRANCH  18  21
HETATM   21  N   UNL     1       5.844   5.582  23.888  0.00  0.00    -0.377 N 
HETATM   22  C   UNL     1       6.904   6.075  22.993  0.00  0.00     0.149 C 
HETATM   23  C   UNL     1       6.998   5.190  21.738  0.00  0.00     0.187 C 
HETATM   24  O   UNL     1       7.192   3.806  22.079  0.00  0.00    -0.388 OA
HETATM   25  C   UNL     1       6.101   3.336  22.888  0.00  0.00     0.187 C 
HETATM   26  C   UNL     1       5.972   4.142  24.195  0.00  0.00     0.149 C 
ENDBRANCH  18  21
ENDBRANCH  12  15
ENDBRANCH   1  11
BRANCH   2  27
HETATM   27  O   UNL     1      -0.784   9.198  28.122  0.00  0.00    -0.360 OA
HETATM   28  H   UNL     1      -0.465   9.881  28.753  0.00  0.00     0.217 HD
ENDBRANCH   2  27
BRANCH   7  29
HETATM   29  C   UNL     1      -3.092  12.814  22.962  0.00  0.00     0.275 C 
HETATM   30  O   UNL     1      -3.596  12.093  22.100  0.00  0.00    -0.266 OA
HETATM   31  N   UNL     1      -2.314  13.946  22.599  0.00  0.00    -0.344 N 
HETATM   32  C   UNL     1      -2.187  14.219  21.163  0.00  0.00     0.158 C 
HETATM   33  C   UNL     1      -1.186  14.406  23.412  0.00  0.00     0.126 C 
HETATM   34  C   UNL     1      -1.753  15.662  20.813  0.00  0.00     0.139 C 
HETATM   35  C   UNL     1      -0.573  16.116  21.677  0.00  0.00     0.035 C 
HETATM   36  C   UNL     1      -0.844  15.870  23.157  0.00  0.00     0.022 C 
BRANCH  34  37
HETATM   37  O   UNL     1      -2.804  16.622  20.993  0.00  0.00    -0.389 OA
HETATM   38  C   UNL     1      -3.972  16.341  20.232  0.00  0.00     0.202 C 
ENDBRANCH  34  37
ENDBRANCH   7  29
TORSDOF 6
ENDMDL
MODEL 2
REMARK VINA RESULT:    -8.023      1.487      1.988
REMARK INTER + INTRA:         -11.916
REMARK INTER:                 -10.875
REMARK INTRA:                  -1.041
REMARK UNBOUND:                -1.313
REMARK  6 active torsions:
REMARK  status: ('A' for Active; 'I' for Inactive)
REMARK    1  A    between atoms: N_6  and  C_7 
REMARK    2  A    between atoms: C_12  and  N_13 
REMARK       I    between atoms: N_13  and  C_15 
REMARK    3  A    between atoms: C_15  and  C_17 
REMARK    4  A    between atoms: C_18  and  O_20 
REMARK    5  A    between atoms: C_24  and  C_28 
REMARK       I    between atoms: C_28  and  N_30 
REMARK    6  A    between atoms: C_32  and  O_33 
ROOT
HETATM    1  C   UNL     1       0.352   9.098  25.301  0.00  0.00     0.066 C 
HETATM    2  C   UNL     1      -0.013   9.149  26.663  0.00  0.00     0.083 C 
HETATM    3  C   UNL     1      -1.205   9.749  27.100  0.00  0.00     0.069 C 
HETATM    4  C   UNL     1      -0.557   9.618  24.357  0.00  0.00     0.036 C 
HETATM    5  C   UNL     1      -1.684  10.363  24.782  0.00  0.00     0.029 C 
HETATM    6  C   UNL     1      -1.995  10.365  26.135  0.00  0.00     0.065 C 
HETATM    7  C   UNL     1      -2.632  11.260  24.182  0.00  0.00     0.157 C 
HETATM    8  N   UNL     1      -3.571  11.625  25.085  0.00  0.00    -0.168 NA
HETATM    9  N   UNL     1      -3.168  11.064  26.231  0.00  0.00    -0.277 N 
HETATM   10  H   UNL     1      -3.722  11.224  27.065  0.00  0.00     0.189 HD
ENDROOT
BRANCH   1  11
HETATM   11  C   UNL     1       1.702   8.503  24.932  0.00  0.00     0.260 C 
HETATM   12  N   UNL     1       1.806   7.280  24.215  0.00  0.00    -0.318 N 
HETATM   13  C   UNL     1       0.602   6.578  23.759  0.00  0.00     0.159 C 
HETATM   14  O   UNL     1       2.658   9.217  25.251  0.00  0.00    -0.267 OA
BRANCH  12  15
HETATM   15  C   UNL     1       3.079   6.711  23.767  0.00  0.00     0.037 A 
HETATM   16  C   UNL     1       3.530   5.481  24.271  0.00  0.00     0.032 A 
HETATM   17  C   UNL     1       4.646   4.804  23.746  0.00  0.00     0.031 A 
HETATM   18  C   UNL     1       5.422   5.328  22.711  0.00  0.00     0.030 A 
HETATM   19  C   UNL     1       5.048   6.608  22.286  0.00  0.00     0.031 A 
HETATM   20  C   UNL     1       3.906   7.284  22.795  0.00  0.00     0.032 A 
BRANCH  18  21
HETATM   21  N   UNL     1       6.482   4.621  22.184  0.00  0.00    -0.377 N 
HETATM   22  C   UNL     1       7.897   4.928  22.450  0.00  0.00     0.149 C 
HETATM   23  C   UNL     1       8.618   5.295  21.143  0.00  0.00     0.187 C 
HETATM   24  O   UNL     1       8.476   4.263  20.151  0.00  0.00    -0.388 OA
HETATM   25  C   UNL     1       7.086   4.043  19.859  0.00  0.00     0.187 C 
HETATM   26  C   UNL     1       6.300   3.619  21.113  0.00  0.00     0.149 C 
ENDBRANCH  18  21
ENDBRANCH  12  15
ENDBRANCH   1  11
BRANCH   2  27
HETATM   27  O   UNL     1       0.765   8.631  27.668  0.00  0.00    -0.360 OA
HETATM   28  H   UNL     1       1.633   8.388  27.277  0.00  0.00     0.217 HD
ENDBRANCH   2  27
BRANCH   7  29
HETATM   29  C   UNL     1      -2.606  11.771  22.789  0.00  0.00     0.275 C 
HETATM   30  O   UNL     1      -2.844  11.005  21.853  0.00  0.00    -0.266 OA
HETATM   31  N   UNL     1      -2.248  13.124  22.547  0.00  0.00    -0.344 N 
HETATM   32  C   UNL     1      -2.221  13.553  21.145  0.00  0.00     0.158 C 
HETATM   33  C   UNL     1      -1.334  13.854  23.429  0.00  0.00     0.126 C 
HETATM   34  C   UNL     1      -2.290  15.084  20.933  0.00  0.00     0.139 C 
HETATM   35  C   UNL     1      -1.325  15.821  21.866  0.00  0.00     0.035 C 
HETATM   36  C   UNL     1      -1.497  15.365  23.312  0.00  0.00     0.022 C 
BRANCH  34  37
HETATM   37  O   UNL     1      -3.599  15.623  21.166  0.00  0.00    -0.389 OA
HETATM   38  C   UNL     1      -3.939  16.693  20.294  0.00  0.00     0.202 C 
ENDBRANCH  34  37
ENDBRANCH   7  29
TORSDOF 6
ENDMDL
MODEL 3
REMARK VINA RESULT:    -7.895      1.873      2.494
REMARK INTER + INTRA:         -11.747
REMARK INTER:                 -11.416
REMARK INTRA:                  -0.331
REMARK UNBOUND:                -1.313
REMARK  6 active torsions:
REMARK  status: ('A' for Active; 'I' for Inactive)
REMARK    1  A    between atoms: N_6  and  C_7 
REMARK    2  A    between atoms: C_12  and  N_13 
REMARK       I    between atoms: N_13  and  C_15 
REMARK    3  A    between atoms: C_15  and  C_17 
REMARK    4  A    between atoms: C_18  and  O_20 
REMARK    5  A    between atoms: C_24  and  C_28 
REMARK       I    between atoms: C_28  and  N_30 
REMARK    6  A    between atoms: C_32  and  O_33 
ROOT
HETATM    1  C   UNL     1       0.143   9.220  25.099  0.00  0.00     0.066 C 
HETATM    2  C   UNL     1      -0.256   9.387  26.442  0.00  0.00     0.083 C 
HETATM    3  C   UNL     1      -1.455  10.024  26.796  0.00  0.00     0.069 C 
HETATM    4  C   UNL     1      -0.739   9.660  24.091  0.00  0.00     0.036 C 
HETATM    5  C   UNL     1      -1.873  10.442  24.423  0.00  0.00     0.029 C 
HETATM    6  C   UNL     1      -2.218  10.560  25.763  0.00  0.00     0.065 C 
HETATM    7  C   UNL     1      -2.801  11.287  23.725  0.00  0.00     0.157 C 
HETATM    8  N   UNL     1      -3.760  11.731  24.570  0.00  0.00    -0.168 NA
HETATM    9  N   UNL     1      -3.390  11.267  25.769  0.00  0.00    -0.277 N 
HETATM   10  H   UNL     1      -3.963  11.499  26.572  0.00  0.00     0.189 HD
ENDROOT
BRANCH   1  11
HETATM   11  C   UNL     1       1.499   8.592  24.816  0.00  0.00     0.260 C 
HETATM   12  N   UNL     1       1.616   7.319  24.194  0.00  0.00    -0.318 N 
HETATM   13  C   UNL     1       0.421   6.592  23.755  0.00  0.00     0.159 C 
HETATM   14  O   UNL     1       2.451   9.322  25.111  0.00  0.00    -0.267 OA
BRANCH  12  15
HETATM   15  C   UNL     1       2.897   6.712  23.828  0.00  0.00     0.037 A 
HETATM   16  C   UNL     1       3.285   5.477  24.373  0.00  0.00     0.032 A 
HETATM   17  C   UNL     1       4.411   4.765  23.922  0.00  0.00     0.031 A 
HETATM   18  C   UNL     1       5.260   5.256  22.928  0.00  0.00     0.030 A 
HETATM   19  C   UNL     1       4.945   6.539  22.467  0.00  0.00     0.031 A 
HETATM   20  C   UNL     1       3.794   7.250  22.900  0.00  0.00     0.032 A 
BRANCH  18  21
HETATM   21  N   UNL     1       6.330   4.514  22.473  0.00  0.00    -0.377 N 
HETATM   22  C   UNL     1       6.916   3.374  23.196  0.00  0.00     0.149 C 
HETATM   23  C   UNL     1       8.384   3.664  23.552  0.00  0.00     0.187 C 
HETATM   24  O   UNL     1       9.154   4.005  22.386  0.00  0.00    -0.388 OA
HETATM   25  C   UNL     1       8.601   5.168  21.748  0.00  0.00     0.187 C 
HETATM   26  C   UNL     1       7.141   4.940  21.313  0.00  0.00     0.149 C 
ENDBRANCH  18  21
ENDBRANCH  12  15
ENDBRANCH   1  11
BRANCH   2  27
HETATM   27  O   UNL     1       0.494   8.953  27.506  0.00  0.00    -0.360 OA
HETATM   28  H   UNL     1       1.277   9.543  27.579  0.00  0.00     0.217 HD
ENDBRANCH   2  27
BRANCH   7  29
HETATM   29  C   UNL     1      -2.738  11.679  22.295  0.00  0.00     0.275 C 
HETATM   30  O   UNL     1      -2.109  10.981  21.498  0.00  0.00    -0.266 OA
HETATM   31  N   UNL     1      -3.352  12.888  21.874  0.00  0.00    -0.344 N 
HETATM   32  C   UNL     1      -3.229  13.223  20.451  0.00  0.00     0.158 C 
HETATM   33  C   UNL     1      -3.487  14.043  22.765  0.00  0.00     0.126 C 
HETATM   34  C   UNL     1      -4.262  14.254  19.935  0.00  0.00     0.139 C 
HETATM   35  C   UNL     1      -4.381  15.449  20.886  0.00  0.00     0.035 C 
HETATM   36  C   UNL     1      -4.595  14.991  22.325  0.00  0.00     0.022 C 
BRANCH  34  37
HETATM   37  O   UNL     1      -5.577  13.701  19.783  0.00  0.00    -0.389 OA
HETATM   38  C   UNL     1      -5.882  13.311  18.450  0.00  0.00     0.202 C 
ENDBRANCH  34  37
ENDBRANCH   7  29
TORSDOF 6
ENDMDL
MODEL 4
REMARK VINA RESULT:    -7.806      4.597      5.788
REMARK INTER + INTRA:         -11.629
REMARK INTER:                 -10.858
REMARK INTRA:                  -0.770
REMARK UNBOUND:                -1.313
REMARK  6 active torsions:
REMARK  status: ('A' for Active; 'I' for Inactive)
REMARK    1  A    between atoms: N_6  and  C_7 
REMARK    2  A    between atoms: C_12  and  N_13 
REMARK       I    between atoms: N_13  and  C_15 
REMARK    3  A    between atoms: C_15  and  C_17 
REMARK    4  A    between atoms: C_18  and  O_20 
REMARK    5  A    between atoms: C_24  and  C_28 
REMARK       I    between atoms: C_28  and  N_30 
REMARK    6  A    between atoms: C_32  and  O_33 
ROOT
HETATM    1  C   UNL     1      -2.625  10.601  26.251  0.00  0.00     0.066 C 
HETATM    2  C   UNL     1      -3.996  10.904  26.388  0.00  0.00     0.083 C 
HETATM    3  C   UNL     1      -4.738  11.510  25.362  0.00  0.00     0.069 C 
HETATM    4  C   UNL     1      -2.013  10.866  25.010  0.00  0.00     0.036 C 
HETATM    5  C   UNL     1      -2.696  11.616  24.020  0.00  0.00     0.029 C 
HETATM    6  C   UNL     1      -4.047  11.873  24.210  0.00  0.00     0.065 C 
HETATM    7  C   UNL     1      -2.350  12.317  22.816  0.00  0.00     0.157 C 
HETATM    8  N   UNL     1      -3.463  12.803  22.218  0.00  0.00    -0.168 NA
HETATM    9  N   UNL     1      -4.454  12.508  23.067  0.00  0.00    -0.277 N 
HETATM   10  H   UNL     1      -5.394  12.802  22.829  0.00  0.00     0.189 HD
ENDROOT
BRANCH   1  11
HETATM   11  C   UNL     1      -1.886  10.021  27.448  0.00  0.00     0.260 C 
HETATM   12  N   UNL     1      -0.980   8.934  27.309  0.00  0.00    -0.318 N 
HETATM   13  C   UNL     1      -0.689   8.371  25.988  0.00  0.00     0.159 C 
HETATM   14  O   UNL     1      -2.101  10.630  28.501  0.00  0.00    -0.267 OA
BRANCH  12  15
HETATM   15  C   UNL     1      -0.186   8.398  28.417  0.00  0.00     0.037 A 
HETATM   16  C   UNL     1       1.185   8.681  28.516  0.00  0.00     0.032 A 
HETATM   17  C   UNL     1       1.953   8.347  29.647  0.00  0.00     0.031 A 
HETATM   18  C   UNL     1       1.419   7.664  30.740  0.00  0.00     0.030 A 
HETATM   19  C   UNL     1       0.083   7.275  30.595  0.00  0.00     0.031 A 
HETATM   20  C   UNL     1      -0.704   7.633  29.466  0.00  0.00     0.032 A 
BRANCH  18  21
HETATM   21  N   UNL     1       2.184   7.391  31.855  0.00  0.00    -0.377 N 
HETATM   22  C   UNL     1       3.212   6.340  31.918  0.00  0.00     0.149 C 
HETATM   23  C   UNL     1       2.845   5.296  32.986  0.00  0.00     0.187 C 
HETATM   24  O   UNL     1       2.630   5.906  34.271  0.00  0.00    -0.388 OA
HETATM   25  C   UNL     1       1.567   6.871  34.191  0.00  0.00     0.187 C 
HETATM   26  C   UNL     1       1.884   7.985  33.175  0.00  0.00     0.149 C 
ENDBRANCH  18  21
ENDBRANCH  12  15
ENDBRANCH   1  11
BRANCH   2  27
HETATM   27  O   UNL     1      -4.712  10.644  27.530  0.00  0.00    -0.360 OA
HETATM   28  H   UNL     1      -5.356  11.377  27.651  0.00  0.00     0.217 HD
ENDBRANCH   2  27
BRANCH   7  29
HETATM   29  C   UNL     1      -0.983  12.538  22.282  0.00  0.00     0.275 C 
HETATM   30  O   UNL     1      -0.387  11.612  21.727  0.00  0.00    -0.266 OA
HETATM   31  N   UNL     1      -0.353  13.797  22.472  0.00  0.00    -0.344 N 
HETATM   32  C   UNL     1       1.007  13.935  21.939  0.00  0.00     0.158 C 
HETATM   33  C   UNL     1      -0.646  14.645  23.629  0.00  0.00     0.126 C 
HETATM   34  C   UNL     1       1.480  15.394  21.740  0.00  0.00     0.139 C 
HETATM   35  C   UNL     1       1.162  16.257  22.964  0.00  0.00     0.035 C 
HETATM   36  C   UNL     1      -0.297  16.108  23.381  0.00  0.00     0.022 C 
BRANCH  34  37
HETATM   37  O   UNL     1       0.875  16.030  20.604  0.00  0.00    -0.389 OA
HETATM   38  C   UNL     1       1.496  17.254  20.237  0.00  0.00     0.202 C 
ENDBRANCH  34  37
ENDBRANCH   7  29
TORSDOF 6
ENDMDL
MODEL 5
REMARK VINA RESULT:    -7.750      4.413      6.460
REMARK INTER + INTRA:         -11.555
REMARK INTER:                 -11.106
REMARK INTRA:                  -0.448
REMARK UNBOUND:                -1.313
REMARK  6 active torsions:
REMARK  status: ('A' for Active; 'I' for Inactive)
REMARK    1  A    between atoms: N_6  and  C_7 
REMARK    2  A    between atoms: C_12  and  N_13 
REMARK       I    between atoms: N_13  and  C_15 
REMARK    3  A    between atoms: C_15  and  C_17 
REMARK    4  A    between atoms: C_18  and  O_20 
REMARK    5  A    between atoms: C_24  and  C_28 
REMARK       I    between atoms: C_28  and  N_30 
REMARK    6  A    between atoms: C_32  and  O_33 
ROOT
HETATM    1  C   UNL     1      -2.388  13.062  23.360  0.00  0.00     0.066 C 
HETATM    2  C   UNL     1      -3.654  13.189  22.751  0.00  0.00     0.083 C 
HETATM    3  C   UNL     1      -3.913  14.135  21.746  0.00  0.00     0.069 C 
HETATM    4  C   UNL     1      -1.343  13.879  22.882  0.00  0.00     0.036 C 
HETATM    5  C   UNL     1      -1.617  14.941  21.985  0.00  0.00     0.029 C 
HETATM    6  C   UNL     1      -2.881  15.006  21.413  0.00  0.00     0.065 C 
HETATM    7  C   UNL     1      -0.938  16.117  21.519  0.00  0.00     0.157 C 
HETATM    8  N   UNL     1      -1.678  16.744  20.575  0.00  0.00    -0.168 NA
HETATM    9  N   UNL     1      -2.819  16.048  20.528  0.00  0.00    -0.277 N 
HETATM   10  H   UNL     1      -3.545  16.357  19.891  0.00  0.00     0.189 HD
ENDROOT
BRANCH   1  11
HETATM   11  C   UNL     1      -2.225  12.066  24.498  0.00  0.00     0.260 C 
HETATM   12  N   UNL     1      -1.454  10.882  24.348  0.00  0.00    -0.318 N 
HETATM   13  C   UNL     1      -0.742  10.610  23.096  0.00  0.00     0.159 C 
HETATM   14  O   UNL     1      -2.760  12.431  25.550  0.00  0.00    -0.267 OA
BRANCH  12  15
HETATM   15  C   UNL     1      -1.203   9.937  25.438  0.00  0.00     0.037 A 
HETATM   16  C   UNL     1      -0.604   8.693  25.183  0.00  0.00     0.032 A 
HETATM   17  C   UNL     1      -0.175   7.828  26.207  0.00  0.00     0.031 A 
HETATM   18  C   UNL     1      -0.356   8.121  27.560  0.00  0.00     0.030 A 
HETATM   19  C   UNL     1      -1.058   9.304  27.816  0.00  0.00     0.031 A 
HETATM   20  C   UNL     1      -1.470  10.193  26.787  0.00  0.00     0.032 A 
BRANCH  18  21
HETATM   21  N   UNL     1       0.117   7.277  28.542  0.00  0.00    -0.377 N 
HETATM   22  C   UNL     1      -0.736   6.588  29.524  0.00  0.00     0.149 C 
HETATM   23  C   UNL     1      -0.376   7.036  30.951  0.00  0.00     0.187 C 
HETATM   24  O   UNL     1       1.021   6.840  31.231  0.00  0.00    -0.388 OA
HETATM   25  C   UNL     1       1.824   7.587  30.302  0.00  0.00     0.187 C 
HETATM   26  C   UNL     1       1.559   7.159  28.847  0.00  0.00     0.149 C 
ENDBRANCH  18  21
ENDBRANCH  12  15
ENDBRANCH   1  11
BRANCH   2  27
HETATM   27  O   UNL     1      -4.733  12.414  23.095  0.00  0.00    -0.360 OA
HETATM   28  H   UNL     1      -4.389  11.596  23.518  0.00  0.00     0.217 HD
ENDBRANCH   2  27
BRANCH   7  29
HETATM   29  C   UNL     1       0.369  16.633  21.998  0.00  0.00     0.275 C 
HETATM   30  O   UNL     1       0.422  17.719  22.576  0.00  0.00    -0.266 OA
HETATM   31  N   UNL     1       1.552  15.894  21.728  0.00  0.00    -0.344 N 
HETATM   32  C   UNL     1       2.810  16.476  22.211  0.00  0.00     0.158 C 
HETATM   33  C   UNL     1       1.685  15.046  20.542  0.00  0.00     0.126 C 
HETATM   34  C   UNL     1       3.985  15.477  22.325  0.00  0.00     0.139 C 
HETATM   35  C   UNL     1       4.101  14.604  21.072  0.00  0.00     0.035 C 
HETATM   36  C   UNL     1       2.759  13.977  20.709  0.00  0.00     0.022 C 
BRANCH  34  37
HETATM   37  O   UNL     1       3.860  14.592  23.448  0.00  0.00    -0.389 OA
HETATM   38  C   UNL     1       2.718  14.849  24.254  0.00  0.00     0.202 C 
ENDBRANCH  34  37
ENDBRANCH   7  29
TORSDOF 6
ENDMDL
MODEL 6
REMARK VINA RESULT:    -7.596      2.047      3.002
REMARK INTER + INTRA:         -11.352
REMARK INTER:                  -9.987
REMARK INTRA:                  -1.365
REMARK UNBOUND:                -1.313
REMARK  6 active torsions:
REMARK  status: ('A' for Active; 'I' for Inactive)
REMARK    1  A    between atoms: N_6  and  C_7 
REMARK    2  A    between atoms: C_12  and  N_13 
REMARK       I    between atoms: N_13  and  C_15 
REMARK    3  A    between atoms: C_15  and  C_17 
REMARK    4  A    between atoms: C_18  and  O_20 
REMARK    5  A    between atoms: C_24  and  C_28 
REMARK       I    between atoms: C_28  and  N_30 
REMARK    6  A    between atoms: C_32  and  O_33 
ROOT
HETATM    1  C   UNL     1       0.867   8.894  26.102  0.00  0.00     0.066 C 
HETATM    2  C   UNL     1       0.325   8.330  27.276  0.00  0.00     0.083 C 
HETATM    3  C   UNL     1      -0.839   8.829  27.882  0.00  0.00     0.069 C 
HETATM    4  C   UNL     1       0.165   9.956  25.497  0.00  0.00     0.036 C 
HETATM    5  C   UNL     1      -0.918  10.575  26.171  0.00  0.00     0.029 C 
HETATM    6  C   UNL     1      -1.411   9.964  27.316  0.00  0.00     0.065 C 
HETATM    7  C   UNL     1      -1.663  11.796  26.051  0.00  0.00     0.157 C 
HETATM    8  N   UNL     1      -2.670  11.824  26.955  0.00  0.00    -0.168 NA
HETATM    9  N   UNL     1      -2.498  10.712  27.680  0.00  0.00    -0.277 N 
HETATM   10  H   UNL     1      -3.140  10.533  28.444  0.00  0.00     0.189 HD
ENDROOT
BRANCH   1  11
HETATM   11  C   UNL     1       2.178   8.339  25.567  0.00  0.00     0.260 C 
HETATM   12  N   UNL     1       2.207   7.276  24.623  0.00  0.00    -0.318 N 
HETATM   13  C   UNL     1       0.960   6.716  24.093  0.00  0.00     0.159 C 
HETATM   14  O   UNL     1       3.173   8.945  25.976  0.00  0.00    -0.267 OA
BRANCH  12  15
HETATM   15  C   UNL     1       3.438   6.764  24.018  0.00  0.00     0.037 A 
HETATM   16  C   UNL     1       4.143   5.708  24.617  0.00  0.00     0.032 A 
HETATM   17  C   UNL     1       5.223   5.059  23.990  0.00  0.00     0.031 A 
HETATM   18  C   UNL     1       5.709   5.450  22.741  0.00  0.00     0.030 A 
HETATM   19  C   UNL     1       5.086   6.577  22.194  0.00  0.00     0.031 A 
HETATM   20  C   UNL     1       3.978   7.219  22.811  0.00  0.00     0.032 A 
BRANCH  18  21
HETATM   21  N   UNL     1       6.738   4.765  22.129  0.00  0.00    -0.377 N 
HETATM   22  C   UNL     1       8.135   5.226  22.097  0.00  0.00     0.149 C 
HETATM   23  C   UNL     1       8.588   5.459  20.645  0.00  0.00     0.187 C 
HETATM   24  O   UNL     1       8.397   4.286  19.836  0.00  0.00    -0.388 OA
HETATM   25  C   UNL     1       7.010   3.908  19.827  0.00  0.00     0.187 C 
HETATM   26  C   UNL     1       6.492   3.606  21.246  0.00  0.00     0.149 C 
ENDBRANCH  18  21
ENDBRANCH  12  15
ENDBRANCH   1  11
BRANCH   2  27
HETATM   27  O   UNL     1       0.891   7.261  27.925  0.00  0.00    -0.360 OA
HETATM   28  H   UNL     1       0.256   6.961  28.613  0.00  0.00     0.217 HD
ENDBRANCH   2  27
BRANCH   7  29
HETATM   29  C   UNL     1      -1.386  12.914  25.114  0.00  0.00     0.275 C 
HETATM   30  O   UNL     1      -1.070  14.019  25.559  0.00  0.00    -0.266 OA
HETATM   31  N   UNL     1      -1.548  12.711  23.717  0.00  0.00    -0.344 N 
HETATM   32  C   UNL     1      -1.279  13.866  22.854  0.00  0.00     0.158 C 
HETATM   33  C   UNL     1      -2.519  11.756  23.179  0.00  0.00     0.126 C 
HETATM   34  C   UNL     1      -1.009  13.518  21.371  0.00  0.00     0.139 C 
HETATM   35  C   UNL     1      -2.038  12.519  20.834  0.00  0.00     0.035 C 
HETATM   36  C   UNL     1      -2.176  11.316  21.761  0.00  0.00     0.022 C 
BRANCH  34  37
HETATM   37  O   UNL     1       0.289  12.944  21.158  0.00  0.00    -0.389 OA
HETATM   38  C   UNL     1       1.355  13.739  21.661  0.00  0.00     0.202 C 
ENDBRANCH  34  37
ENDBRANCH   7  29
TORSDOF 6
ENDMDL
MODEL 7
REMARK VINA RESULT:    -7.412      4.637      5.532
REMARK INTER + INTRA:         -11.109
REMARK INTER:                 -10.789
REMARK INTRA:                  -0.320
REMARK UNBOUND:                -1.313
REMARK  6 active torsions:
REMARK  status: ('A' for Active; 'I' for Inactive)
REMARK    1  A    between atoms: N_6  and  C_7 
REMARK    2  A    between atoms: C_12  and  N_13 
REMARK       I    between atoms: N_13  and  C_15 
REMARK    3  A    between atoms: C_15  and  C_17 
REMARK    4  A    between atoms: C_18  and  O_20 
REMARK    5  A    between atoms: C_24  and  C_28 
REMARK       I    between atoms: C_28  and  N_30 
REMARK    6  A    between atoms: C_32  and  O_33 
ROOT
HETATM    1  C   UNL     1      -2.595  11.140  26.410  0.00  0.00     0.066 C 
HETATM    2  C   UNL     1      -4.002  11.090  26.314  0.00  0.00     0.083 C 
HETATM    3  C   UNL     1      -4.728  11.942  25.467  0.00  0.00     0.069 C 
HETATM    4  C   UNL     1      -1.910  12.041  25.570  0.00  0.00     0.036 C 
HETATM    5  C   UNL     1      -2.625  13.013  24.827  0.00  0.00     0.029 C 
HETATM    6  C   UNL     1      -4.008  12.903  24.765  0.00  0.00     0.065 C 
HETATM    7  C   UNL     1      -2.318  14.230  24.129  0.00  0.00     0.157 C 
HETATM    8  N   UNL     1      -3.425  14.716  23.522  0.00  0.00    -0.168 NA
HETATM    9  N   UNL     1      -4.407  13.894  23.909  0.00  0.00    -0.277 N 
HETATM   10  H   UNL     1      -5.348  14.083  23.584  0.00  0.00     0.189 HD
ENDROOT
BRANCH   1  11
HETATM   11  C   UNL     1      -1.903  10.235  27.417  0.00  0.00     0.260 C 
HETATM   12  N   UNL     1      -1.035   9.187  27.005  0.00  0.00    -0.318 N 
HETATM   13  C   UNL     1      -0.738   8.982  25.584  0.00  0.00     0.159 C 
HETATM   14  O   UNL     1      -2.117  10.552  28.592  0.00  0.00    -0.267 OA
BRANCH  12  15
HETATM   15  C   UNL     1      -0.284   8.344  27.938  0.00  0.00     0.037 A 
HETATM   16  C   UNL     1       0.981   8.740  28.399  0.00  0.00     0.032 A 
HETATM   17  C   UNL     1       1.663   8.066  29.429  0.00  0.00     0.031 A 
HETATM   18  C   UNL     1       1.153   6.919  30.040  0.00  0.00     0.030 A 
HETATM   19  C   UNL     1      -0.051   6.453  29.502  0.00  0.00     0.031 A 
HETATM   20  C   UNL     1      -0.757   7.146  28.480  0.00  0.00     0.032 A 
BRANCH  18  21
HETATM   21  N   UNL     1       1.822   6.306  31.079  0.00  0.00    -0.377 N 
HETATM   22  C   UNL     1       1.470   6.467  32.499  0.00  0.00     0.149 C 
HETATM   23  C   UNL     1       2.641   7.102  33.270  0.00  0.00     0.187 C 
HETATM   24  O   UNL     1       3.854   6.348  33.105  0.00  0.00    -0.388 OA
HETATM   25  C   UNL     1       4.210   6.276  31.714  0.00  0.00     0.187 C 
HETATM   26  C   UNL     1       3.106   5.603  30.878  0.00  0.00     0.149 C 
ENDBRANCH  18  21
ENDBRANCH  12  15
ENDBRANCH   1  11
BRANCH   2  27
HETATM   27  O   UNL     1      -4.773  10.219  27.042  0.00  0.00    -0.360 OA
HETATM   28  H   UNL     1      -5.167   9.573  26.414  0.00  0.00     0.217 HD
ENDBRANCH   2  27
BRANCH   7  29
HETATM   29  C   UNL     1      -1.002  14.915  24.083  0.00  0.00     0.275 C 
HETATM   30  O   UNL     1      -0.291  14.941  25.089  0.00  0.00    -0.266 OA
HETATM   31  N   UNL     1      -0.605  15.586  22.895  0.00  0.00    -0.344 N 
HETATM   32  C   UNL     1       0.697  16.261  22.930  0.00  0.00     0.158 C 
HETATM   33  C   UNL     1      -1.579  16.180  21.977  0.00  0.00     0.126 C 
HETATM   34  C   UNL     1       1.304  16.570  21.541  0.00  0.00     0.139 C 
HETATM   35  C   UNL     1       0.265  17.190  20.602  0.00  0.00     0.035 C 
HETATM   36  C   UNL     1      -1.016  16.363  20.572  0.00  0.00     0.022 C 
BRANCH  34  37
HETATM   37  O   UNL     1       1.826  15.405  20.886  0.00  0.00    -0.389 OA
HETATM   38  C   UNL     1       2.737  15.700  19.835  0.00  0.00     0.202 C 
ENDBRANCH  34  37
ENDBRANCH   7  29
TORSDOF 6
ENDMDL
MODEL 8
REMARK VINA RESULT:    -7.279      2.373     10.054
REMARK INTER + INTRA:         -10.933
REMARK INTER:                  -9.620
REMARK INTRA:                  -1.313
REMARK UNBOUND:                -1.313
REMARK  6 active torsions:
REMARK  status: ('A' for Active; 'I' for Inactive)
REMARK    1  A    between atoms: N_6  and  C_7 
REMARK    2  A    between atoms: C_12  and  N_13 
REMARK       I    between atoms: N_13  and  C_15 
REMARK    3  A    between atoms: C_15  and  C_17 
REMARK    4  A    between atoms: C_18  and  O_20 
REMARK    5  A    between atoms: C_24  and  C_28 
REMARK       I    between atoms: C_28  and  N_30 
REMARK    6  A    between atoms: C_32  and  O_33 
ROOT
HETATM    1  C   UNL     1       1.767   5.592  24.798  0.00  0.00     0.066 C 
HETATM    2  C   UNL     1       1.603   4.812  25.963  0.00  0.00     0.083 C 
HETATM    3  C   UNL     1       2.467   3.754  26.287  0.00  0.00     0.069 C 
HETATM    4  C   UNL     1       2.882   5.323  23.979  0.00  0.00     0.036 C 
HETATM    5  C   UNL     1       3.672   4.168  24.200  0.00  0.00     0.029 C 
HETATM    6  C   UNL     1       3.467   3.448  25.370  0.00  0.00     0.065 C 
HETATM    7  C   UNL     1       4.649   3.413  23.467  0.00  0.00     0.157 C 
HETATM    8  N   UNL     1       5.141   2.411  24.232  0.00  0.00    -0.168 NA
HETATM    9  N   UNL     1       4.425   2.471  25.361  0.00  0.00    -0.277 N 
HETATM   10  H   UNL     1       4.612   1.787  26.085  0.00  0.00     0.189 HD
ENDROOT
BRANCH   1  11
HETATM   11  C   UNL     1       0.733   6.662  24.488  0.00  0.00     0.260 C 
HETATM   12  N   UNL     1       0.993   8.040  24.720  0.00  0.00    -0.318 N 
HETATM   13  C   UNL     1       2.299   8.478  25.220  0.00  0.00     0.159 C 
HETATM   14  O   UNL     1      -0.293   6.217  23.962  0.00  0.00    -0.267 OA
BRANCH  12  15
HETATM   15  C   UNL     1       0.060   9.111  24.361  0.00  0.00     0.037 A 
HETATM   16  C   UNL     1       0.261   9.876  23.201  0.00  0.00     0.032 A 
HETATM   17  C   UNL     1      -0.693  10.788  22.714  0.00  0.00     0.031 A 
HETATM   18  C   UNL     1      -1.897  11.038  23.374  0.00  0.00     0.030 A 
HETATM   19  C   UNL     1      -2.049  10.366  24.593  0.00  0.00     0.031 A 
HETATM   20  C   UNL     1      -1.100   9.425  25.076  0.00  0.00     0.032 A 
BRANCH  18  21
HETATM   21  N   UNL     1      -2.834  11.902  22.848  0.00  0.00    -0.377 N 
HETATM   22  C   UNL     1      -2.714  12.555  21.535  0.00  0.00     0.149 C 
HETATM   23  C   UNL     1      -2.672  14.084  21.701  0.00  0.00     0.187 C 
HETATM   24  O   UNL     1      -3.812  14.568  22.433  0.00  0.00    -0.388 OA
HETATM   25  C   UNL     1      -3.856  13.968  23.738  0.00  0.00     0.187 C 
HETATM   26  C   UNL     1      -3.951  12.433  23.657  0.00  0.00     0.149 C 
ENDBRANCH  18  21
ENDBRANCH  12  15
ENDBRANCH   1  11
BRANCH   2  27
HETATM   27  O   UNL     1       0.587   5.014  26.863  0.00  0.00    -0.360 OA
HETATM   28  H   UNL     1       0.457   5.984  26.953  0.00  0.00     0.217 HD
ENDBRANCH   2  27
BRANCH   7  29
HETATM   29  C   UNL     1       5.066   3.637  22.060  0.00  0.00     0.275 C 
HETATM   30  O   UNL     1       4.997   2.712  21.248  0.00  0.00    -0.266 OA
HETATM   31  N   UNL     1       5.598   4.898  21.680  0.00  0.00    -0.344 N 
HETATM   32  C   UNL     1       6.011   5.039  20.280  0.00  0.00     0.158 C 
HETATM   33  C   UNL     1       6.329   5.747  22.623  0.00  0.00     0.126 C 
HETATM   34  C   UNL     1       6.140   6.499  19.785  0.00  0.00     0.139 C 
HETATM   35  C   UNL     1       6.908   7.364  20.789  0.00  0.00     0.035 C 
HETATM   36  C   UNL     1       6.342   7.211  22.197  0.00  0.00     0.022 C 
BRANCH  34  37
HETATM   37  O   UNL     1       4.870   7.131  19.567  0.00  0.00    -0.389 OA
HETATM   38  C   UNL     1       4.664   7.551  18.225  0.00  0.00     0.202 C 
ENDBRANCH  34  37
ENDBRANCH   7  29
TORSDOF 6
ENDMDL
MODEL 9
REMARK VINA RESULT:    -7.242      2.495      9.550
REMARK INTER + INTRA:         -10.883
REMARK INTER:                  -9.591
REMARK INTRA:                  -1.292
REMARK UNBOUND:                -1.313
REMARK  6 active torsions:
REMARK  status: ('A' for Active; 'I' for Inactive)
REMARK    1  A    between atoms: N_6  and  C_7 
REMARK    2  A    between atoms: C_12  and  N_13 
REMARK       I    between atoms: N_13  and  C_15 
REMARK    3  A    between atoms: C_15  and  C_17 
REMARK    4  A    between atoms: C_18  and  O_20 
REMARK    5  A    between atoms: C_24  and  C_28 
REMARK       I    between atoms: C_28  and  N_30 
REMARK    6  A    between atoms: C_32  and  O_33 
ROOT
HETATM    1  C   UNL     1      -0.002   8.674  25.241  0.00  0.00     0.066 C 
HETATM    2  C   UNL     1      -0.620   8.386  26.477  0.00  0.00     0.083 C 
HETATM    3  C   UNL     1      -0.372   7.199  27.183  0.00  0.00     0.069 C 
HETATM    4  C   UNL     1       0.942   7.751  24.748  0.00  0.00     0.036 C 
HETATM    5  C   UNL     1       1.091   6.482  25.359  0.00  0.00     0.029 C 
HETATM    6  C   UNL     1       0.465   6.265  26.579  0.00  0.00     0.065 C 
HETATM    7  C   UNL     1       1.683   5.219  25.017  0.00  0.00     0.157 C 
HETATM    8  N   UNL     1       1.584   4.356  26.054  0.00  0.00    -0.168 NA
HETATM    9  N   UNL     1       0.867   5.016  26.970  0.00  0.00    -0.277 N 
HETATM   10  H   UNL     1       0.647   4.544  27.840  0.00  0.00     0.189 HD
ENDROOT
BRANCH   1  11
HETATM   11  C   UNL     1      -0.397   9.947  24.510  0.00  0.00     0.260 C 
HETATM   12  N   UNL     1       0.465  11.076  24.460  0.00  0.00    -0.318 N 
HETATM   13  C   UNL     1       1.795  11.025  25.073  0.00  0.00     0.159 C 
HETATM   14  O   UNL     1      -1.482   9.862  23.925  0.00  0.00    -0.267 OA
BRANCH  12  15
HETATM   15  C   UNL     1       0.162  12.292  23.701  0.00  0.00     0.037 A 
HETATM   16  C   UNL     1      -0.523  13.359  24.303  0.00  0.00     0.032 A 
HETATM   17  C   UNL     1      -0.678  14.612  23.683  0.00  0.00     0.031 A 
HETATM   18  C   UNL     1      -0.203  14.877  22.397  0.00  0.00     0.030 A 
HETATM   19  C   UNL     1       0.376  13.780  21.748  0.00  0.00     0.031 A 
HETATM   20  C   UNL     1       0.558  12.521  22.380  0.00  0.00     0.032 A 
BRANCH  18  21
HETATM   21  N   UNL     1      -0.328  16.129  21.833  0.00  0.00    -0.377 N 
HETATM   22  C   UNL     1      -1.564  16.642  21.221  0.00  0.00     0.149 C 
HETATM   23  C   UNL     1      -1.335  16.947  19.730  0.00  0.00     0.187 C 
HETATM   24  O   UNL     1      -0.232  17.850  19.538  0.00  0.00    -0.388 OA
HETATM   25  C   UNL     1       0.974  17.284  20.078  0.00  0.00     0.187 C 
HETATM   26  C   UNL     1       0.842  16.997  21.586  0.00  0.00     0.149 C 
ENDBRANCH  18  21
ENDBRANCH  12  15
ENDBRANCH   1  11
BRANCH   2  27
HETATM   27  O   UNL     1      -1.516   9.231  27.082  0.00  0.00    -0.360 OA
HETATM   28  H   UNL     1      -1.044   9.695  27.809  0.00  0.00     0.217 HD
ENDBRANCH   2  27
BRANCH   7  29
HETATM   29  C   UNL     1       2.294   4.853  23.714  0.00  0.00     0.275 C 
HETATM   30  O   UNL     1       1.709   4.070  22.964  0.00  0.00    -0.266 OA
HETATM   31  N   UNL     1       3.577   5.362  23.376  0.00  0.00    -0.344 N 
HETATM   32  C   UNL     1       4.128   4.939  22.085  0.00  0.00     0.158 C 
HETATM   33  C   UNL     1       4.579   5.681  24.395  0.00  0.00     0.126 C 
HETATM   34  C   UNL     1       5.264   5.837  21.539  0.00  0.00     0.139 C 
HETATM   35  C   UNL     1       6.297   6.154  22.624  0.00  0.00     0.035 C 
HETATM   36  C   UNL     1       5.625   6.669  23.893  0.00  0.00     0.022 C 
BRANCH  34  37
HETATM   37  O   UNL     1       4.790   7.090  21.026  0.00  0.00    -0.389 OA
HETATM   38  C   UNL     1       4.956   7.233  19.622  0.00  0.00     0.202 C 
ENDBRANCH  34  37
ENDBRANCH   7  29
TORSDOF 6
ENDMDL
