MODEL 1
REMARK VINA RESULT:    -8.488      0.000      0.000
REMARK INTER + INTRA:          -8.736
REMARK INTER:                  -8.736
REMARK INTRA:                   0.000
REMARK UNBOUND:                 0.000
REMARK  2 active torsions:
REMARK  status: ('A' for Active; 'I' for Inactive)
REMARK    1  A    between atoms: C_17  and  O_18 
REMARK    2  A    between atoms: C_20  and  O_21 
ROOT
HETATM    1  C   UNL     1       4.800   6.667  19.101  0.00  0.00     0.040 C 
HETATM    2  C   UNL     1       5.960   8.144  20.132  0.00  0.00     0.130 C 
HETATM    3  C   UNL     1       4.550   8.715  18.819  0.00  0.00     0.067 C 
HETATM    4  C   UNL     1       5.211   9.630  17.963  0.00  0.00     0.157 A 
HETATM    5  O   UNL     1       4.676  10.737  17.258  0.00  0.00    -0.371 OA
HETATM    6  C   UNL     1       4.835  10.857  18.665  0.00  0.00     0.174 A 
HETATM    7  C   UNL     1       5.885  11.403  19.462  0.00  0.00     0.007 C 
HETATM    8  C   UNL     1       5.864  11.329  20.791  0.00  0.00    -0.001 C 
HETATM    9  C   UNL     1       6.813  12.019  21.568  0.00  0.00     0.003 C 
HETATM   10  C   UNL     1       6.669  12.010  22.885  0.00  0.00     0.050 C 
HETATM   11  C   UNL     1       7.731  12.626  23.579  0.00  0.00     0.150 C 
HETATM   12  O   UNL     1       8.752  12.932  22.918  0.00  0.00    -0.293 OA
HETATM   13  C   UNL     1       7.622  12.462  25.099  0.00  0.00     0.107 C 
HETATM   14  C   UNL     1       9.037  12.624  25.064  0.00  0.00     0.079 A 
HETATM   15  C   UNL     1       9.467  14.334  25.165  0.00  0.00     0.062 C 
HETATM   16 CL   UNL     1       8.650  15.411  24.002  0.00  0.00    -0.085 Cl
HETATM   17  C   UNL     1      10.599  14.961  25.596  0.00  0.00     0.084 C 
HETATM   18  C   UNL     1      11.248  13.958  26.162  0.00  0.00     0.055 C 
HETATM   19  C   UNL     1      10.681  12.331  25.623  0.00  0.00     0.126 A 
HETATM   20  C   UNL     1       9.504  11.129  24.558  0.00  0.00     0.053 A 
HETATM   21  C   UNL     1       8.263  10.016  23.085  0.00  0.00     0.290 C 
HETATM   22  O   UNL     1       7.902   9.495  24.128  0.00  0.00    -0.260 OA
HETATM   23  O   UNL     1       7.091   8.963  21.690  0.00  0.00    -0.313 OA
ENDROOT
BRANCH  17  24
HETATM   24  O   UNL     1      11.088  16.189  25.281  0.00  0.00    -0.359 OA
HETATM   25  H   UNL     1      10.946  16.761  26.075  0.00  0.00     0.217 HD
ENDBRANCH  17  24
BRANCH  19  26
HETATM   26  O   UNL     1      11.170  12.239  27.434  0.00  0.00    -0.379 OA
HETATM   27  H   UNL     1      11.163  13.065  28.171  0.00  0.00     0.211 HD
ENDBRANCH  19  26
TORSDOF 2
ENDMDL
MODEL 2
REMARK VINA RESULT:    -7.862      0.989      1.044
REMARK INTER + INTRA:          -8.091
REMARK INTER:                  -8.091
REMARK INTRA:                   0.000
REMARK UNBOUND:                 0.000
REMARK  2 active torsions:
REMARK  status: ('A' for Active; 'I' for Inactive)
REMARK    1  A    between atoms: C_17  and  O_18 
REMARK    2  A    between atoms: C_20  and  O_21 
ROOT
HETATM    1  C   UNL     1       3.833   6.406  18.713  0.00  0.00     0.040 C 
HETATM    2  C   UNL     1       5.127   7.849  19.623  0.00  0.00     0.130 C 
HETATM    3  C   UNL     1       3.803   8.430  18.229  0.00  0.00     0.067 C 
HETATM    4  C   UNL     1       4.569   9.183  17.304  0.00  0.00     0.157 A 
HETATM    5  O   UNL     1       4.162  10.265  16.483  0.00  0.00    -0.371 OA
HETATM    6  C   UNL     1       4.314  10.505  17.875  0.00  0.00     0.174 A 
HETATM    7  C   UNL     1       5.405  11.016  18.640  0.00  0.00     0.007 C 
HETATM    8  C   UNL     1       5.358  11.076  19.969  0.00  0.00    -0.001 C 
HETATM    9  C   UNL     1       6.364  11.738  20.698  0.00  0.00     0.003 C 
HETATM   10  C   UNL     1       6.201  11.874  22.006  0.00  0.00     0.050 C 
HETATM   11  C   UNL     1       7.313  12.442  22.662  0.00  0.00     0.150 C 
HETATM   12  O   UNL     1       8.369  12.575  21.999  0.00  0.00    -0.293 OA
HETATM   13  C   UNL     1       7.167  12.441  24.188  0.00  0.00     0.107 C 
HETATM   14  C   UNL     1       8.591  12.452  24.171  0.00  0.00     0.079 A 
HETATM   15  C   UNL     1       9.197  14.110  24.117  0.00  0.00     0.062 C 
HETATM   16 CL   UNL     1       8.514  15.146  22.835  0.00  0.00    -0.085 Cl
HETATM   17  C   UNL     1      10.383  14.657  24.511  0.00  0.00     0.084 C 
HETATM   18  C   UNL     1      10.914  13.653  25.187  0.00  0.00     0.055 C 
HETATM   19  C   UNL     1      10.187  12.048  24.795  0.00  0.00     0.126 A 
HETATM   20  C   UNL     1       8.905  10.874  23.823  0.00  0.00     0.053 A 
HETATM   21  C   UNL     1       7.574   9.755  22.436  0.00  0.00     0.290 C 
HETATM   22  O   UNL     1       7.146   9.381  23.516  0.00  0.00    -0.260 OA
HETATM   23  O   UNL     1       6.316   8.697  21.121  0.00  0.00    -0.313 OA
ENDROOT
BRANCH  17  24
HETATM   24  O   UNL     1      11.002  15.790  24.091  0.00  0.00    -0.359 OA
HETATM   25  H   UNL     1      11.061  15.731  23.106  0.00  0.00     0.217 HD
ENDBRANCH  17  24
BRANCH  19  26
HETATM   26  O   UNL     1      10.640  12.085  26.618  0.00  0.00    -0.379 OA
HETATM   27  H   UNL     1       9.948  12.024  27.479  0.00  0.00     0.211 HD
ENDBRANCH  19  26
TORSDOF 2
ENDMDL
MODEL 3
REMARK VINA RESULT:    -7.437      3.185      8.318
REMARK INTER + INTRA:          -7.654
REMARK INTER:                  -7.654
REMARK INTRA:                   0.000
REMARK UNBOUND:                 0.000
REMARK  2 active torsions:
REMARK  status: ('A' for Active; 'I' for Inactive)
REMARK    1  A    between atoms: C_17  and  O_18 
REMARK    2  A    between atoms: C_20  and  O_21 
ROOT
HETATM    1  C   UNL     1       8.169  14.423  26.314  0.00  0.00     0.040 C 
HETATM    2  C   UNL     1       7.188  13.222  24.836  0.00  0.00     0.130 C 
HETATM    3  C   UNL     1       6.892  15.209  24.870  0.00  0.00     0.067 C 
HETATM    4  C   UNL     1       5.484  15.359  24.847  0.00  0.00     0.157 A 
HETATM    5  O   UNL     1       4.709  16.417  24.308  0.00  0.00    -0.371 OA
HETATM    6  C   UNL     1       5.331  15.517  23.401  0.00  0.00     0.174 A 
HETATM    7  C   UNL     1       4.852  14.342  22.747  0.00  0.00     0.007 C 
HETATM    8  C   UNL     1       5.651  13.589  21.993  0.00  0.00    -0.001 C 
HETATM    9  C   UNL     1       5.130  12.537  21.217  0.00  0.00     0.003 C 
HETATM   10  C   UNL     1       5.950  11.903  20.392  0.00  0.00     0.050 C 
HETATM   11  C   UNL     1       5.365  10.791  19.750  0.00  0.00     0.150 C 
HETATM   12  O   UNL     1       4.239  10.417  20.155  0.00  0.00    -0.293 OA
HETATM   13  C   UNL     1       6.374   9.981  18.928  0.00  0.00     0.107 C 
HETATM   14  C   UNL     1       5.466   8.908  19.155  0.00  0.00     0.079 A 
HETATM   15  C   UNL     1       4.231   8.865  17.893  0.00  0.00     0.062 C 
HETATM   16 CL   UNL     1       3.375  10.400  17.589  0.00  0.00    -0.085 Cl
HETATM   17  C   UNL     1       3.453   7.849  17.418  0.00  0.00     0.084 C 
HETATM   18  C   UNL     1       4.023   6.802  17.988  0.00  0.00     0.055 C 
HETATM   19  C   UNL     1       5.040   7.220  19.420  0.00  0.00     0.126 A 
HETATM   20  C   UNL     1       5.842   8.511  20.707  0.00  0.00     0.053 A 
HETATM   21  C   UNL     1       6.398  10.103  22.158  0.00  0.00     0.290 C 
HETATM   22  O   UNL     1       7.501   9.690  21.837  0.00  0.00    -0.260 OA
HETATM   23  O   UNL     1       6.922  11.609  23.532  0.00  0.00    -0.313 OA
ENDROOT
BRANCH  17  24
HETATM   24  O   UNL     1       2.250   7.895  16.789  0.00  0.00    -0.359 OA
HETATM   25  H   UNL     1       1.589   8.182  17.465  0.00  0.00     0.217 HD
ENDBRANCH  17  24
BRANCH  19  26
HETATM   26  O   UNL     1       5.833   5.783  18.506  0.00  0.00    -0.379 OA
HETATM   27  H   UNL     1       5.315   4.954  17.989  0.00  0.00     0.211 HD
ENDBRANCH  19  26
TORSDOF 2
ENDMDL
MODEL 4
REMARK VINA RESULT:    -7.262      2.188      8.401
REMARK INTER + INTRA:          -7.474
REMARK INTER:                  -7.474
REMARK INTRA:                   0.000
REMARK UNBOUND:                 0.000
REMARK  2 active torsions:
REMARK  status: ('A' for Active; 'I' for Inactive)
REMARK    1  A    between atoms: C_17  and  O_18 
REMARK    2  A    between atoms: C_20  and  O_21 
ROOT
HETATM    1  C   UNL     1      10.890  16.618  25.360  0.00  0.00     0.040 C 
HETATM    2  C   UNL     1       9.963  15.018  24.277  0.00  0.00     0.130 C 
HETATM    3  C   UNL     1      10.783  14.666  26.077  0.00  0.00     0.067 C 
HETATM    4  C   UNL     1      11.624  13.545  25.871  0.00  0.00     0.157 A 
HETATM    5  O   UNL     1      11.996  12.529  26.787  0.00  0.00    -0.371 OA
HETATM    6  C   UNL     1      10.670  12.512  26.274  0.00  0.00     0.174 A 
HETATM    7  C   UNL     1      10.084  11.816  25.175  0.00  0.00     0.007 C 
HETATM    8  C   UNL     1       8.818  12.021  24.815  0.00  0.00    -0.001 C 
HETATM    9  C   UNL     1       8.203  11.208  23.845  0.00  0.00     0.003 C 
HETATM   10  C   UNL     1       6.909  11.376  23.617  0.00  0.00     0.050 C 
HETATM   11  C   UNL     1       6.413  10.601  22.549  0.00  0.00     0.150 C 
HETATM   12  O   UNL     1       7.250  10.005  21.830  0.00  0.00    -0.293 OA
HETATM   13  C   UNL     1       4.957  10.931  22.200  0.00  0.00     0.107 C 
HETATM   14  C   UNL     1       5.315  10.444  20.911  0.00  0.00     0.079 A 
HETATM   15  C   UNL     1       5.061   8.699  20.816  0.00  0.00     0.062 C 
HETATM   16 CL   UNL     1       5.806   7.733  22.117  0.00  0.00    -0.085 Cl
HETATM   17  C   UNL     1       4.832   7.871  19.756  0.00  0.00     0.084 C 
HETATM   18  C   UNL     1       4.605   8.746  18.793  0.00  0.00     0.055 C 
HETATM   19  C   UNL     1       5.231  10.400  19.152  0.00  0.00     0.126 A 
HETATM   20  C   UNL     1       6.145  11.735  20.315  0.00  0.00     0.053 A 
HETATM   21  C   UNL     1       7.419  12.958  21.668  0.00  0.00     0.290 C 
HETATM   22  O   UNL     1       6.412  13.645  21.618  0.00  0.00    -0.260 OA
HETATM   23  O   UNL     1       8.626  14.114  22.947  0.00  0.00    -0.313 OA
ENDROOT
BRANCH  17  24
HETATM   24  O   UNL     1       5.065   6.539  19.626  0.00  0.00    -0.359 OA
HETATM   25  H   UNL     1       5.809   6.321  20.239  0.00  0.00     0.217 HD
ENDBRANCH  17  24
BRANCH  19  26
HETATM   26  O   UNL     1       3.634  10.551  18.176  0.00  0.00    -0.379 OA
HETATM   27  H   UNL     1       3.369  10.019  17.242  0.00  0.00     0.211 HD
ENDBRANCH  19  26
TORSDOF 2
ENDMDL
MODEL 5
REMARK VINA RESULT:    -7.192      2.717      4.398
REMARK INTER + INTRA:          -7.402
REMARK INTER:                  -7.402
REMARK INTRA:                   0.000
REMARK UNBOUND:                 0.000
REMARK  2 active torsions:
REMARK  status: ('A' for Active; 'I' for Inactive)
REMARK    1  A    between atoms: C_17  and  O_18 
REMARK    2  A    between atoms: C_20  and  O_21 
ROOT
HETATM    1  C   UNL     1       3.968   5.780  18.324  0.00  0.00     0.040 C 
HETATM    2  C   UNL     1       4.443   7.353  19.699  0.00  0.00     0.130 C 
HETATM    3  C   UNL     1       5.675   5.776  19.516  0.00  0.00     0.067 C 
HETATM    4  C   UNL     1       5.887   5.335  20.846  0.00  0.00     0.157 A 
HETATM    5  O   UNL     1       7.021   4.691  21.400  0.00  0.00    -0.371 OA
HETATM    6  C   UNL     1       7.123   6.076  21.099  0.00  0.00     0.174 A 
HETATM    7  C   UNL     1       6.936   7.241  21.901  0.00  0.00     0.007 C 
HETATM    8  C   UNL     1       6.997   8.465  21.379  0.00  0.00    -0.001 C 
HETATM    9  C   UNL     1       6.984   9.603  22.206  0.00  0.00     0.003 C 
HETATM   10  C   UNL     1       7.173  10.787  21.642  0.00  0.00     0.050 C 
HETATM   11  C   UNL     1       7.023  11.872  22.531  0.00  0.00     0.150 C 
HETATM   12  O   UNL     1       6.555  11.626  23.669  0.00  0.00    -0.293 OA
HETATM   13  C   UNL     1       7.087  13.232  21.826  0.00  0.00     0.107 C 
HETATM   14  C   UNL     1       6.307  13.671  22.933  0.00  0.00     0.079 A 
HETATM   15  C   UNL     1       7.353  14.184  24.262  0.00  0.00     0.062 C 
HETATM   16 CL   UNL     1       8.607  13.017  24.759  0.00  0.00    -0.085 Cl
HETATM   17  C   UNL     1       7.146  15.046  25.299  0.00  0.00     0.084 C 
HETATM   18  C   UNL     1       6.009  15.614  24.936  0.00  0.00     0.055 C 
HETATM   19  C   UNL     1       5.080  14.663  23.715  0.00  0.00     0.126 A 
HETATM   20  C   UNL     1       4.824  13.098  22.510  0.00  0.00     0.053 A 
HETATM   21  C   UNL     1       4.644  11.147  21.457  0.00  0.00     0.290 C 
HETATM   22  O   UNL     1       4.558  11.923  20.519  0.00  0.00    -0.260 OA
HETATM   23  O   UNL     1       4.474   9.300  20.463  0.00  0.00    -0.313 OA
ENDROOT
BRANCH  17  24
HETATM   24  O   UNL     1       7.751  15.109  26.513  0.00  0.00    -0.359 OA
HETATM   25  H   UNL     1       7.031  15.071  27.189  0.00  0.00     0.217 HD
ENDBRANCH  17  24
BRANCH  19  26
HETATM   26  O   UNL     1       4.841  16.495  23.374  0.00  0.00    -0.379 OA
HETATM   27  H   UNL     1       3.906  17.077  23.477  0.00  0.00     0.211 HD
ENDBRANCH  19  26
TORSDOF 2
ENDMDL
MODEL 6
REMARK VINA RESULT:    -7.063      2.927      8.072
REMARK INTER + INTRA:          -7.270
REMARK INTER:                  -7.270
REMARK INTRA:                   0.000
REMARK UNBOUND:                 0.000
REMARK  2 active torsions:
REMARK  status: ('A' for Active; 'I' for Inactive)
REMARK    1  A    between atoms: C_17  and  O_18 
REMARK    2  A    between atoms: C_20  and  O_21 
ROOT
HETATM    1  C   UNL     1      10.070  17.028  21.611  0.00  0.00     0.040 C 
HETATM    2  C   UNL     1       9.314  15.024  21.608  0.00  0.00     0.130 C 
HETATM    3  C   UNL     1      10.242  15.741  23.239  0.00  0.00     0.067 C 
HETATM    4  C   UNL     1      11.211  14.758  23.557  0.00  0.00     0.157 A 
HETATM    5  O   UNL     1      11.746  14.411  24.823  0.00  0.00    -0.371 OA
HETATM    6  C   UNL     1      10.415  14.010  24.529  0.00  0.00     0.174 A 
HETATM    7  C   UNL     1       9.879  12.793  24.012  0.00  0.00     0.007 C 
HETATM    8  C   UNL     1       8.584  12.666  23.727  0.00  0.00    -0.001 C 
HETATM    9  C   UNL     1       8.040  11.414  23.384  0.00  0.00     0.003 C 
HETATM   10  C   UNL     1       6.727  11.323  23.233  0.00  0.00     0.050 C 
HETATM   11  C   UNL     1       6.292  10.063  22.774  0.00  0.00     0.150 C 
HETATM   12  O   UNL     1       7.170   9.255  22.386  0.00  0.00    -0.293 OA
HETATM   13  C   UNL     1       4.793  10.031  22.455  0.00  0.00     0.107 C 
HETATM   14  C   UNL     1       5.159   8.974  21.573  0.00  0.00     0.079 A 
HETATM   15  C   UNL     1       5.127   7.424  22.419  0.00  0.00     0.062 C 
HETATM   16 CL   UNL     1       6.041   7.353  23.949  0.00  0.00    -0.085 Cl
HETATM   17  C   UNL     1       4.964   6.146  21.967  0.00  0.00     0.084 C 
HETATM   18  C   UNL     1       4.589   6.363  20.718  0.00  0.00     0.055 C 
HETATM   19  C   UNL     1       5.012   8.008  20.108  0.00  0.00     0.126 A 
HETATM   20  C   UNL     1       5.792   9.828  20.317  0.00  0.00     0.053 A 
HETATM   21  C   UNL     1       6.952  11.686  20.708  0.00  0.00     0.290 C 
HETATM   22  O   UNL     1       5.864  12.153  20.412  0.00  0.00    -0.260 OA
HETATM   23  O   UNL     1       8.052  13.442  21.078  0.00  0.00    -0.313 OA
ENDROOT
BRANCH  17  24
HETATM   24  O   UNL     1       5.360   4.971  22.520  0.00  0.00    -0.359 OA
HETATM   25  H   UNL     1       6.084   5.188  23.156  0.00  0.00     0.217 HD
ENDBRANCH  17  24
BRANCH  19  26
HETATM   26  O   UNL     1       3.371   7.482  19.361  0.00  0.00    -0.379 OA
HETATM   27  H   UNL     1       3.186   6.618  18.695  0.00  0.00     0.211 HD
ENDBRANCH  19  26
TORSDOF 2
ENDMDL
MODEL 7
REMARK VINA RESULT:    -7.001      3.447      8.924
REMARK INTER + INTRA:          -7.205
REMARK INTER:                  -7.205
REMARK INTRA:                   0.000
REMARK UNBOUND:                 0.000
REMARK  2 active torsions:
REMARK  status: ('A' for Active; 'I' for Inactive)
REMARK    1  A    between atoms: C_17  and  O_18 
REMARK    2  A    between atoms: C_20  and  O_21 
ROOT
HETATM    1  C   UNL     1       8.242  12.299  25.404  0.00  0.00     0.040 C 
HETATM    2  C   UNL     1       7.152  11.289  23.860  0.00  0.00     0.130 C 
HETATM    3  C   UNL     1       7.217  13.297  23.891  0.00  0.00     0.067 C 
HETATM    4  C   UNL     1       5.862  13.697  23.784  0.00  0.00     0.157 A 
HETATM    5  O   UNL     1       5.324  14.875  23.207  0.00  0.00    -0.371 OA
HETATM    6  C   UNL     1       5.828  13.875  22.333  0.00  0.00     0.174 A 
HETATM    7  C   UNL     1       5.187  12.803  21.642  0.00  0.00     0.007 C 
HETATM    8  C   UNL     1       5.881  11.916  20.931  0.00  0.00    -0.001 C 
HETATM    9  C   UNL     1       5.227  10.972  20.118  0.00  0.00     0.003 C 
HETATM   10  C   UNL     1       5.969  10.198  19.339  0.00  0.00     0.050 C 
HETATM   11  C   UNL     1       5.234   9.208  18.655  0.00  0.00     0.150 C 
HETATM   12  O   UNL     1       4.036   9.043  18.988  0.00  0.00    -0.293 OA
HETATM   13  C   UNL     1       6.129   8.227  17.888  0.00  0.00     0.107 C 
HETATM   14  C   UNL     1       5.031   7.335  18.052  0.00  0.00     0.079 A 
HETATM   15  C   UNL     1       3.887   7.510  16.718  0.00  0.00     0.062 C 
HETATM   16 CL   UNL     1       3.341   9.173  16.375  0.00  0.00    -0.085 Cl
HETATM   17  C   UNL     1       2.970   6.649  16.189  0.00  0.00     0.084 C 
HETATM   18  C   UNL     1       3.307   5.519  16.785  0.00  0.00     0.055 C 
HETATM   19  C   UNL     1       4.293   5.752  18.279  0.00  0.00     0.126 A 
HETATM   20  C   UNL     1       5.235   6.882  19.621  0.00  0.00     0.053 A 
HETATM   21  C   UNL     1       5.979   8.353  21.116  0.00  0.00     0.290 C 
HETATM   22  O   UNL     1       7.007   7.748  20.859  0.00  0.00    -0.260 OA
HETATM   23  O   UNL     1       6.680   9.745  22.530  0.00  0.00    -0.313 OA
ENDROOT
BRANCH  17  24
HETATM   24  O   UNL     1       1.835   6.908  15.489  0.00  0.00    -0.359 OA
HETATM   25  H   UNL     1       2.108   7.038  14.548  0.00  0.00     0.217 HD
ENDBRANCH  17  24
BRANCH  19  26
HETATM   26  O   UNL     1       4.869   4.193  17.404  0.00  0.00    -0.379 OA
HETATM   27  H   UNL     1       4.475   3.774  16.459  0.00  0.00     0.211 HD
ENDBRANCH  19  26
TORSDOF 2
ENDMDL
MODEL 8
REMARK VINA RESULT:    -6.949      2.422      4.035
REMARK INTER + INTRA:          -7.152
REMARK INTER:                  -7.152
REMARK INTRA:                   0.000
REMARK UNBOUND:                 0.000
REMARK  2 active torsions:
REMARK  status: ('A' for Active; 'I' for Inactive)
REMARK    1  A    between atoms: C_17  and  O_18 
REMARK    2  A    between atoms: C_20  and  O_21 
ROOT
HETATM    1  C   UNL     1       4.132   6.726  19.847  0.00  0.00     0.040 C 
HETATM    2  C   UNL     1       5.252   8.292  20.786  0.00  0.00     0.130 C 
HETATM    3  C   UNL     1       5.198   6.463  21.616  0.00  0.00     0.067 C 
HETATM    4  C   UNL     1       4.843   6.697  22.967  0.00  0.00     0.157 A 
HETATM    5  O   UNL     1       5.183   5.946  24.121  0.00  0.00    -0.371 OA
HETATM    6  C   UNL     1       6.197   6.738  23.518  0.00  0.00     0.174 A 
HETATM    7  C   UNL     1       6.662   8.060  23.791  0.00  0.00     0.007 C 
HETATM    8  C   UNL     1       7.582   8.648  23.028  0.00  0.00    -0.001 C 
HETATM    9  C   UNL     1       8.155   9.876  23.407  0.00  0.00     0.003 C 
HETATM   10  C   UNL     1       9.153  10.351  22.676  0.00  0.00     0.050 C 
HETATM   11  C   UNL     1       9.578  11.639  23.062  0.00  0.00     0.150 C 
HETATM   12  O   UNL     1       8.872  12.255  23.896  0.00  0.00    -0.293 OA
HETATM   13  C   UNL     1      10.619  12.233  22.106  0.00  0.00     0.107 C 
HETATM   14  C   UNL     1      10.123  13.479  22.583  0.00  0.00     0.079 A 
HETATM   15  C   UNL     1      11.000  13.982  24.032  0.00  0.00     0.062 C 
HETATM   16 CL   UNL     1      11.106  12.770  25.336  0.00  0.00    -0.085 Cl
HETATM   17  C   UNL     1      11.216  15.211  24.582  0.00  0.00     0.084 C 
HETATM   18  C   UNL     1      10.791  16.003  23.613  0.00  0.00     0.055 C 
HETATM   19  C   UNL     1       9.701  15.183  22.430  0.00  0.00     0.126 A 
HETATM   20  C   UNL     1       8.719  13.597  21.731  0.00  0.00     0.053 A 
HETATM   21  C   UNL     1       7.521  11.772  21.304  0.00  0.00     0.290 C 
HETATM   22  O   UNL     1       8.117  11.908  20.247  0.00  0.00    -0.260 OA
HETATM   23  O   UNL     1       6.387  10.046  20.902  0.00  0.00    -0.313 OA
ENDROOT
BRANCH  17  24
HETATM   24  O   UNL     1      11.496  15.554  25.866  0.00  0.00    -0.359 OA
HETATM   25  H   UNL     1      12.430  15.878  25.874  0.00  0.00     0.217 HD
ENDBRANCH  17  24
BRANCH  19  26
HETATM   26  O   UNL     1      10.753  16.444  21.519  0.00  0.00    -0.379 OA
HETATM   27  H   UNL     1      11.857  16.507  21.504  0.00  0.00     0.211 HD
ENDBRANCH  19  26
TORSDOF 2
ENDMDL
MODEL 9
REMARK VINA RESULT:    -6.941      2.804      4.752
REMARK INTER + INTRA:          -7.144
REMARK INTER:                  -7.144
REMARK INTRA:                   0.000
REMARK UNBOUND:                 0.000
REMARK  2 active torsions:
REMARK  status: ('A' for Active; 'I' for Inactive)
REMARK    1  A    between atoms: C_17  and  O_18 
REMARK    2  A    between atoms: C_20  and  O_21 
ROOT
HETATM    1  C   UNL     1       6.498   4.375  19.855  0.00  0.00     0.040 C 
HETATM    2  C   UNL     1       6.659   6.190  20.982  0.00  0.00     0.130 C 
HETATM    3  C   UNL     1       7.745   4.584  21.510  0.00  0.00     0.067 C 
HETATM    4  C   UNL     1       7.495   4.428  22.896  0.00  0.00     0.157 A 
HETATM    5  O   UNL     1       8.341   3.889  23.898  0.00  0.00    -0.371 OA
HETATM    6  C   UNL     1       8.652   5.178  23.385  0.00  0.00     0.174 A 
HETATM    7  C   UNL     1       8.327   6.489  23.845  0.00  0.00     0.007 C 
HETATM    8  C   UNL     1       8.654   7.575  23.147  0.00  0.00    -0.001 C 
HETATM    9  C   UNL     1       8.484   8.862  23.691  0.00  0.00     0.003 C 
HETATM   10  C   UNL     1       8.941   9.897  23.002  0.00  0.00     0.050 C 
HETATM   11  C   UNL     1       8.618  11.146  23.570  0.00  0.00     0.150 C 
HETATM   12  O   UNL     1       7.801  11.155  24.522  0.00  0.00    -0.293 OA
HETATM   13  C   UNL     1       9.015  12.327  22.675  0.00  0.00     0.107 C 
HETATM   14  C   UNL     1       7.972  13.005  23.368  0.00  0.00     0.079 A 
HETATM   15  C   UNL     1       8.594  13.762  24.837  0.00  0.00     0.062 C 
HETATM   16 CL   UNL     1       9.526  12.699  25.925  0.00  0.00    -0.085 Cl
HETATM   17  C   UNL     1       8.153  14.827  25.567  0.00  0.00     0.084 C 
HETATM   18  C   UNL     1       7.238  15.330  24.757  0.00  0.00     0.055 C 
HETATM   19  C   UNL     1       6.654  14.165  23.508  0.00  0.00     0.126 A 
HETATM   20  C   UNL     1       6.648  12.388  22.609  0.00  0.00     0.053 A 
HETATM   21  C   UNL     1       6.635  10.263  21.949  0.00  0.00     0.290 C 
HETATM   22  O   UNL     1       6.911  10.827  20.902  0.00  0.00    -0.260 OA
HETATM   23  O   UNL     1       6.621   8.253  21.326  0.00  0.00    -0.313 OA
ENDROOT
BRANCH  17  24
HETATM   24  O   UNL     1       8.355  15.130  26.876  0.00  0.00    -0.359 OA
HETATM   25  H   UNL     1       8.847  14.368  27.269  0.00  0.00     0.217 HD
ENDBRANCH  17  24
BRANCH  19  26
HETATM   26  O   UNL     1       6.692  15.889  22.764  0.00  0.00    -0.379 OA
HETATM   27  H   UNL     1       7.531  16.610  22.794  0.00  0.00     0.211 HD
ENDBRANCH  19  26
TORSDOF 2
ENDMDL
