MODEL 1
REMARK VINA RESULT:    -7.196      0.000      0.000
REMARK INTER + INTRA:         -11.206
REMARK INTER:                 -10.112
REMARK INTRA:                  -1.094
REMARK UNBOUND:                -1.486
REMARK  7 active torsions:
REMARK  status: ('A' for Active; 'I' for Inactive)
REMARK    1  A    between atoms: O_2  and  C_3 
REMARK    2  A    between atoms: C_6  and  C_9 
REMARK    3  A    between atoms: C_10  and  C_11 
REMARK       I    between atoms: C_11  and  N_13 
REMARK    4  A    between atoms: N_13  and  C_14 
REMARK    5  A    between atoms: C_18  and  C_19 
REMARK    6  A    between atoms: C_23  and  O_24 
REMARK    7  A    between atoms: C_26  and  O_27 
ROOT
HETATM    1  C   UNL     1       0.425  10.325  25.443  0.00  0.00     0.048 A 
HETATM    2  C   UNL     1      -0.458  11.420  25.106  0.00  0.00     0.165 A 
HETATM    3  N   UNL     1      -1.495  11.468  25.961  0.00  0.00    -0.121 NA
HETATM    4  O   UNL     1      -1.288  10.488  26.875  0.00  0.00    -0.211 OA
HETATM    5  C   UNL     1      -0.156   9.787  26.597  0.00  0.00     0.128 A 
ENDROOT
BRANCH   5   6
HETATM    6  C   UNL     1       0.124   8.766  27.626  0.00  0.00     0.036 A 
HETATM    7  C   UNL     1       0.629   9.112  28.891  0.00  0.00     0.044 A 
HETATM    8  C   UNL     1       0.832   8.141  29.877  0.00  0.00     0.068 A 
HETATM    9 CL   UNL     1       1.545   8.592  31.381  0.00  0.00    -0.081 Cl
HETATM   10  C   UNL     1       0.462   6.817  29.645  0.00  0.00     0.090 A 
HETATM   11  C   UNL     1      -0.049   6.442  28.413  0.00  0.00     0.075 A 
HETATM   12  C   UNL     1      -0.184   7.402  27.407  0.00  0.00     0.081 A 
BRANCH  10  13
HETATM   13  O   UNL     1       0.574   5.845  30.599  0.00  0.00    -0.359 OA
HETATM   14  H   UNL     1       1.269   6.125  31.225  0.00  0.00     0.217 HD
ENDBRANCH  10  13
BRANCH  12  15
HETATM   15  O   UNL     1      -0.620   6.989  26.176  0.00  0.00    -0.360 OA
HETATM   16  H   UNL     1      -1.151   7.688  25.762  0.00  0.00     0.217 HD
ENDBRANCH  12  15
ENDBRANCH   5   6
BRANCH   1  17
HETATM   17  C   UNL     1       1.715   9.883  24.903  0.00  0.00    -0.020 C 
HETATM   18  C   UNL     1       1.972   8.537  24.618  0.00  0.00     0.015 C 
HETATM   19  C   UNL     1       3.052   8.172  23.797  0.00  0.00     0.037 C 
HETATM   20  C   UNL     1       3.860   9.150  23.223  0.00  0.00     0.068 C 
HETATM   21  C   UNL     1       3.717  10.471  23.635  0.00  0.00     0.037 C 
HETATM   22  C   UNL     1       2.677  10.826  24.503  0.00  0.00     0.015 C 
BRANCH  20  23
HETATM   23  O   UNL     1       4.778   8.743  22.296  0.00  0.00    -0.356 OA
HETATM   24  C   UNL     1       4.220   7.925  21.264  0.00  0.00     0.210 C 
ENDBRANCH  20  23
ENDBRANCH   1  17
BRANCH   2  25
HETATM   25  C   UNL     1      -0.427  12.450  24.057  0.00  0.00     0.273 C 
HETATM   26  O   UNL     1       0.117  13.542  24.173  0.00  0.00    -0.266 OA
HETATM   27  N   UNL     1      -1.088  12.056  22.901  0.00  0.00    -0.356 N 
HETATM   28  H   UNL     1      -1.388  11.076  22.886  0.00  0.00     0.162 HD
BRANCH  27  29
HETATM   29  C   UNL     1      -1.146  12.839  21.689  0.00  0.00     0.118 C 
HETATM   30  C   UNL     1      -2.562  12.922  21.138  0.00  0.00     0.026 C 
ENDBRANCH  27  29
ENDBRANCH   2  25
TORSDOF 7
ENDMDL
MODEL 2
REMARK VINA RESULT:    -6.901      2.761      6.236
REMARK INTER + INTRA:         -10.808
REMARK INTER:                  -9.394
REMARK INTRA:                  -1.413
REMARK UNBOUND:                -1.486
REMARK  7 active torsions:
REMARK  status: ('A' for Active; 'I' for Inactive)
REMARK    1  A    between atoms: O_2  and  C_3 
REMARK    2  A    between atoms: C_6  and  C_9 
REMARK    3  A    between atoms: C_10  and  C_11 
REMARK       I    between atoms: C_11  and  N_13 
REMARK    4  A    between atoms: N_13  and  C_14 
REMARK    5  A    between atoms: C_18  and  C_19 
REMARK    6  A    between atoms: C_23  and  O_24 
REMARK    7  A    between atoms: C_26  and  O_27 
ROOT
HETATM    1  C   UNL     1       0.167   9.479  26.980  0.00  0.00     0.048 A 
HETATM    2  C   UNL     1      -0.351   9.187  28.298  0.00  0.00     0.165 A 
HETATM    3  N   UNL     1      -1.349  10.033  28.609  0.00  0.00    -0.121 NA
HETATM    4  O   UNL     1      -1.541  10.822  27.522  0.00  0.00    -0.211 OA
HETATM    5  C   UNL     1      -0.655  10.521  26.534  0.00  0.00     0.128 A 
ENDROOT
BRANCH   5   6
HETATM    6  C   UNL     1      -0.900  11.318  25.316  0.00  0.00     0.036 A 
HETATM    7  C   UNL     1      -0.159  12.478  25.032  0.00  0.00     0.044 A 
HETATM    8  C   UNL     1      -0.360  13.190  23.845  0.00  0.00     0.068 A 
HETATM    9 CL   UNL     1       0.499  14.662  23.579  0.00  0.00    -0.081 Cl
HETATM   10  C   UNL     1      -1.250  12.714  22.884  0.00  0.00     0.090 A 
HETATM   11  C   UNL     1      -1.989  11.567  23.126  0.00  0.00     0.075 A 
HETATM   12  C   UNL     1      -1.837  10.899  24.342  0.00  0.00     0.081 A 
BRANCH  10  13
HETATM   13  O   UNL     1      -1.430  13.332  21.679  0.00  0.00    -0.359 OA
HETATM   14  H   UNL     1      -2.370  13.238  21.437  0.00  0.00     0.217 HD
ENDBRANCH  10  13
BRANCH  12  15
HETATM   15  O   UNL     1      -2.636   9.812  24.586  0.00  0.00    -0.360 OA
HETATM   16  H   UNL     1      -2.113   8.997  24.523  0.00  0.00     0.217 HD
ENDBRANCH  12  15
ENDBRANCH   5   6
BRANCH   1  17
HETATM   17  C   UNL     1       1.177   8.827  26.139  0.00  0.00    -0.020 C 
HETATM   18  C   UNL     1       1.003   7.524  25.656  0.00  0.00     0.015 C 
HETATM   19  C   UNL     1       1.788   7.044  24.595  0.00  0.00     0.037 C 
HETATM   20  C   UNL     1       2.725   7.871  23.983  0.00  0.00     0.068 C 
HETATM   21  C   UNL     1       3.020   9.101  24.562  0.00  0.00     0.037 C 
HETATM   22  C   UNL     1       2.278   9.555  25.660  0.00  0.00     0.015 C 
BRANCH  20  23
HETATM   23  O   UNL     1       3.327   7.408  22.846  0.00  0.00    -0.356 OA
HETATM   24  C   UNL     1       4.232   8.346  22.260  0.00  0.00     0.210 C 
ENDBRANCH  20  23
ENDBRANCH   1  17
BRANCH   2  25
HETATM   25  C   UNL     1      -0.012   8.176  29.311  0.00  0.00     0.273 C 
HETATM   26  O   UNL     1       0.149   6.985  29.074  0.00  0.00    -0.266 OA
HETATM   27  N   UNL     1       0.109   8.714  30.585  0.00  0.00    -0.356 N 
HETATM   28  H   UNL     1       0.075   9.738  30.627  0.00  0.00     0.162 HD
BRANCH  27  29
HETATM   29  C   UNL     1       0.509   7.965  31.751  0.00  0.00     0.118 C 
HETATM   30  C   UNL     1       2.019   7.973  31.938  0.00  0.00     0.026 C 
ENDBRANCH  27  29
ENDBRANCH   2  25
TORSDOF 7
ENDMDL
MODEL 3
REMARK VINA RESULT:    -6.867      2.381      5.120
REMARK INTER + INTRA:         -10.762
REMARK INTER:                  -9.465
REMARK INTRA:                  -1.297
REMARK UNBOUND:                -1.486
REMARK  7 active torsions:
REMARK  status: ('A' for Active; 'I' for Inactive)
REMARK    1  A    between atoms: O_2  and  C_3 
REMARK    2  A    between atoms: C_6  and  C_9 
REMARK    3  A    between atoms: C_10  and  C_11 
REMARK       I    between atoms: C_11  and  N_13 
REMARK    4  A    between atoms: N_13  and  C_14 
REMARK    5  A    between atoms: C_18  and  C_19 
REMARK    6  A    between atoms: C_23  and  O_24 
REMARK    7  A    between atoms: C_26  and  O_27 
ROOT
HETATM    1  C   UNL     1       0.898   9.438  25.299  0.00  0.00     0.048 A 
HETATM    2  C   UNL     1       0.523  10.734  24.778  0.00  0.00     0.165 A 
HETATM    3  N   UNL     1       1.562  11.306  24.147  0.00  0.00    -0.121 NA
HETATM    4  O   UNL     1       2.579  10.409  24.183  0.00  0.00    -0.211 OA
HETATM    5  C   UNL     1       2.220   9.287  24.863  0.00  0.00     0.128 A 
ENDROOT
BRANCH   5   6
HETATM    6  C   UNL     1       3.289   8.270  24.846  0.00  0.00     0.036 A 
HETATM    7  C   UNL     1       3.517   7.420  25.943  0.00  0.00     0.044 A 
HETATM    8  C   UNL     1       4.494   6.421  25.891  0.00  0.00     0.068 A 
HETATM    9 CL   UNL     1       4.809   5.465  27.291  0.00  0.00    -0.081 Cl
HETATM   10  C   UNL     1       5.209   6.199  24.715  0.00  0.00     0.090 A 
HETATM   11  C   UNL     1       5.003   7.011  23.611  0.00  0.00     0.075 A 
HETATM   12  C   UNL     1       4.076   8.053  23.691  0.00  0.00     0.081 A 
BRANCH  10  13
HETATM   13  O   UNL     1       6.122   5.191  24.590  0.00  0.00    -0.359 OA
HETATM   14  H   UNL     1       6.509   5.033  25.471  0.00  0.00     0.217 HD
ENDBRANCH  10  13
BRANCH  12  15
HETATM   15  O   UNL     1       3.948   8.886  22.611  0.00  0.00    -0.360 OA
HETATM   16  H   UNL     1       3.629   9.756  22.901  0.00  0.00     0.217 HD
ENDBRANCH  12  15
ENDBRANCH   5   6
BRANCH   1  17
HETATM   17  C   UNL     1       0.143   8.382  25.981  0.00  0.00    -0.020 C 
HETATM   18  C   UNL     1      -0.391   7.291  25.285  0.00  0.00     0.015 C 
HETATM   19  C   UNL     1      -0.801   6.136  25.971  0.00  0.00     0.037 C 
HETATM   20  C   UNL     1      -0.645   6.045  27.351  0.00  0.00     0.068 C 
HETATM   21  C   UNL     1      -0.275   7.180  28.065  0.00  0.00     0.037 C 
HETATM   22  C   UNL     1       0.074   8.353  27.384  0.00  0.00     0.015 C 
BRANCH  20  23
HETATM   23  O   UNL     1      -0.894   4.834  27.934  0.00  0.00    -0.356 OA
HETATM   24  C   UNL     1      -0.801   3.735  27.025  0.00  0.00     0.210 C 
ENDBRANCH  20  23
ENDBRANCH   1  17
BRANCH   2  25
HETATM   25  C   UNL     1      -0.733  11.502  24.799  0.00  0.00     0.273 C 
HETATM   26  O   UNL     1      -1.181  12.069  25.788  0.00  0.00    -0.266 OA
HETATM   27  N   UNL     1      -1.370  11.519  23.566  0.00  0.00    -0.356 N 
HETATM   28  H   UNL     1      -0.830  11.115  22.793  0.00  0.00     0.162 HD
BRANCH  27  29
HETATM   29  C   UNL     1      -2.576  12.259  23.282  0.00  0.00     0.118 C 
HETATM   30  C   UNL     1      -2.624  12.728  21.836  0.00  0.00     0.026 C 
ENDBRANCH  27  29
ENDBRANCH   2  25
TORSDOF 7
ENDMDL
MODEL 4
REMARK VINA RESULT:    -6.786      1.347      1.709
REMARK INTER + INTRA:         -10.652
REMARK INTER:                  -9.520
REMARK INTRA:                  -1.132
REMARK UNBOUND:                -1.486
REMARK  7 active torsions:
REMARK  status: ('A' for Active; 'I' for Inactive)
REMARK    1  A    between atoms: O_2  and  C_3 
REMARK    2  A    between atoms: C_6  and  C_9 
REMARK    3  A    between atoms: C_10  and  C_11 
REMARK       I    between atoms: C_11  and  N_13 
REMARK    4  A    between atoms: N_13  and  C_14 
REMARK    5  A    between atoms: C_18  and  C_19 
REMARK    6  A    between atoms: C_23  and  O_24 
REMARK    7  A    between atoms: C_26  and  O_27 
ROOT
HETATM    1  C   UNL     1       0.297  10.034  25.416  0.00  0.00     0.048 A 
HETATM    2  C   UNL     1      -0.549  11.153  25.066  0.00  0.00     0.165 A 
HETATM    3  N   UNL     1      -1.633  11.190  25.860  0.00  0.00    -0.121 NA
HETATM    4  O   UNL     1      -1.494  10.177  26.752  0.00  0.00    -0.211 OA
HETATM    5  C   UNL     1      -0.358   9.467  26.515  0.00  0.00     0.128 A 
ENDROOT
BRANCH   5   6
HETATM    6  C   UNL     1      -0.153   8.409  27.523  0.00  0.00     0.036 A 
HETATM    7  C   UNL     1      -0.028   7.057  27.159  0.00  0.00     0.044 A 
HETATM    8  C   UNL     1       0.226   6.072  28.119  0.00  0.00     0.068 A 
HETATM    9 CL   UNL     1       0.274   4.414  27.644  0.00  0.00    -0.081 Cl
HETATM   10  C   UNL     1       0.438   6.427  29.449  0.00  0.00     0.090 A 
HETATM   11  C   UNL     1       0.333   7.751  29.842  0.00  0.00     0.075 A 
HETATM   12  C   UNL     1       0.009   8.723  28.893  0.00  0.00     0.081 A 
BRANCH  10  13
HETATM   13  O   UNL     1       0.759   5.511  30.412  0.00  0.00    -0.359 OA
HETATM   14  H   UNL     1       1.111   6.002  31.179  0.00  0.00     0.217 HD
ENDBRANCH  10  13
BRANCH  12  15
HETATM   15  O   UNL     1      -0.163  10.013  29.323  0.00  0.00    -0.360 OA
HETATM   16  H   UNL     1       0.605  10.550  29.071  0.00  0.00     0.217 HD
ENDBRANCH  12  15
ENDBRANCH   5   6
BRANCH   1  17
HETATM   17  C   UNL     1       1.609   9.589  24.935  0.00  0.00    -0.020 C 
HETATM   18  C   UNL     1       1.861   8.250  24.614  0.00  0.00     0.015 C 
HETATM   19  C   UNL     1       2.982   7.897  23.844  0.00  0.00     0.037 C 
HETATM   20  C   UNL     1       3.838   8.880  23.357  0.00  0.00     0.068 C 
HETATM   21  C   UNL     1       3.692  10.187  23.810  0.00  0.00     0.037 C 
HETATM   22  C   UNL     1       2.608  10.529  24.629  0.00  0.00     0.015 C 
BRANCH  20  23
HETATM   23  O   UNL     1       4.803   8.492  22.470  0.00  0.00    -0.356 OA
HETATM   24  C   UNL     1       4.565   8.947  21.136  0.00  0.00     0.210 C 
ENDBRANCH  20  23
ENDBRANCH   1  17
BRANCH   2  25
HETATM   25  C   UNL     1      -0.443  12.217  24.055  0.00  0.00     0.273 C 
HETATM   26  O   UNL     1       0.222  13.237  24.189  0.00  0.00    -0.266 OA
HETATM   27  N   UNL     1      -1.185  11.947  22.914  0.00  0.00    -0.356 N 
HETATM   28  H   UNL     1      -1.593  11.006  22.874  0.00  0.00     0.162 HD
BRANCH  27  29
HETATM   29  C   UNL     1      -1.202  12.780  21.735  0.00  0.00     0.118 C 
HETATM   30  C   UNL     1      -2.608  12.948  21.181  0.00  0.00     0.026 C 
ENDBRANCH  27  29
ENDBRANCH   2  25
TORSDOF 7
ENDMDL
MODEL 5
REMARK VINA RESULT:    -6.786      3.287      7.249
REMARK INTER + INTRA:         -10.652
REMARK INTER:                  -9.306
REMARK INTRA:                  -1.346
REMARK UNBOUND:                -1.486
REMARK  7 active torsions:
REMARK  status: ('A' for Active; 'I' for Inactive)
REMARK    1  A    between atoms: O_2  and  C_3 
REMARK    2  A    between atoms: C_6  and  C_9 
REMARK    3  A    between atoms: C_10  and  C_11 
REMARK       I    between atoms: C_11  and  N_13 
REMARK    4  A    between atoms: N_13  and  C_14 
REMARK    5  A    between atoms: C_18  and  C_19 
REMARK    6  A    between atoms: C_23  and  O_24 
REMARK    7  A    between atoms: C_26  and  O_27 
ROOT
HETATM    1  C   UNL     1       1.369   7.305  26.828  0.00  0.00     0.048 A 
HETATM    2  C   UNL     1       1.735   6.530  27.993  0.00  0.00     0.165 A 
HETATM    3  N   UNL     1       2.882   5.864  27.773  0.00  0.00    -0.121 NA
HETATM    4  O   UNL     1       3.308   6.224  26.536  0.00  0.00    -0.211 OA
HETATM    5  C   UNL     1       2.431   7.079  25.944  0.00  0.00     0.128 A 
ENDROOT
BRANCH   5   6
HETATM    6  C   UNL     1       2.917   7.539  24.629  0.00  0.00     0.036 A 
HETATM    7  C   UNL     1       3.345   8.862  24.422  0.00  0.00     0.044 A 
HETATM    8  C   UNL     1       3.860   9.268  23.187  0.00  0.00     0.068 A 
HETATM    9 CL   UNL     1       4.282  10.923  22.944  0.00  0.00    -0.081 Cl
HETATM   10  C   UNL     1       4.029   8.343  22.158  0.00  0.00     0.090 A 
HETATM   11  C   UNL     1       3.627   7.028  22.331  0.00  0.00     0.075 A 
HETATM   12  C   UNL     1       3.049   6.643  23.542  0.00  0.00     0.081 A 
BRANCH  10  13
HETATM   13  O   UNL     1       4.592   8.674  20.958  0.00  0.00    -0.359 OA
HETATM   14  H   UNL     1       4.405   7.947  20.335  0.00  0.00     0.217 HD
ENDBRANCH  10  13
BRANCH  12  15
HETATM   15  O   UNL     1       2.591   5.357  23.658  0.00  0.00    -0.360 OA
HETATM   16  H   UNL     1       3.035   4.914  24.399  0.00  0.00     0.217 HD
ENDBRANCH  12  15
ENDBRANCH   5   6
BRANCH   1  17
HETATM   17  C   UNL     1       0.283   8.256  26.565  0.00  0.00    -0.020 C 
HETATM   18  C   UNL     1      -0.036   9.278  27.467  0.00  0.00     0.015 C 
HETATM   19  C   UNL     1      -0.822  10.369  27.063  0.00  0.00     0.037 C 
HETATM   20  C   UNL     1      -1.265  10.468  25.747  0.00  0.00     0.068 C 
HETATM   21  C   UNL     1      -1.097   9.381  24.895  0.00  0.00     0.037 C 
HETATM   22  C   UNL     1      -0.364   8.265  25.318  0.00  0.00     0.015 C 
BRANCH  20  23
HETATM   23  O   UNL     1      -1.870  11.635  25.372  0.00  0.00    -0.356 OA
HETATM   24  C   UNL     1      -2.383  11.606  24.038  0.00  0.00     0.210 C 
ENDBRANCH  20  23
ENDBRANCH   1  17
BRANCH   2  25
HETATM   25  C   UNL     1       1.119   6.352  29.317  0.00  0.00     0.273 C 
HETATM   26  O   UNL     1       0.316   5.470  29.596  0.00  0.00    -0.266 OA
HETATM   27  N   UNL     1       1.545   7.301  30.237  0.00  0.00    -0.356 N 
HETATM   28  H   UNL     1       2.311   7.903  29.915  0.00  0.00     0.162 HD
BRANCH  27  29
HETATM   29  C   UNL     1       1.162   7.317  31.628  0.00  0.00     0.118 C 
HETATM   30  C   UNL     1       1.465   8.656  32.283  0.00  0.00     0.026 C 
ENDBRANCH  27  29
ENDBRANCH   2  25
TORSDOF 7
ENDMDL
MODEL 6
REMARK VINA RESULT:    -6.773      4.080      7.974
REMARK INTER + INTRA:         -10.635
REMARK INTER:                  -9.326
REMARK INTRA:                  -1.309
REMARK UNBOUND:                -1.486
REMARK  7 active torsions:
REMARK  status: ('A' for Active; 'I' for Inactive)
REMARK    1  A    between atoms: O_2  and  C_3 
REMARK    2  A    between atoms: C_6  and  C_9 
REMARK    3  A    between atoms: C_10  and  C_11 
REMARK       I    between atoms: C_11  and  N_13 
REMARK    4  A    between atoms: N_13  and  C_14 
REMARK    5  A    between atoms: C_18  and  C_19 
REMARK    6  A    between atoms: C_23  and  O_24 
REMARK    7  A    between atoms: C_26  and  O_27 
ROOT
HETATM    1  C   UNL     1       2.937   6.808  24.243  0.00  0.00     0.048 A 
HETATM    2  C   UNL     1       2.685   5.614  25.019  0.00  0.00     0.165 A 
HETATM    3  N   UNL     1       3.096   4.523  24.350  0.00  0.00    -0.121 NA
HETATM    4  O   UNL     1       3.660   4.964  23.198  0.00  0.00    -0.211 OA
HETATM    5  C   UNL     1       3.581   6.319  23.100  0.00  0.00     0.128 A 
ENDROOT
BRANCH   5   6
HETATM    6  C   UNL     1       4.258   6.821  21.889  0.00  0.00     0.036 A 
HETATM    7  C   UNL     1       3.542   7.422  20.839  0.00  0.00     0.044 A 
HETATM    8  C   UNL     1       4.203   7.948  19.724  0.00  0.00     0.068 A 
HETATM    9 CL   UNL     1       3.282   8.589  18.413  0.00  0.00    -0.081 Cl
HETATM   10  C   UNL     1       5.595   7.954  19.671  0.00  0.00     0.090 A 
HETATM   11  C   UNL     1       6.333   7.379  20.694  0.00  0.00     0.075 A 
HETATM   12  C   UNL     1       5.668   6.792  21.772  0.00  0.00     0.081 A 
BRANCH  10  13
HETATM   13  O   UNL     1       6.289   8.519  18.639  0.00  0.00    -0.359 OA
HETATM   14  H   UNL     1       5.769   9.278  18.315  0.00  0.00     0.217 HD
ENDBRANCH  10  13
BRANCH  12  15
HETATM   15  O   UNL     1       6.420   6.164  22.730  0.00  0.00    -0.360 OA
HETATM   16  H   UNL     1       7.217   5.785  22.328  0.00  0.00     0.217 HD
ENDBRANCH  12  15
ENDBRANCH   5   6
BRANCH   1  17
HETATM   17  C   UNL     1       2.764   8.236  24.527  0.00  0.00    -0.020 C 
HETATM   18  C   UNL     1       3.723   9.184  24.150  0.00  0.00     0.015 C 
HETATM   19  C   UNL     1       3.402  10.551  24.113  0.00  0.00     0.037 C 
HETATM   20  C   UNL     1       2.113  10.980  24.415  0.00  0.00     0.068 C 
HETATM   21  C   UNL     1       1.207  10.069  24.951  0.00  0.00     0.037 C 
HETATM   22  C   UNL     1       1.549   8.714  25.046  0.00  0.00     0.015 C 
BRANCH  20  23
HETATM   23  O   UNL     1       1.816  12.294  24.188  0.00  0.00    -0.356 OA
HETATM   24  C   UNL     1       0.477  12.645  24.545  0.00  0.00     0.210 C 
ENDBRANCH  20  23
ENDBRANCH   1  17
BRANCH   2  25
HETATM   25  C   UNL     1       2.100   5.384  26.350  0.00  0.00     0.273 C 
HETATM   26  O   UNL     1       2.633   5.704  27.406  0.00  0.00    -0.266 OA
HETATM   27  N   UNL     1       0.863   4.758  26.289  0.00  0.00    -0.356 N 
HETATM   28  H   UNL     1       0.473   4.660  25.345  0.00  0.00     0.162 HD
BRANCH  27  29
HETATM   29  C   UNL     1       0.032   4.482  27.436  0.00  0.00     0.118 C 
HETATM   30  C   UNL     1      -0.950   5.611  27.707  0.00  0.00     0.026 C 
ENDBRANCH  27  29
ENDBRANCH   2  25
TORSDOF 7
ENDMDL
MODEL 7
REMARK VINA RESULT:    -6.756      2.770      4.954
REMARK INTER + INTRA:         -10.612
REMARK INTER:                  -9.445
REMARK INTRA:                  -1.168
REMARK UNBOUND:                -1.486
REMARK  7 active torsions:
REMARK  status: ('A' for Active; 'I' for Inactive)
REMARK    1  A    between atoms: O_2  and  C_3 
REMARK    2  A    between atoms: C_6  and  C_9 
REMARK    3  A    between atoms: C_10  and  C_11 
REMARK       I    between atoms: C_11  and  N_13 
REMARK    4  A    between atoms: N_13  and  C_14 
REMARK    5  A    between atoms: C_18  and  C_19 
REMARK    6  A    between atoms: C_23  and  O_24 
REMARK    7  A    between atoms: C_26  and  O_27 
ROOT
HETATM    1  C   UNL     1       2.571   8.905  24.797  0.00  0.00     0.048 A 
HETATM    2  C   UNL     1       3.571   8.534  23.821  0.00  0.00     0.165 A 
HETATM    3  N   UNL     1       4.225   7.427  24.214  0.00  0.00    -0.121 NA
HETATM    4  O   UNL     1       3.648   7.030  25.376  0.00  0.00    -0.211 OA
HETATM    5  C   UNL     1       2.662   7.887  25.754  0.00  0.00     0.128 A 
ENDROOT
BRANCH   5   6
HETATM    6  C   UNL     1       1.974   7.428  26.976  0.00  0.00     0.036 A 
HETATM    7  C   UNL     1       0.789   6.673  26.917  0.00  0.00     0.044 A 
HETATM    8  C   UNL     1       0.181   6.193  28.081  0.00  0.00     0.068 A 
HETATM    9 CL   UNL     1      -1.323   5.356  27.973  0.00  0.00    -0.081 Cl
HETATM   10  C   UNL     1       0.785   6.391  29.321  0.00  0.00     0.090 A 
HETATM   11  C   UNL     1       1.959   7.121  29.416  0.00  0.00     0.075 A 
HETATM   12  C   UNL     1       2.526   7.659  28.258  0.00  0.00     0.081 A 
BRANCH  10  13
HETATM   13  O   UNL     1       0.269   5.882  30.480  0.00  0.00    -0.359 OA
HETATM   14  H   UNL     1       0.726   5.038  30.660  0.00  0.00     0.217 HD
ENDBRANCH  10  13
BRANCH  12  15
HETATM   15  O   UNL     1       3.643   8.440  28.390  0.00  0.00    -0.360 OA
HETATM   16  H   UNL     1       3.643   8.874  29.258  0.00  0.00     0.217 HD
ENDBRANCH  12  15
ENDBRANCH   5   6
BRANCH   1  17
HETATM   17  C   UNL     1       1.547   9.955  24.825  0.00  0.00    -0.020 C 
HETATM   18  C   UNL     1       1.874  11.307  24.668  0.00  0.00     0.015 C 
HETATM   19  C   UNL     1       0.883  12.251  24.354  0.00  0.00     0.037 C 
HETATM   20  C   UNL     1      -0.435  11.849  24.157  0.00  0.00     0.068 C 
HETATM   21  C   UNL     1      -0.796  10.543  24.476  0.00  0.00     0.037 C 
HETATM   22  C   UNL     1       0.184   9.615  24.849  0.00  0.00     0.015 C 
BRANCH  20  23
HETATM   23  O   UNL     1      -1.314  12.780  23.680  0.00  0.00    -0.356 OA
HETATM   24  C   UNL     1      -2.590  12.235  23.336  0.00  0.00     0.210 C 
ENDBRANCH  20  23
ENDBRANCH   1  17
BRANCH   2  25
HETATM   25  C   UNL     1       3.978   9.110  22.529  0.00  0.00     0.273 C 
HETATM   26  O   UNL     1       4.097  10.309  22.312  0.00  0.00    -0.266 OA
HETATM   27  N   UNL     1       4.220   8.141  21.564  0.00  0.00    -0.356 N 
HETATM   28  H   UNL     1       4.208   7.175  21.908  0.00  0.00     0.162 HD
BRANCH  27  29
HETATM   29  C   UNL     1       4.706   8.420  20.234  0.00  0.00     0.118 C 
HETATM   30  C   UNL     1       3.572   8.509  19.225  0.00  0.00     0.026 C 
ENDBRANCH  27  29
ENDBRANCH   2  25
TORSDOF 7
ENDMDL
MODEL 8
REMARK VINA RESULT:    -6.700      3.316      6.057
REMARK INTER + INTRA:         -10.536
REMARK INTER:                  -9.050
REMARK INTRA:                  -1.486
REMARK UNBOUND:                -1.486
REMARK  7 active torsions:
REMARK  status: ('A' for Active; 'I' for Inactive)
REMARK    1  A    between atoms: O_2  and  C_3 
REMARK    2  A    between atoms: C_6  and  C_9 
REMARK    3  A    between atoms: C_10  and  C_11 
REMARK       I    between atoms: C_11  and  N_13 
REMARK    4  A    between atoms: N_13  and  C_14 
REMARK    5  A    between atoms: C_18  and  C_19 
REMARK    6  A    between atoms: C_23  and  O_24 
REMARK    7  A    between atoms: C_26  and  O_27 
ROOT
HETATM    1  C   UNL     1       2.446   8.829  25.704  0.00  0.00     0.048 A 
HETATM    2  C   UNL     1       2.542   8.038  26.910  0.00  0.00     0.165 A 
HETATM    3  N   UNL     1       1.509   8.302  27.729  0.00  0.00    -0.121 NA
HETATM    4  O   UNL     1       0.715   9.187  27.077  0.00  0.00    -0.211 OA
HETATM    5  C   UNL     1       1.242   9.524  25.870  0.00  0.00     0.128 A 
ENDROOT
BRANCH   5   6
HETATM    6  C   UNL     1       0.352  10.427  25.115  0.00  0.00     0.036 A 
HETATM    7  C   UNL     1       0.704  11.763  24.856  0.00  0.00     0.044 A 
HETATM    8  C   UNL     1      -0.122  12.590  24.088  0.00  0.00     0.068 A 
HETATM    9 CL   UNL     1       0.297  14.250  23.875  0.00  0.00    -0.081 Cl
HETATM   10  C   UNL     1      -1.276  12.078  23.499  0.00  0.00     0.090 A 
HETATM   11  C   UNL     1      -1.648  10.762  23.724  0.00  0.00     0.075 A 
HETATM   12  C   UNL     1      -0.858   9.959  24.550  0.00  0.00     0.081 A 
BRANCH  10  13
HETATM   13  O   UNL     1      -2.079  12.824  22.682  0.00  0.00    -0.359 OA
HETATM   14  H   UNL     1      -2.145  13.717  23.071  0.00  0.00     0.217 HD
ENDBRANCH  10  13
BRANCH  12  15
HETATM   15  O   UNL     1      -1.289   8.686  24.817  0.00  0.00    -0.360 OA
HETATM   16  H   UNL     1      -0.559   8.159  25.179  0.00  0.00     0.217 HD
ENDBRANCH  12  15
ENDBRANCH   5   6
BRANCH   1  17
HETATM   17  C   UNL     1       3.244   8.871  24.474  0.00  0.00    -0.020 C 
HETATM   18  C   UNL     1       3.386   7.748  23.649  0.00  0.00     0.015 C 
HETATM   19  C   UNL     1       3.848   7.882  22.330  0.00  0.00     0.037 C 
HETATM   20  C   UNL     1       4.136   9.141  21.810  0.00  0.00     0.068 C 
HETATM   21  C   UNL     1       4.159  10.236  22.669  0.00  0.00     0.037 C 
HETATM   22  C   UNL     1       3.757  10.091  24.002  0.00  0.00     0.015 C 
BRANCH  20  23
HETATM   23  O   UNL     1       4.407   9.224  20.473  0.00  0.00    -0.356 OA
HETATM   24  C   UNL     1       3.937   8.098  19.727  0.00  0.00     0.210 C 
ENDBRANCH  20  23
ENDBRANCH   1  17
BRANCH   2  25
HETATM   25  C   UNL     1       3.510   7.034  27.381  0.00  0.00     0.273 C 
HETATM   26  O   UNL     1       4.286   7.203  28.313  0.00  0.00    -0.266 OA
HETATM   27  N   UNL     1       3.455   5.855  26.650  0.00  0.00    -0.356 N 
HETATM   28  H   UNL     1       2.679   5.794  25.982  0.00  0.00     0.162 HD
BRANCH  27  29
HETATM   29  C   UNL     1       4.237   4.678  26.943  0.00  0.00     0.118 C 
HETATM   30  C   UNL     1       5.060   4.233  25.744  0.00  0.00     0.026 C 
ENDBRANCH  27  29
ENDBRANCH   2  25
TORSDOF 7
ENDMDL
MODEL 9
REMARK VINA RESULT:    -6.646      2.531      4.735
REMARK INTER + INTRA:         -10.464
REMARK INTER:                  -9.046
REMARK INTRA:                  -1.418
REMARK UNBOUND:                -1.486
REMARK  7 active torsions:
REMARK  status: ('A' for Active; 'I' for Inactive)
REMARK    1  A    between atoms: O_2  and  C_3 
REMARK    2  A    between atoms: C_6  and  C_9 
REMARK    3  A    between atoms: C_10  and  C_11 
REMARK       I    between atoms: C_11  and  N_13 
REMARK    4  A    between atoms: N_13  and  C_14 
REMARK    5  A    between atoms: C_18  and  C_19 
REMARK    6  A    between atoms: C_23  and  O_24 
REMARK    7  A    between atoms: C_26  and  O_27 
ROOT
HETATM    1  C   UNL     1       2.619   8.624  24.855  0.00  0.00     0.048 A 
HETATM    2  C   UNL     1       3.596   8.278  23.847  0.00  0.00     0.165 A 
HETATM    3  N   UNL     1       4.292   7.190  24.220  0.00  0.00    -0.121 NA
HETATM    4  O   UNL     1       3.764   6.779  25.400  0.00  0.00    -0.211 OA
HETATM    5  C   UNL     1       2.768   7.611  25.809  0.00  0.00     0.128 A 
ENDROOT
BRANCH   5   6
HETATM    6  C   UNL     1       2.132   7.136  27.053  0.00  0.00     0.036 A 
HETATM    7  C   UNL     1       2.157   7.899  28.233  0.00  0.00     0.044 A 
HETATM    8  C   UNL     1       1.499   7.464  29.388  0.00  0.00     0.068 A 
HETATM    9 CL   UNL     1       1.637   8.381  30.842  0.00  0.00    -0.081 Cl
HETATM   10  C   UNL     1       0.738   6.297  29.364  0.00  0.00     0.090 A 
HETATM   11  C   UNL     1       0.682   5.525  28.215  0.00  0.00     0.075 A 
HETATM   12  C   UNL     1       1.398   5.927  27.085  0.00  0.00     0.081 A 
BRANCH  10  13
HETATM   13  O   UNL     1       0.019   5.867  30.443  0.00  0.00    -0.359 OA
HETATM   14  H   UNL     1      -0.924   5.871  30.190  0.00  0.00     0.217 HD
ENDBRANCH  10  13
BRANCH  12  15
HETATM   15  O   UNL     1       1.387   5.105  25.988  0.00  0.00    -0.360 OA
HETATM   16  H   UNL     1       0.507   4.708  25.882  0.00  0.00     0.217 HD
ENDBRANCH  12  15
ENDBRANCH   5   6
BRANCH   1  17
HETATM   17  C   UNL     1       1.569   9.647  24.914  0.00  0.00    -0.020 C 
HETATM   18  C   UNL     1       1.862  11.011  24.794  0.00  0.00     0.015 C 
HETATM   19  C   UNL     1       0.846  11.938  24.509  0.00  0.00     0.037 C 
HETATM   20  C   UNL     1      -0.462  11.508  24.305  0.00  0.00     0.068 C 
HETATM   21  C   UNL     1      -0.789  10.186  24.588  0.00  0.00     0.037 C 
HETATM   22  C   UNL     1       0.215   9.273  24.933  0.00  0.00     0.015 C 
BRANCH  20  23
HETATM   23  O   UNL     1      -1.365  12.430  23.856  0.00  0.00    -0.356 OA
HETATM   24  C   UNL     1      -2.675  11.892  23.655  0.00  0.00     0.210 C 
ENDBRANCH  20  23
ENDBRANCH   1  17
BRANCH   2  25
HETATM   25  C   UNL     1       3.947   8.862  22.542  0.00  0.00     0.273 C 
HETATM   26  O   UNL     1       4.057  10.063  22.328  0.00  0.00    -0.266 OA
HETATM   27  N   UNL     1       4.144   7.900  21.561  0.00  0.00    -0.356 N 
HETATM   28  H   UNL     1       4.147   6.931  21.898  0.00  0.00     0.162 HD
BRANCH  27  29
HETATM   29  C   UNL     1       4.571   8.187  20.213  0.00  0.00     0.118 C 
HETATM   30  C   UNL     1       3.389   8.365  19.271  0.00  0.00     0.026 C 
ENDBRANCH  27  29
ENDBRANCH   2  25
TORSDOF 7
ENDMDL
