REMARK  7 active torsions:
REMARK  status: ('A' for Active; 'I' for Inactive)
REMARK    1  A    between atoms: O_2  and  C_3 
REMARK    2  A    between atoms: C_6  and  C_9 
REMARK    3  A    between atoms: C_10  and  C_11 
REMARK       I    between atoms: C_11  and  N_13 
REMARK    4  A    between atoms: N_13  and  C_14 
REMARK    5  A    between atoms: C_18  and  C_19 
REMARK    6  A    between atoms: C_23  and  O_24 
REMARK    7  A    between atoms: C_26  and  O_27 
ROOT
HETATM    1  C   UNL     1       4.540  -3.382  -3.916  0.00  0.00     0.048 A 
HETATM    2  C   UNL     1       4.941  -3.184  -5.291  0.00  0.00     0.165 A 
HETATM    3  N   UNL     1       4.854  -4.337  -5.977  0.00  0.00    -0.121 NA
HETATM    4  O   UNL     1       4.354  -5.261  -5.119  0.00  0.00    -0.211 OA
HETATM    5  C   UNL     1       4.157  -4.728  -3.883  0.00  0.00     0.128 A 
ENDROOT
BRANCH   5   6
HETATM    6  C   UNL     1       3.542  -5.700  -2.958  0.00  0.00     0.036 A 
HETATM    7  C   UNL     1       2.613  -5.303  -1.981  0.00  0.00     0.044 A 
HETATM    8  C   UNL     1       1.993  -6.243  -1.151  0.00  0.00     0.068 A 
HETATM    9 CL   UNL     1       0.934  -5.706   0.100  0.00  0.00    -0.081 Cl
HETATM   10  C   UNL     1       2.230  -7.604  -1.333  0.00  0.00     0.090 A 
HETATM   11  C   UNL     1       3.132  -8.032  -2.294  0.00  0.00     0.075 A 
HETATM   12  C   UNL     1       3.802  -7.086  -3.073  0.00  0.00     0.081 A 
BRANCH  10  13
HETATM   13  O   UNL     1       1.596  -8.565  -0.597  0.00  0.00    -0.359 OA
HETATM   14  H   UNL     1       0.975  -8.113   0.005  0.00  0.00     0.217 HD
ENDBRANCH  10  13
BRANCH  12  15
HETATM   15  O   UNL     1       4.744  -7.533  -3.962  0.00  0.00    -0.360 OA
HETATM   16  H   UNL     1       4.736  -8.503  -3.992  0.00  0.00     0.217 HD
ENDBRANCH  12  15
ENDBRANCH   5   6
BRANCH   1  17
HETATM   17  C   UNL     1       4.372  -2.463  -2.785  0.00  0.00    -0.020 C 
HETATM   18  C   UNL     1       3.852  -1.174  -2.954  0.00  0.00     0.015 C 
HETATM   19  C   UNL     1       3.379  -0.443  -1.852  0.00  0.00     0.037 C 
HETATM   20  C   UNL     1       3.386  -1.006  -0.579  0.00  0.00     0.068 C 
HETATM   21  C   UNL     1       4.052  -2.211  -0.378  0.00  0.00     0.037 C 
HETATM   22  C   UNL     1       4.579  -2.912  -1.470  0.00  0.00     0.015 C 
BRANCH  20  23
HETATM   23  O   UNL     1       2.751  -0.319   0.417  0.00  0.00    -0.356 OA
HETATM   24  C   UNL     1       1.928  -1.146   1.243  0.00  0.00     0.210 C 
ENDBRANCH  20  23
ENDBRANCH   1  17
BRANCH   2  25
HETATM   25  C   UNL     1       5.395  -2.006  -6.047  0.00  0.00     0.273 C 
HETATM   26  O   UNL     1       5.588  -0.900  -5.557  0.00  0.00    -0.266 OA
HETATM   27  N   UNL     1       5.586  -2.277  -7.395  0.00  0.00    -0.356 N 
HETATM   28  H   UNL     1       5.513  -3.267  -7.653  0.00  0.00     0.162 HD
BRANCH  27  29
HETATM   29  C   UNL     1       6.101  -1.327  -8.352  0.00  0.00     0.118 C 
HETATM   30  C   UNL     1       5.662  -1.659  -9.770  0.00  0.00     0.026 C 
ENDBRANCH  27  29
ENDBRANCH   2  25
TORSDOF 7
