REMARK  3 active torsions:
REMARK  status: ('A' for Active; 'I' for Inactive)
REMARK    1  A    between atoms: O_1  and  C_2 
REMARK    2  A    between atoms: C_9  and  N_10 
REMARK    3  A    between atoms: C_12  and  C_13 
REMARK       I    between atoms: C_13  and  N_15 
ROOT
HETATM    1  C   UNL     1       3.716  -0.185   2.763  0.00  0.00     0.066 A 
HETATM    2  C   UNL     1       3.932  -1.326   2.000  0.00  0.00     0.053 A 
HETATM    3  C   UNL     1       4.449   0.963   2.529  0.00  0.00     0.039 A 
HETATM    4  C   UNL     1       5.402   0.967   1.511  0.00  0.00     0.035 A 
HETATM    5  C   UNL     1       5.627  -0.146   0.712  0.00  0.00     0.073 A 
HETATM    6  C   UNL     1       4.896  -1.317   0.952  0.00  0.00     0.030 A 
HETATM    7  N   UNL     1       6.552  -0.040  -0.247  0.00  0.00    -0.218 NA
HETATM    8  C   UNL     1       6.751  -1.083  -1.044  0.00  0.00     0.200 A 
HETATM    9  N   UNL     1       6.144  -2.251  -0.916  0.00  0.00    -0.212 NA
HETATM   10  C   UNL     1       5.249  -2.372   0.096  0.00  0.00     0.140 A 
ENDROOT
BRANCH  10  11
HETATM   11  C   UNL     1       4.719  -3.782   0.281  0.00  0.00     0.273 C 
HETATM   12  O   UNL     1       3.544  -3.963   0.595  0.00  0.00    -0.266 OA
HETATM   13  N   UNL     1       5.614  -4.837   0.119  0.00  0.00    -0.342 N 
HETATM   14  C   UNL     1       5.229  -6.246   0.240  0.00  0.00     0.139 C 
HETATM   15  C   UNL     1       7.026  -4.703  -0.169  0.00  0.00     0.161 C 
HETATM   16  C   UNL     1       6.502  -6.931   0.759  0.00  0.00     0.056 C 
HETATM   17  C   UNL     1       7.589  -6.019   0.240  0.00  0.00    -0.056 C 
HETATM   18  C   UNL     1       6.791  -8.368   0.405  0.00  0.00    -0.020 C 
HETATM   19  C   UNL     1       8.862  -6.419   0.090  0.00  0.00    -0.018 C 
HETATM   20  C   UNL     1       9.250  -7.848   0.355  0.00  0.00     0.054 C 
HETATM   21  C   UNL     1       8.066  -8.787   0.259  0.00  0.00    -0.026 C 
ENDBRANCH  10  11
BRANCH   8  22
HETATM   22  N   UNL     1       7.717  -0.974  -2.018  0.00  0.00    -0.271 NA
HETATM   23  H   UNL     1       8.386  -0.256  -1.775  0.00  0.00     0.127 HD
HETATM   24  H   UNL     1       8.077  -1.881  -2.277  0.00  0.00     0.127 HD
ENDBRANCH   8  22
BRANCH   1  25
HETATM   25  O   UNL     1       2.781  -0.148   3.752  0.00  0.00    -0.361 OA
HETATM   26  H   UNL     1       2.298  -0.991   3.762  0.00  0.00     0.217 HD
ENDBRANCH   1  25
TORSDOF 3
