MODEL 1
REMARK VINA RESULT:    -7.191      0.000      0.000
REMARK INTER + INTRA:         -10.244
REMARK INTER:                  -8.569
REMARK INTRA:                  -1.675
REMARK UNBOUND:                -1.371
REMARK  5 active torsions:
REMARK  status: ('A' for Active; 'I' for Inactive)
REMARK    1  A    between atoms: C_2  and  C_3 
REMARK    2  A    between atoms: C_8  and  N_9 
REMARK    3  A    between atoms: C_15  and  C_16 
REMARK    4  A    between atoms: C_19  and  O_20 
REMARK    5  A    between atoms: C_22  and  O_23 
ROOT
HETATM    1  N   UNL     1      -1.924  13.400  22.866  0.00  0.00    -0.244 N 
HETATM    2  C   UNL     1      -2.542  13.918  21.741  0.00  0.00     0.349 A 
HETATM    3  O   UNL     1      -2.165  14.793  20.974  0.00  0.00    -0.245 OA
HETATM    4  N   UNL     1      -3.728  13.216  21.613  0.00  0.00    -0.226 N 
HETATM    5  H   UNL     1      -4.422  13.341  20.894  0.00  0.00     0.194 HD
HETATM    6  N   UNL     1      -3.888  12.351  22.645  0.00  0.00    -0.151 NA
HETATM    7  C   UNL     1      -2.811  12.481  23.382  0.00  0.00     0.171 A 
ENDROOT
BRANCH   7   8
HETATM    8  C   UNL     1      -2.714  11.774  24.700  0.00  0.00     0.045 A 
HETATM    9  C   UNL     1      -1.601  10.991  25.041  0.00  0.00     0.021 A 
HETATM   10  C   UNL     1      -1.426  10.513  26.350  0.00  0.00     0.037 A 
HETATM   11  C   UNL     1      -2.351  10.839  27.334  0.00  0.00     0.068 A 
HETATM   12  C   UNL     1      -3.470  11.597  27.028  0.00  0.00     0.074 A 
HETATM   13  C   UNL     1      -3.655  12.049  25.717  0.00  0.00     0.082 A 
BRANCH  11  14
HETATM   14  O   UNL     1      -2.196  10.441  28.629  0.00  0.00    -0.361 OA
HETATM   15  H   UNL     1      -3.071  10.335  29.037  0.00  0.00     0.217 HD
ENDBRANCH  11  14
BRANCH  13  16
HETATM   16  O   UNL     1      -4.795  12.761  25.454  0.00  0.00    -0.360 OA
HETATM   17  H   UNL     1      -5.548  12.150  25.404  0.00  0.00     0.217 HD
ENDBRANCH  13  16
ENDBRANCH   7   8
BRANCH   1  18
HETATM   18  C   UNL     1      -0.664  13.850  23.294  0.00  0.00     0.052 A 
HETATM   19  C   UNL     1      -0.491  14.835  24.289  0.00  0.00    -0.031 A 
HETATM   20  C   UNL     1       0.816  15.278  24.583  0.00  0.00     0.009 A 
HETATM   21  C   UNL     1       1.932  14.714  23.960  0.00  0.00     0.001 A 
HETATM   22  C   UNL     1       1.764  13.669  23.062  0.00  0.00     0.002 A 
HETATM   23  C   UNL     1       0.478  13.237  22.739  0.00  0.00     0.031 A 
BRANCH  19  24
HETATM   24  C   UNL     1      -1.623  15.331  25.162  0.00  0.00     0.036 C 
HETATM   25  C   UNL     1      -1.518  14.836  26.603  0.00  0.00     0.010 C 
ENDBRANCH  19  24
ENDBRANCH   1  18
TORSDOF 5
ENDMDL
MODEL 2
REMARK VINA RESULT:    -6.651      1.231      2.271
REMARK INTER + INTRA:          -9.577
REMARK INTER:                  -8.124
REMARK INTRA:                  -1.453
REMARK UNBOUND:                -1.371
REMARK  5 active torsions:
REMARK  status: ('A' for Active; 'I' for Inactive)
REMARK    1  A    between atoms: C_2  and  C_3 
REMARK    2  A    between atoms: C_8  and  N_9 
REMARK    3  A    between atoms: C_15  and  C_16 
REMARK    4  A    between atoms: C_19  and  O_20 
REMARK    5  A    between atoms: C_22  and  O_23 
ROOT
HETATM    1  N   UNL     1      -2.774  13.226  23.721  0.00  0.00    -0.244 N 
HETATM    2  C   UNL     1      -3.738  13.765  22.887  0.00  0.00     0.349 A 
HETATM    3  O   UNL     1      -3.755  14.838  22.301  0.00  0.00    -0.245 OA
HETATM    4  N   UNL     1      -4.738  12.810  22.810  0.00  0.00    -0.226 N 
HETATM    5  H   UNL     1      -5.592  12.880  22.281  0.00  0.00     0.194 HD
HETATM    6  N   UNL     1      -4.455  11.753  23.613  0.00  0.00    -0.151 NA
HETATM    7  C   UNL     1      -3.290  12.022  24.150  0.00  0.00     0.171 A 
ENDROOT
BRANCH   7   8
HETATM    8  C   UNL     1      -2.731  11.130  25.217  0.00  0.00     0.045 A 
HETATM    9  C   UNL     1      -1.663  10.256  24.966  0.00  0.00     0.021 A 
HETATM   10  C   UNL     1      -1.014   9.587  26.017  0.00  0.00     0.037 A 
HETATM   11  C   UNL     1      -1.413   9.809  27.329  0.00  0.00     0.068 A 
HETATM   12  C   UNL     1      -2.475  10.654  27.610  0.00  0.00     0.074 A 
HETATM   13  C   UNL     1      -3.136  11.298  26.559  0.00  0.00     0.082 A 
BRANCH  11  14
HETATM   14  O   UNL     1      -0.780   9.222  28.385  0.00  0.00    -0.361 OA
HETATM   15  H   UNL     1      -0.968   8.269  28.379  0.00  0.00     0.217 HD
ENDBRANCH  11  14
BRANCH  13  16
HETATM   16  O   UNL     1      -4.204  12.093  26.882  0.00  0.00    -0.360 OA
HETATM   17  H   UNL     1      -4.898  11.980  26.212  0.00  0.00     0.217 HD
ENDBRANCH  13  16
ENDBRANCH   7   8
BRANCH   1  18
HETATM   18  C   UNL     1      -1.578  13.905  24.009  0.00  0.00     0.052 A 
HETATM   19  C   UNL     1      -0.413  13.788  23.221  0.00  0.00    -0.031 A 
HETATM   20  C   UNL     1       0.761  14.445  23.648  0.00  0.00     0.009 A 
HETATM   21  C   UNL     1       0.768  15.254  24.786  0.00  0.00     0.001 A 
HETATM   22  C   UNL     1      -0.408  15.454  25.496  0.00  0.00     0.002 A 
HETATM   23  C   UNL     1      -1.571  14.791  25.106  0.00  0.00     0.031 A 
BRANCH  19  24
HETATM   24  C   UNL     1      -0.400  13.118  21.865  0.00  0.00     0.036 C 
HETATM   25  C   UNL     1       0.053  11.661  21.930  0.00  0.00     0.010 C 
ENDBRANCH  19  24
ENDBRANCH   1  18
TORSDOF 5
ENDMDL
MODEL 3
REMARK VINA RESULT:    -6.563      1.621      1.922
REMARK INTER + INTRA:          -9.469
REMARK INTER:                  -7.866
REMARK INTRA:                  -1.603
REMARK UNBOUND:                -1.371
REMARK  5 active torsions:
REMARK  status: ('A' for Active; 'I' for Inactive)
REMARK    1  A    between atoms: C_2  and  C_3 
REMARK    2  A    between atoms: C_8  and  N_9 
REMARK    3  A    between atoms: C_15  and  C_16 
REMARK    4  A    between atoms: C_19  and  O_20 
REMARK    5  A    between atoms: C_22  and  O_23 
ROOT
HETATM    1  N   UNL     1      -1.250  12.740  22.241  0.00  0.00    -0.244 N 
HETATM    2  C   UNL     1      -2.160  13.115  21.267  0.00  0.00     0.349 A 
HETATM    3  O   UNL     1      -2.296  14.187  20.694  0.00  0.00    -0.245 OA
HETATM    4  N   UNL     1      -2.929  11.990  21.024  0.00  0.00    -0.226 N 
HETATM    5  H   UNL     1      -3.688  11.914  20.366  0.00  0.00     0.194 HD
HETATM    6  N   UNL     1      -2.572  10.977  21.853  0.00  0.00    -0.151 NA
HETATM    7  C   UNL     1      -1.581  11.444  22.573  0.00  0.00     0.171 A 
ENDROOT
BRANCH   7   8
HETATM    8  C   UNL     1      -1.031  10.635  23.708  0.00  0.00     0.045 A 
HETATM    9  C   UNL     1       0.261  10.091  23.672  0.00  0.00     0.021 A 
HETATM   10  C   UNL     1       0.839   9.522  24.818  0.00  0.00     0.037 A 
HETATM   11  C   UNL     1       0.136   9.518  26.017  0.00  0.00     0.068 A 
HETATM   12  C   UNL     1      -1.148  10.034  26.084  0.00  0.00     0.074 A 
HETATM   13  C   UNL     1      -1.730  10.575  24.933  0.00  0.00     0.082 A 
BRANCH  11  14
HETATM   14  O   UNL     1       0.676   9.023  27.168  0.00  0.00    -0.361 OA
HETATM   15  H   UNL     1       1.288   8.302  26.948  0.00  0.00     0.217 HD
ENDBRANCH  11  14
BRANCH  13  16
HETATM   16  O   UNL     1      -3.016  11.036  25.038  0.00  0.00    -0.360 OA
HETATM   17  H   UNL     1      -3.164  11.722  24.367  0.00  0.00     0.217 HD
ENDBRANCH  13  16
ENDBRANCH   7   8
BRANCH   1  18
HETATM   18  C   UNL     1      -0.271  13.625  22.721  0.00  0.00     0.052 A 
HETATM   19  C   UNL     1      -0.507  14.550  23.760  0.00  0.00    -0.031 A 
HETATM   20  C   UNL     1       0.520  15.454  24.107  0.00  0.00     0.009 A 
HETATM   21  C   UNL     1       1.773  15.401  23.494  0.00  0.00     0.001 A 
HETATM   22  C   UNL     1       2.037  14.418  22.549  0.00  0.00     0.002 A 
HETATM   23  C   UNL     1       1.025  13.534  22.173  0.00  0.00     0.031 A 
BRANCH  19  24
HETATM   24  C   UNL     1      -1.751  14.523  24.620  0.00  0.00     0.036 C 
HETATM   25  C   UNL     1      -1.455  14.163  26.075  0.00  0.00     0.010 C 
ENDBRANCH  19  24
ENDBRANCH   1  18
TORSDOF 5
ENDMDL
MODEL 4
REMARK VINA RESULT:    -6.536      1.716      2.293
REMARK INTER + INTRA:          -9.435
REMARK INTER:                  -8.084
REMARK INTRA:                  -1.351
REMARK UNBOUND:                -1.371
REMARK  5 active torsions:
REMARK  status: ('A' for Active; 'I' for Inactive)
REMARK    1  A    between atoms: C_2  and  C_3 
REMARK    2  A    between atoms: C_8  and  N_9 
REMARK    3  A    between atoms: C_15  and  C_16 
REMARK    4  A    between atoms: C_19  and  O_20 
REMARK    5  A    between atoms: C_22  and  O_23 
ROOT
HETATM    1  N   UNL     1      -2.748  12.853  23.968  0.00  0.00    -0.244 N 
HETATM    2  C   UNL     1      -3.951  13.349  23.494  0.00  0.00     0.349 A 
HETATM    3  O   UNL     1      -4.298  14.505  23.299  0.00  0.00    -0.245 OA
HETATM    4  N   UNL     1      -4.738  12.238  23.247  0.00  0.00    -0.226 N 
HETATM    5  H   UNL     1      -5.681  12.240  22.891  0.00  0.00     0.194 HD
HETATM    6  N   UNL     1      -4.094  11.102  23.614  0.00  0.00    -0.151 NA
HETATM    7  C   UNL     1      -2.918  11.488  24.047  0.00  0.00     0.171 A 
ENDROOT
BRANCH   7   8
HETATM    8  C   UNL     1      -1.987  10.497  24.677  0.00  0.00     0.045 A 
HETATM    9  C   UNL     1      -0.870   9.993  23.994  0.00  0.00     0.021 A 
HETATM   10  C   UNL     1       0.106   9.237  24.663  0.00  0.00     0.037 A 
HETATM   11  C   UNL     1      -0.017   9.002  26.027  0.00  0.00     0.068 A 
HETATM   12  C   UNL     1      -1.115   9.473  26.728  0.00  0.00     0.074 A 
HETATM   13  C   UNL     1      -2.098  10.203  26.053  0.00  0.00     0.082 A 
BRANCH  11  14
HETATM   14  O   UNL     1       0.931   8.317  26.728  0.00  0.00    -0.361 OA
HETATM   15  H   UNL     1       0.493   7.706  27.343  0.00  0.00     0.217 HD
ENDBRANCH  11  14
BRANCH  13  16
HETATM   16  O   UNL     1      -3.185  10.614  26.780  0.00  0.00    -0.360 OA
HETATM   17  H   UNL     1      -3.561   9.851  27.248  0.00  0.00     0.217 HD
ENDBRANCH  13  16
ENDBRANCH   7   8
BRANCH   1  18
HETATM   18  C   UNL     1      -1.675  13.699  24.296  0.00  0.00     0.052 A 
HETATM   19  C   UNL     1      -1.516  14.289  25.568  0.00  0.00    -0.031 A 
HETATM   20  C   UNL     1      -0.450  15.192  25.766  0.00  0.00     0.009 A 
HETATM   21  C   UNL     1       0.478  15.454  24.757  0.00  0.00     0.001 A 
HETATM   22  C   UNL     1       0.381  14.788  23.543  0.00  0.00     0.002 A 
HETATM   23  C   UNL     1      -0.681  13.913  23.319  0.00  0.00     0.031 A 
BRANCH  19  24
HETATM   24  C   UNL     1      -2.341  13.886  26.771  0.00  0.00     0.036 C 
HETATM   25  C   UNL     1      -1.999  14.698  28.019  0.00  0.00     0.010 C 
ENDBRANCH  19  24
ENDBRANCH   1  18
TORSDOF 5
ENDMDL
MODEL 5
REMARK VINA RESULT:    -6.522      1.771      4.426
REMARK INTER + INTRA:          -9.418
REMARK INTER:                  -8.142
REMARK INTRA:                  -1.276
REMARK UNBOUND:                -1.371
REMARK  5 active torsions:
REMARK  status: ('A' for Active; 'I' for Inactive)
REMARK    1  A    between atoms: C_2  and  C_3 
REMARK    2  A    between atoms: C_8  and  N_9 
REMARK    3  A    between atoms: C_15  and  C_16 
REMARK    4  A    between atoms: C_19  and  O_20 
REMARK    5  A    between atoms: C_22  and  O_23 
ROOT
HETATM    1  N   UNL     1      -2.065  12.477  24.729  0.00  0.00    -0.244 N 
HETATM    2  C   UNL     1      -2.329  11.481  25.654  0.00  0.00     0.349 A 
HETATM    3  O   UNL     1      -1.620  11.030  26.542  0.00  0.00    -0.245 OA
HETATM    4  N   UNL     1      -3.625  11.070  25.395  0.00  0.00    -0.226 N 
HETATM    5  H   UNL     1      -4.135  10.355  25.888  0.00  0.00     0.194 HD
HETATM    6  N   UNL     1      -4.129  11.720  24.316  0.00  0.00    -0.151 NA
HETATM    7  C   UNL     1      -3.185  12.544  23.930  0.00  0.00     0.171 A 
ENDROOT
BRANCH   7   8
HETATM    8  C   UNL     1      -3.343  13.326  22.661  0.00  0.00     0.045 A 
HETATM    9  C   UNL     1      -2.655  12.981  21.489  0.00  0.00     0.021 A 
HETATM   10  C   UNL     1      -2.971  13.583  20.260  0.00  0.00     0.037 A 
HETATM   11  C   UNL     1      -3.998  14.516  20.192  0.00  0.00     0.068 A 
HETATM   12  C   UNL     1      -4.689  14.890  21.334  0.00  0.00     0.074 A 
HETATM   13  C   UNL     1      -4.353  14.308  22.560  0.00  0.00     0.082 A 
BRANCH  11  14
HETATM   14  O   UNL     1      -4.375  15.089  19.013  0.00  0.00    -0.361 OA
HETATM   15  H   UNL     1      -3.757  14.817  18.315  0.00  0.00     0.217 HD
ENDBRANCH  11  14
BRANCH  13  16
HETATM   16  O   UNL     1      -5.035  14.738  23.668  0.00  0.00    -0.360 OA
HETATM   17  H   UNL     1      -5.399  13.970  24.136  0.00  0.00     0.217 HD
ENDBRANCH  13  16
ENDBRANCH   7   8
BRANCH   1  18
HETATM   18  C   UNL     1      -0.839  13.165  24.710  0.00  0.00     0.052 A 
HETATM   19  C   UNL     1      -0.680  14.475  25.209  0.00  0.00    -0.031 A 
HETATM   20  C   UNL     1       0.573  15.107  25.061  0.00  0.00     0.009 A 
HETATM   21  C   UNL     1       1.662  14.439  24.497  0.00  0.00     0.001 A 
HETATM   22  C   UNL     1       1.530  13.113  24.108  0.00  0.00     0.002 A 
HETATM   23  C   UNL     1       0.292  12.481  24.221  0.00  0.00     0.031 A 
BRANCH  19  24
HETATM   24  C   UNL     1      -1.739  15.179  26.028  0.00  0.00     0.036 C 
HETATM   25  C   UNL     1      -1.753  14.730  27.487  0.00  0.00     0.010 C 
ENDBRANCH  19  24
ENDBRANCH   1  18
TORSDOF 5
ENDMDL
MODEL 6
REMARK VINA RESULT:    -6.510      1.912      2.891
REMARK INTER + INTRA:          -9.404
REMARK INTER:                  -8.033
REMARK INTRA:                  -1.371
REMARK UNBOUND:                -1.371
REMARK  5 active torsions:
REMARK  status: ('A' for Active; 'I' for Inactive)
REMARK    1  A    between atoms: C_2  and  C_3 
REMARK    2  A    between atoms: C_8  and  N_9 
REMARK    3  A    between atoms: C_15  and  C_16 
REMARK    4  A    between atoms: C_19  and  O_20 
REMARK    5  A    between atoms: C_22  and  O_23 
ROOT
HETATM    1  N   UNL     1      -2.599  14.364  21.627  0.00  0.00    -0.244 N 
HETATM    2  C   UNL     1      -3.307  14.942  20.587  0.00  0.00     0.349 A 
HETATM    3  O   UNL     1      -2.902  15.453  19.553  0.00  0.00    -0.245 OA
HETATM    4  N   UNL     1      -4.642  14.817  20.933  0.00  0.00    -0.226 N 
HETATM    5  H   UNL     1      -5.431  15.133  20.394  0.00  0.00     0.194 HD
HETATM    6  N   UNL     1      -4.769  14.255  22.162  0.00  0.00    -0.151 NA
HETATM    7  C   UNL     1      -3.546  14.001  22.560  0.00  0.00     0.171 A 
ENDROOT
BRANCH   7   8
HETATM    8  C   UNL     1      -3.298  13.508  23.954  0.00  0.00     0.045 A 
HETATM    9  C   UNL     1      -2.503  14.223  24.862  0.00  0.00     0.021 A 
HETATM   10  C   UNL     1      -2.453  13.864  26.218  0.00  0.00     0.037 A 
HETATM   11  C   UNL     1      -3.220  12.801  26.681  0.00  0.00     0.068 A 
HETATM   12  C   UNL     1      -4.005  12.065  25.807  0.00  0.00     0.074 A 
HETATM   13  C   UNL     1      -4.031  12.409  24.452  0.00  0.00     0.082 A 
BRANCH  11  14
HETATM   14  O   UNL     1      -3.244  12.449  27.998  0.00  0.00    -0.361 OA
HETATM   15  H   UNL     1      -3.773  11.641  28.101  0.00  0.00     0.217 HD
ENDBRANCH  11  14
BRANCH  13  16
HETATM   16  O   UNL     1      -4.789  11.628  23.620  0.00  0.00    -0.360 OA
HETATM   17  H   UNL     1      -4.769  12.003  22.725  0.00  0.00     0.217 HD
ENDBRANCH  13  16
ENDBRANCH   7   8
BRANCH   1  18
HETATM   18  C   UNL     1      -1.197  14.273  21.610  0.00  0.00     0.052 A 
HETATM   19  C   UNL     1      -0.503  13.077  21.331  0.00  0.00    -0.031 A 
HETATM   20  C   UNL     1       0.905  13.074  21.425  0.00  0.00     0.009 A 
HETATM   21  C   UNL     1       1.616  14.239  21.719  0.00  0.00     0.001 A 
HETATM   22  C   UNL     1       0.936  15.437  21.885  0.00  0.00     0.002 A 
HETATM   23  C   UNL     1      -0.457  15.454  21.823  0.00  0.00     0.031 A 
BRANCH  19  24
HETATM   24  C   UNL     1      -1.182  11.837  20.790  0.00  0.00     0.036 C 
HETATM   25  C   UNL     1      -1.668  10.901  21.894  0.00  0.00     0.010 C 
ENDBRANCH  19  24
ENDBRANCH   1  18
TORSDOF 5
ENDMDL
MODEL 7
REMARK VINA RESULT:    -6.483      1.632      2.813
REMARK INTER + INTRA:          -9.370
REMARK INTER:                  -7.983
REMARK INTRA:                  -1.387
REMARK UNBOUND:                -1.371
REMARK  5 active torsions:
REMARK  status: ('A' for Active; 'I' for Inactive)
REMARK    1  A    between atoms: C_2  and  C_3 
REMARK    2  A    between atoms: C_8  and  N_9 
REMARK    3  A    between atoms: C_15  and  C_16 
REMARK    4  A    between atoms: C_19  and  O_20 
REMARK    5  A    between atoms: C_22  and  O_23 
ROOT
HETATM    1  N   UNL     1      -2.840  12.982  24.210  0.00  0.00    -0.244 N 
HETATM    2  C   UNL     1      -3.995  13.480  23.630  0.00  0.00     0.349 A 
HETATM    3  O   UNL     1      -4.360  14.638  23.483  0.00  0.00    -0.245 OA
HETATM    4  N   UNL     1      -4.703  12.370  23.202  0.00  0.00    -0.226 N 
HETATM    5  H   UNL     1      -5.594  12.375  22.733  0.00  0.00     0.194 HD
HETATM    6  N   UNL     1      -4.065  11.227  23.558  0.00  0.00    -0.151 NA
HETATM    7  C   UNL     1      -2.966  11.611  24.162  0.00  0.00     0.171 A 
ENDROOT
BRANCH   7   8
HETATM    8  C   UNL     1      -2.082  10.599  24.824  0.00  0.00     0.045 A 
HETATM    9  C   UNL     1      -0.978  10.036  24.166  0.00  0.00     0.021 A 
HETATM   10  C   UNL     1      -0.040   9.258  24.863  0.00  0.00     0.037 A 
HETATM   11  C   UNL     1      -0.186   9.059  26.231  0.00  0.00     0.068 A 
HETATM   12  C   UNL     1      -1.273   9.588  26.908  0.00  0.00     0.074 A 
HETATM   13  C   UNL     1      -2.219  10.341  26.206  0.00  0.00     0.082 A 
BRANCH  11  14
HETATM   14  O   UNL     1       0.726   8.354  26.958  0.00  0.00    -0.361 OA
HETATM   15  H   UNL     1       1.019   8.893  27.711  0.00  0.00     0.217 HD
ENDBRANCH  11  14
BRANCH  13  16
HETATM   16  O   UNL     1      -3.297  10.809  26.910  0.00  0.00    -0.360 OA
HETATM   17  H   UNL     1      -4.086  10.773  26.345  0.00  0.00     0.217 HD
ENDBRANCH  13  16
ENDBRANCH   7   8
BRANCH   1  18
HETATM   18  C   UNL     1      -1.848  13.828  24.733  0.00  0.00     0.052 A 
HETATM   19  C   UNL     1      -0.753  14.296  23.977  0.00  0.00    -0.031 A 
HETATM   20  C   UNL     1       0.234  15.070  24.624  0.00  0.00     0.009 A 
HETATM   21  C   UNL     1       0.109  15.433  25.966  0.00  0.00     0.001 A 
HETATM   22  C   UNL     1      -1.024  15.063  26.677  0.00  0.00     0.002 A 
HETATM   23  C   UNL     1      -1.996  14.274  26.063  0.00  0.00     0.031 A 
BRANCH  19  24
HETATM   24  C   UNL     1      -0.660  14.136  22.476  0.00  0.00     0.036 C 
HETATM   25  C   UNL     1       0.158  12.914  22.061  0.00  0.00     0.010 C 
ENDBRANCH  19  24
ENDBRANCH   1  18
TORSDOF 5
ENDMDL
MODEL 8
REMARK VINA RESULT:    -6.381      1.955      2.927
REMARK INTER + INTRA:          -9.244
REMARK INTER:                  -7.971
REMARK INTRA:                  -1.273
REMARK UNBOUND:                -1.371
REMARK  5 active torsions:
REMARK  status: ('A' for Active; 'I' for Inactive)
REMARK    1  A    between atoms: C_2  and  C_3 
REMARK    2  A    between atoms: C_8  and  N_9 
REMARK    3  A    between atoms: C_15  and  C_16 
REMARK    4  A    between atoms: C_19  and  O_20 
REMARK    5  A    between atoms: C_22  and  O_23 
ROOT
HETATM    1  N   UNL     1      -2.859  12.436  24.363  0.00  0.00    -0.244 N 
HETATM    2  C   UNL     1      -3.927  13.311  24.466  0.00  0.00     0.349 A 
HETATM    3  O   UNL     1      -4.168  14.330  23.835  0.00  0.00    -0.245 OA
HETATM    4  N   UNL     1      -4.738  12.791  25.460  0.00  0.00    -0.226 N 
HETATM    5  H   UNL     1      -5.606  13.182  25.790  0.00  0.00     0.194 HD
HETATM    6  N   UNL     1      -4.176  11.684  26.008  0.00  0.00    -0.151 NA
HETATM    7  C   UNL     1      -3.058  11.495  25.349  0.00  0.00     0.171 A 
ENDROOT
BRANCH   7   8
HETATM    8  C   UNL     1      -2.097  10.433  25.791  0.00  0.00     0.045 A 
HETATM    9  C   UNL     1      -1.342   9.690  24.872  0.00  0.00     0.021 A 
HETATM   10  C   UNL     1      -0.297   8.855  25.302  0.00  0.00     0.037 A 
HETATM   11  C   UNL     1       0.016   8.780  26.654  0.00  0.00     0.068 A 
HETATM   12  C   UNL     1      -0.720   9.490  27.589  0.00  0.00     0.074 A 
HETATM   13  C   UNL     1      -1.777  10.300  27.160  0.00  0.00     0.082 A 
BRANCH  11  14
HETATM   14  O   UNL     1       1.054   8.024  27.113  0.00  0.00    -0.361 OA
HETATM   15  H   UNL     1       0.727   7.136  27.335  0.00  0.00     0.217 HD
ENDBRANCH  11  14
BRANCH  13  16
HETATM   16  O   UNL     1      -2.501  10.951  28.124  0.00  0.00    -0.360 OA
HETATM   17  H   UNL     1      -3.057  10.308  28.592  0.00  0.00     0.217 HD
ENDBRANCH  13  16
ENDBRANCH   7   8
BRANCH   1  18
HETATM   18  C   UNL     1      -1.835  12.623  23.418  0.00  0.00     0.052 A 
HETATM   19  C   UNL     1      -0.645  13.326  23.698  0.00  0.00    -0.031 A 
HETATM   20  C   UNL     1       0.280  13.532  22.653  0.00  0.00     0.009 A 
HETATM   21  C   UNL     1       0.070  12.998  21.380  0.00  0.00     0.001 A 
HETATM   22  C   UNL     1      -1.050  12.214  21.139  0.00  0.00     0.002 A 
HETATM   23  C   UNL     1      -1.989  12.023  22.152  0.00  0.00     0.031 A 
BRANCH  19  24
HETATM   24  C   UNL     1      -0.242  13.740  25.096  0.00  0.00     0.036 C 
HETATM   25  C   UNL     1      -0.773  15.119  25.481  0.00  0.00     0.010 C 
ENDBRANCH  19  24
ENDBRANCH   1  18
TORSDOF 5
ENDMDL
