MODEL 1
REMARK VINA RESULT:    -9.374      0.000      0.000
REMARK INTER + INTRA:         -15.248
REMARK INTER:                 -13.666
REMARK INTRA:                  -1.582
REMARK UNBOUND:                -2.038
REMARK  8 active torsions:
REMARK  status: ('A' for Active; 'I' for Inactive)
REMARK       I    between atoms: C_2  and  N_3 
REMARK    1  A    between atoms: C_2  and  C_18 
REMARK    2  A    between atoms: N_3  and  C_4 
REMARK    3  A    between atoms: C_4  and  C_5 
REMARK    4  A    between atoms: C_7  and  C_8 
REMARK    5  A    between atoms: C_19  and  O_20 
REMARK    6  A    between atoms: C_22  and  O_23 
REMARK    7  A    between atoms: C_24  and  C_25 
REMARK    8  A    between atoms: N_26  and  C_27 
ROOT
HETATM    1  C   UNL     1       7.493  11.367  22.158  0.00  0.00     0.066 A 
HETATM    2  C   UNL     1       7.827  10.015  22.360  0.00  0.00     0.084 A 
HETATM    3  C   UNL     1       9.024   9.631  22.965  0.00  0.00     0.075 A 
HETATM    4  C   UNL     1       9.909  10.599  23.433  0.00  0.00     0.082 A 
HETATM    5  C   UNL     1       9.650  11.952  23.215  0.00  0.00     0.046 A 
HETATM    6  C   UNL     1       8.456  12.318  22.524  0.00  0.00     0.038 A 
ENDROOT
BRANCH   1   7
HETATM    7  C   UNL     1       6.144  11.663  21.560  0.00  0.00     0.256 C 
HETATM    8  O   UNL     1       6.075  11.485  20.336  0.00  0.00    -0.267 OA
HETATM    9  N   UNL     1       4.997  11.999  22.293  0.00  0.00    -0.348 N 
HETATM   10  C   UNL     1       4.880  12.122  23.740  0.00  0.00     0.153 C 
BRANCH   9  11
HETATM   11  C   UNL     1       3.695  11.961  21.574  0.00  0.00     0.164 C 
BRANCH  11  12
HETATM   12  C   UNL     1       2.700  12.916  22.216  0.00  0.00    -0.039 C 
HETATM   13  C   UNL     1       1.360  12.521  22.385  0.00  0.00     0.021 C 
HETATM   14  C   UNL     1       0.487  13.198  23.257  0.00  0.00    -0.022 C 
HETATM   15  C   UNL     1       0.988  14.352  23.889  0.00  0.00     0.012 C 
HETATM   16  C   UNL     1       2.278  14.827  23.633  0.00  0.00     0.001 C 
HETATM   17  C   UNL     1       3.132  14.113  22.798  0.00  0.00     0.009 C 
BRANCH  14  18
HETATM   18  C   UNL     1      -0.864  12.682  23.560  0.00  0.00     0.009 A 
HETATM   19  C   UNL     1      -1.934  12.759  22.678  0.00  0.00     0.131 A 
HETATM   20  N   UNL     1      -3.169  12.255  22.904  0.00  0.00    -0.253 NA
HETATM   21  C   UNL     1      -3.335  11.635  24.078  0.00  0.00     0.232 A 
HETATM   22  N   UNL     1      -2.401  11.490  25.025  0.00  0.00    -0.253 NA
HETATM   23  C   UNL     1      -1.191  12.025  24.737  0.00  0.00     0.131 A 
ENDBRANCH  14  18
ENDBRANCH  11  12
ENDBRANCH   9  11
ENDBRANCH   1   7
BRANCH   2  24
HETATM   24  O   UNL     1       6.999   8.975  22.009  0.00  0.00    -0.360 OA
HETATM   25  H   UNL     1       6.377   9.309  21.324  0.00  0.00     0.217 HD
ENDBRANCH   2  24
BRANCH   5  26
HETATM   26  C   UNL     1      10.385  13.037  23.925  0.00  0.00     0.172 A 
HETATM   27  N   UNL     1       9.965  14.312  24.222  0.00  0.00    -0.244 N 
HETATM   28  C   UNL     1      11.111  14.976  24.633  0.00  0.00     0.349 A 
HETATM   29  O   UNL     1      11.291  16.139  24.955  0.00  0.00    -0.245 OA
HETATM   30  N   UNL     1      12.116  14.028  24.638  0.00  0.00    -0.226 N 
HETATM   31  N   UNL     1      11.657  12.834  24.189  0.00  0.00    -0.151 NA
HETATM   32  H   UNL     1      13.088  14.215  24.841  0.00  0.00     0.194 HD
BRANCH  27  33
HETATM   33  C   UNL     1       8.711  14.986  24.243  0.00  0.00     0.051 C 
HETATM   34  C   UNL     1       8.109  15.601  23.129  0.00  0.00    -0.035 C 
HETATM   35  C   UNL     1       8.777  15.874  21.816  0.00  0.00     0.050 C 
HETATM   36  C   UNL     1       6.730  15.911  23.192  0.00  0.00     0.009 C 
HETATM   37  C   UNL     1       5.986  15.744  24.361  0.00  0.00     0.001 C 
HETATM   38  C   UNL     1       6.611  15.265  25.498  0.00  0.00     0.002 C 
HETATM   39  C   UNL     1       7.946  14.864  25.426  0.00  0.00     0.031 C 
ENDBRANCH  27  33
ENDBRANCH   5  26
BRANCH   4  40
HETATM   40  O   UNL     1      10.981  10.191  24.167  0.00  0.00    -0.360 OA
HETATM   41  H   UNL     1      11.624   9.730  23.601  0.00  0.00     0.217 HD
ENDBRANCH   4  40
TORSDOF 8
ENDMDL
MODEL 2
REMARK VINA RESULT:    -9.347      1.840      2.807
REMARK INTER + INTRA:         -15.210
REMARK INTER:                 -13.108
REMARK INTRA:                  -2.101
REMARK UNBOUND:                -2.038
REMARK  8 active torsions:
REMARK  status: ('A' for Active; 'I' for Inactive)
REMARK       I    between atoms: C_2  and  N_3 
REMARK    1  A    between atoms: C_2  and  C_18 
REMARK    2  A    between atoms: N_3  and  C_4 
REMARK    3  A    between atoms: C_4  and  C_5 
REMARK    4  A    between atoms: C_7  and  C_8 
REMARK    5  A    between atoms: C_19  and  O_20 
REMARK    6  A    between atoms: C_22  and  O_23 
REMARK    7  A    between atoms: C_24  and  C_25 
REMARK    8  A    between atoms: N_26  and  C_27 
ROOT
HETATM    1  C   UNL     1       7.568  10.790  23.529  0.00  0.00     0.066 A 
HETATM    2  C   UNL     1       7.918   9.454  23.806  0.00  0.00     0.084 A 
HETATM    3  C   UNL     1       9.211   8.971  23.604  0.00  0.00     0.075 A 
HETATM    4  C   UNL     1      10.214   9.831  23.161  0.00  0.00     0.082 A 
HETATM    5  C   UNL     1       9.911  11.150  22.825  0.00  0.00     0.046 A 
HETATM    6  C   UNL     1       8.564  11.600  22.966  0.00  0.00     0.038 A 
ENDROOT
BRANCH   1   7
HETATM    7  C   UNL     1       6.162  11.216  23.853  0.00  0.00     0.256 C 
HETATM    8  O   UNL     1       5.287  10.645  23.186  0.00  0.00    -0.267 OA
HETATM    9  N   UNL     1       5.806  12.089  24.889  0.00  0.00    -0.348 N 
HETATM   10  C   UNL     1       6.698  12.741  25.840  0.00  0.00     0.153 C 
BRANCH   9  11
HETATM   11  C   UNL     1       4.365  12.162  25.254  0.00  0.00     0.164 C 
BRANCH  11  12
HETATM   12  C   UNL     1       3.617  13.088  24.307  0.00  0.00    -0.039 C 
HETATM   13  C   UNL     1       2.381  12.686  23.767  0.00  0.00     0.021 C 
HETATM   14  C   UNL     1       1.494  13.603  23.173  0.00  0.00    -0.022 C 
HETATM   15  C   UNL     1       1.937  14.934  23.058  0.00  0.00     0.012 C 
HETATM   16  C   UNL     1       3.214  15.320  23.477  0.00  0.00     0.001 C 
HETATM   17  C   UNL     1       4.053  14.400  24.097  0.00  0.00     0.009 C 
BRANCH  14  18
HETATM   18  C   UNL     1       0.130  13.209  22.761  0.00  0.00     0.009 A 
HETATM   19  C   UNL     1      -0.845  12.766  23.645  0.00  0.00     0.131 A 
HETATM   20  N   UNL     1      -2.115  12.443  23.308  0.00  0.00    -0.253 NA
HETATM   21  C   UNL     1      -2.422  12.581  22.013  0.00  0.00     0.232 A 
HETATM   22  N   UNL     1      -1.588  12.990  21.050  0.00  0.00    -0.253 NA
HETATM   23  C   UNL     1      -0.331  13.288  21.455  0.00  0.00     0.131 A 
ENDBRANCH  14  18
ENDBRANCH  11  12
ENDBRANCH   9  11
ENDBRANCH   1   7
BRANCH   2  24
HETATM   24  O   UNL     1       7.033   8.535  24.318  0.00  0.00    -0.360 OA
HETATM   25  H   UNL     1       7.134   8.540  25.297  0.00  0.00     0.217 HD
ENDBRANCH   2  24
BRANCH   5  26
HETATM   26  C   UNL     1      10.959  12.191  22.626  0.00  0.00     0.172 A 
HETATM   27  N   UNL     1      11.207  13.318  23.372  0.00  0.00    -0.244 N 
HETATM   28  C   UNL     1      12.093  14.062  22.606  0.00  0.00     0.349 A 
HETATM   29  O   UNL     1      12.581  15.165  22.792  0.00  0.00    -0.245 OA
HETATM   30  N   UNL     1      12.380  13.286  21.500  0.00  0.00    -0.226 N 
HETATM   31  N   UNL     1      11.665  12.134  21.518  0.00  0.00    -0.151 NA
HETATM   32  H   UNL     1      12.957  13.576  20.724  0.00  0.00     0.194 HD
BRANCH  27  33
HETATM   33  C   UNL     1      10.819  13.787  24.660  0.00  0.00     0.051 C 
HETATM   34  C   UNL     1      11.594  13.663  25.828  0.00  0.00    -0.035 C 
HETATM   35  C   UNL     1      12.818  12.813  25.978  0.00  0.00     0.050 C 
HETATM   36  C   UNL     1      11.269  14.473  26.943  0.00  0.00     0.009 C 
HETATM   37  C   UNL     1      10.138  15.289  26.961  0.00  0.00     0.001 C 
HETATM   38  C   UNL     1       9.299  15.308  25.860  0.00  0.00     0.002 C 
HETATM   39  C   UNL     1       9.657  14.590  24.718  0.00  0.00     0.031 C 
ENDBRANCH  27  33
ENDBRANCH   5  26
BRANCH   4  40
HETATM   40  O   UNL     1      11.495   9.369  23.138  0.00  0.00    -0.360 OA
HETATM   41  H   UNL     1      11.987   9.698  23.910  0.00  0.00     0.217 HD
ENDBRANCH   4  40
TORSDOF 8
ENDMDL
MODEL 3
REMARK VINA RESULT:    -9.107      3.991      5.542
REMARK INTER + INTRA:         -14.871
REMARK INTER:                 -12.930
REMARK INTRA:                  -1.941
REMARK UNBOUND:                -2.038
REMARK  8 active torsions:
REMARK  status: ('A' for Active; 'I' for Inactive)
REMARK       I    between atoms: C_2  and  N_3 
REMARK    1  A    between atoms: C_2  and  C_18 
REMARK    2  A    between atoms: N_3  and  C_4 
REMARK    3  A    between atoms: C_4  and  C_5 
REMARK    4  A    between atoms: C_7  and  C_8 
REMARK    5  A    between atoms: C_19  and  O_20 
REMARK    6  A    between atoms: C_22  and  O_23 
REMARK    7  A    between atoms: C_24  and  C_25 
REMARK    8  A    between atoms: N_26  and  C_27 
ROOT
HETATM    1  C   UNL     1       8.377  10.218  22.520  0.00  0.00     0.066 A 
HETATM    2  C   UNL     1       8.885   9.496  23.617  0.00  0.00     0.084 A 
HETATM    3  C   UNL     1       9.928   9.985  24.404  0.00  0.00     0.075 A 
HETATM    4  C   UNL     1      10.466  11.244  24.145  0.00  0.00     0.082 A 
HETATM    5  C   UNL     1      10.033  11.978  23.042  0.00  0.00     0.046 A 
HETATM    6  C   UNL     1       9.019  11.424  22.204  0.00  0.00     0.038 A 
ENDROOT
BRANCH   1   7
HETATM    7  C   UNL     1       7.204   9.624  21.787  0.00  0.00     0.256 C 
HETATM    8  O   UNL     1       7.362   8.446  21.436  0.00  0.00    -0.267 OA
HETATM    9  N   UNL     1       5.972  10.262  21.595  0.00  0.00    -0.348 N 
HETATM   10  C   UNL     1       5.583  11.589  22.055  0.00  0.00     0.153 C 
BRANCH   9  11
HETATM   11  C   UNL     1       4.838   9.423  21.120  0.00  0.00     0.164 C 
BRANCH  11  12
HETATM   12  C   UNL     1       4.737   9.466  19.603  0.00  0.00    -0.039 C 
HETATM   13  C   UNL     1       4.390   8.303  18.891  0.00  0.00     0.021 C 
HETATM   14  C   UNL     1       3.954   8.349  17.554  0.00  0.00    -0.022 C 
HETATM   15  C   UNL     1       3.968   9.607  16.924  0.00  0.00     0.012 C 
HETATM   16  C   UNL     1       4.430  10.752  17.580  0.00  0.00     0.001 C 
HETATM   17  C   UNL     1       4.816  10.682  18.915  0.00  0.00     0.009 C 
BRANCH  14  18
HETATM   18  C   UNL     1       3.431   7.150  16.865  0.00  0.00     0.009 A 
HETATM   19  C   UNL     1       2.423   7.188  15.911  0.00  0.00     0.131 A 
HETATM   20  N   UNL     1       1.955   6.117  15.229  0.00  0.00    -0.253 NA
HETATM   21  C   UNL     1       2.537   4.947  15.517  0.00  0.00     0.232 A 
HETATM   22  N   UNL     1       3.512   4.759  16.414  0.00  0.00    -0.253 NA
HETATM   23  C   UNL     1       3.927   5.870  17.067  0.00  0.00     0.131 A 
ENDBRANCH  14  18
ENDBRANCH  11  12
ENDBRANCH   9  11
ENDBRANCH   1   7
BRANCH   2  24
HETATM   24  O   UNL     1       8.384   8.280  24.015  0.00  0.00    -0.360 OA
HETATM   25  H   UNL     1       7.405   8.319  23.926  0.00  0.00     0.217 HD
ENDBRANCH   2  24
BRANCH   5  26
HETATM   26  C   UNL     1      10.343  13.426  22.867  0.00  0.00     0.172 A 
HETATM   27  N   UNL     1       9.499  14.506  22.966  0.00  0.00    -0.244 N 
HETATM   28  C   UNL     1      10.223  15.571  22.449  0.00  0.00     0.349 A 
HETATM   29  O   UNL     1       9.912  16.736  22.263  0.00  0.00    -0.245 OA
HETATM   30  N   UNL     1      11.478  15.069  22.163  0.00  0.00    -0.226 N 
HETATM   31  N   UNL     1      11.538  13.739  22.416  0.00  0.00    -0.151 NA
HETATM   32  H   UNL     1      12.222  15.590  21.720  0.00  0.00     0.194 HD
BRANCH  27  33
HETATM   33  C   UNL     1       8.194  14.728  23.492  0.00  0.00     0.051 C 
HETATM   34  C   UNL     1       7.907  15.009  24.841  0.00  0.00    -0.035 C 
HETATM   35  C   UNL     1       8.867  14.874  25.984  0.00  0.00     0.050 C 
HETATM   36  C   UNL     1       6.642  15.557  25.163  0.00  0.00     0.009 C 
HETATM   37  C   UNL     1       5.636  15.709  24.208  0.00  0.00     0.001 C 
HETATM   38  C   UNL     1       5.873  15.306  22.906  0.00  0.00     0.002 C 
HETATM   39  C   UNL     1       7.145  14.854  22.552  0.00  0.00     0.031 C 
ENDBRANCH  27  33
ENDBRANCH   5  26
BRANCH   4  40
HETATM   40  O   UNL     1      11.360  11.758  25.033  0.00  0.00    -0.360 OA
HETATM   41  H   UNL     1      12.112  12.159  24.564  0.00  0.00     0.217 HD
ENDBRANCH   4  40
TORSDOF 8
ENDMDL
MODEL 4
REMARK VINA RESULT:    -8.868      4.516      6.243
REMARK INTER + INTRA:         -14.535
REMARK INTER:                 -12.520
REMARK INTRA:                  -2.015
REMARK UNBOUND:                -2.038
REMARK  8 active torsions:
REMARK  status: ('A' for Active; 'I' for Inactive)
REMARK       I    between atoms: C_2  and  N_3 
REMARK    1  A    between atoms: C_2  and  C_18 
REMARK    2  A    between atoms: N_3  and  C_4 
REMARK    3  A    between atoms: C_4  and  C_5 
REMARK    4  A    between atoms: C_7  and  C_8 
REMARK    5  A    between atoms: C_19  and  O_20 
REMARK    6  A    between atoms: C_22  and  O_23 
REMARK    7  A    between atoms: C_24  and  C_25 
REMARK    8  A    between atoms: N_26  and  C_27 
ROOT
HETATM    1  C   UNL     1       6.023  11.794  20.770  0.00  0.00     0.066 A 
HETATM    2  C   UNL     1       4.799  12.349  21.191  0.00  0.00     0.084 A 
HETATM    3  C   UNL     1       4.741  13.460  22.032  0.00  0.00     0.075 A 
HETATM    4  C   UNL     1       5.917  14.085  22.443  0.00  0.00     0.082 A 
HETATM    5  C   UNL     1       7.156  13.548  22.095  0.00  0.00     0.046 A 
HETATM    6  C   UNL     1       7.190  12.364  21.298  0.00  0.00     0.038 A 
ENDROOT
BRANCH   1   7
HETATM    7  C   UNL     1       5.962  10.640  19.807  0.00  0.00     0.256 C 
HETATM    8  O   UNL     1       6.344  10.910  18.659  0.00  0.00    -0.267 OA
HETATM    9  N   UNL     1       5.627   9.324  20.151  0.00  0.00    -0.348 N 
HETATM   10  C   UNL     1       5.281   8.818  21.473  0.00  0.00     0.153 C 
BRANCH   9  11
HETATM   11  C   UNL     1       5.909   8.264  19.145  0.00  0.00     0.164 C 
BRANCH  11  12
HETATM   12  C   UNL     1       4.619   7.768  18.511  0.00  0.00    -0.039 C 
HETATM   13  C   UNL     1       3.957   6.650  19.053  0.00  0.00     0.021 C 
HETATM   14  C   UNL     1       2.618   6.352  18.740  0.00  0.00    -0.022 C 
HETATM   15  C   UNL     1       1.991   7.173  17.784  0.00  0.00     0.012 C 
HETATM   16  C   UNL     1       2.676   8.210  17.145  0.00  0.00     0.001 C 
HETATM   17  C   UNL     1       3.987   8.507  17.505  0.00  0.00     0.009 C 
BRANCH  14  18
HETATM   18  C   UNL     1       1.877   5.280  19.437  0.00  0.00     0.009 A 
HETATM   19  C   UNL     1       2.065   4.956  20.774  0.00  0.00     0.131 A 
HETATM   20  N   UNL     1       1.372   4.014  21.454  0.00  0.00    -0.253 NA
HETATM   21  C   UNL     1       0.433   3.368  20.753  0.00  0.00     0.232 A 
HETATM   22  N   UNL     1       0.145   3.569  19.461  0.00  0.00    -0.253 NA
HETATM   23  C   UNL     1       0.883   4.519  18.840  0.00  0.00     0.131 A 
ENDBRANCH  14  18
ENDBRANCH  11  12
ENDBRANCH   9  11
ENDBRANCH   1   7
BRANCH   2  24
HETATM   24  O   UNL     1       3.576  11.866  20.790  0.00  0.00    -0.360 OA
HETATM   25  H   UNL     1       3.421  11.019  21.267  0.00  0.00     0.217 HD
ENDBRANCH   2  24
BRANCH   5  26
HETATM   26  C   UNL     1       8.431  14.304  22.246  0.00  0.00     0.172 A 
HETATM   27  N   UNL     1       9.655  13.852  22.682  0.00  0.00    -0.244 N 
HETATM   28  C   UNL     1      10.403  15.002  22.889  0.00  0.00     0.349 A 
HETATM   29  O   UNL     1      11.534  15.154  23.322  0.00  0.00    -0.245 OA
HETATM   30  N   UNL     1       9.605  16.051  22.478  0.00  0.00    -0.226 N 
HETATM   31  N   UNL     1       8.383  15.608  22.091  0.00  0.00    -0.151 NA
HETATM   32  H   UNL     1       9.849  17.029  22.555  0.00  0.00     0.194 HD
BRANCH  27  33
HETATM   33  C   UNL     1      10.251  12.575  22.881  0.00  0.00     0.051 C 
HETATM   34  C   UNL     1      10.121  11.798  24.047  0.00  0.00    -0.035 C 
HETATM   35  C   UNL     1       9.561  12.273  25.353  0.00  0.00     0.050 C 
HETATM   36  C   UNL     1      10.450  10.423  23.984  0.00  0.00     0.009 C 
HETATM   37  C   UNL     1      11.014   9.848  22.844  0.00  0.00     0.001 C 
HETATM   38  C   UNL     1      11.267  10.643  21.740  0.00  0.00     0.002 C 
HETATM   39  C   UNL     1      10.861  11.978  21.752  0.00  0.00     0.031 C 
ENDBRANCH  27  33
ENDBRANCH   5  26
BRANCH   4  40
HETATM   40  O   UNL     1       5.818  15.262  23.120  0.00  0.00    -0.360 OA
HETATM   41  H   UNL     1       6.521  15.328  23.790  0.00  0.00     0.217 HD
ENDBRANCH   4  40
TORSDOF 8
ENDMDL
MODEL 5
REMARK VINA RESULT:    -8.796      4.151      7.112
REMARK INTER + INTRA:         -14.433
REMARK INTER:                 -12.298
REMARK INTRA:                  -2.135
REMARK UNBOUND:                -2.038
REMARK  8 active torsions:
REMARK  status: ('A' for Active; 'I' for Inactive)
REMARK       I    between atoms: C_2  and  N_3 
REMARK    1  A    between atoms: C_2  and  C_18 
REMARK    2  A    between atoms: N_3  and  C_4 
REMARK    3  A    between atoms: C_4  and  C_5 
REMARK    4  A    between atoms: C_7  and  C_8 
REMARK    5  A    between atoms: C_19  and  O_20 
REMARK    6  A    between atoms: C_22  and  O_23 
REMARK    7  A    between atoms: C_24  and  C_25 
REMARK    8  A    between atoms: N_26  and  C_27 
ROOT
HETATM    1  C   UNL     1       7.571   9.703  23.626  0.00  0.00     0.066 A 
HETATM    2  C   UNL     1       8.751   8.936  23.644  0.00  0.00     0.084 A 
HETATM    3  C   UNL     1       8.731   7.554  23.832  0.00  0.00     0.075 A 
HETATM    4  C   UNL     1       7.516   6.885  23.961  0.00  0.00     0.082 A 
HETATM    5  C   UNL     1       6.321   7.603  23.999  0.00  0.00     0.046 A 
HETATM    6  C   UNL     1       6.371   9.024  23.883  0.00  0.00     0.038 A 
ENDROOT
BRANCH   1   7
HETATM    7  C   UNL     1       7.709  11.175  23.344  0.00  0.00     0.256 C 
HETATM    8  O   UNL     1       8.209  11.829  24.269  0.00  0.00    -0.267 OA
HETATM    9  N   UNL     1       7.424  11.787  22.116  0.00  0.00    -0.348 N 
HETATM   10  C   UNL     1       6.953  11.143  20.897  0.00  0.00     0.153 C 
BRANCH   9  11
HETATM   11  C   UNL     1       7.900  13.185  21.925  0.00  0.00     0.164 C 
BRANCH  11  12
HETATM   12  C   UNL     1       6.840  14.179  22.376  0.00  0.00    -0.039 C 
HETATM   13  C   UNL     1       5.479  13.825  22.317  0.00  0.00     0.021 C 
HETATM   14  C   UNL     1       4.492  14.542  23.018  0.00  0.00    -0.022 C 
HETATM   15  C   UNL     1       4.913  15.692  23.712  0.00  0.00     0.012 C 
HETATM   16  C   UNL     1       6.242  16.126  23.675  0.00  0.00     0.001 C 
HETATM   17  C   UNL     1       7.203  15.373  23.007  0.00  0.00     0.009 C 
BRANCH  14  18
HETATM   18  C   UNL     1       3.093  14.071  23.091  0.00  0.00     0.009 A 
HETATM   19  C   UNL     1       2.154  14.577  23.979  0.00  0.00     0.131 A 
HETATM   20  N   UNL     1       0.855  14.201  24.040  0.00  0.00    -0.253 NA
HETATM   21  C   UNL     1       0.480  13.271  23.154  0.00  0.00     0.232 A 
HETATM   22  N   UNL     1       1.274  12.691  22.246  0.00  0.00    -0.253 NA
HETATM   23  C   UNL     1       2.562  13.106  22.246  0.00  0.00     0.131 A 
ENDBRANCH  14  18
ENDBRANCH  11  12
ENDBRANCH   9  11
ENDBRANCH   1   7
BRANCH   2  24
HETATM   24  O   UNL     1      10.001   9.473  23.451  0.00  0.00    -0.360 OA
HETATM   25  H   UNL     1      10.553   9.226  24.228  0.00  0.00     0.217 HD
ENDBRANCH   2  24
BRANCH   5  26
HETATM   26  C   UNL     1       4.988   6.954  23.844  0.00  0.00     0.172 A 
HETATM   27  N   UNL     1       4.141   6.482  24.818  0.00  0.00    -0.244 N 
HETATM   28  C   UNL     1       3.188   5.743  24.132  0.00  0.00     0.349 A 
HETATM   29  O   UNL     1       2.248   5.077  24.534  0.00  0.00    -0.245 OA
HETATM   30  N   UNL     1       3.482   5.900  22.791  0.00  0.00    -0.226 N 
HETATM   31  N   UNL     1       4.604   6.644  22.626  0.00  0.00    -0.151 NA
HETATM   32  H   UNL     1       2.999   5.437  22.035  0.00  0.00     0.194 HD
BRANCH  27  33
HETATM   33  C   UNL     1       4.032   6.638  26.230  0.00  0.00     0.051 C 
HETATM   34  C   UNL     1       4.511   5.718  27.181  0.00  0.00    -0.035 C 
HETATM   35  C   UNL     1       4.980   4.325  26.888  0.00  0.00     0.050 C 
HETATM   36  C   UNL     1       4.666   6.149  28.520  0.00  0.00     0.009 C 
HETATM   37  C   UNL     1       4.241   7.408  28.946  0.00  0.00     0.001 C 
HETATM   38  C   UNL     1       3.645   8.264  28.038  0.00  0.00     0.002 C 
HETATM   39  C   UNL     1       3.573   7.892  26.695  0.00  0.00     0.031 C 
ENDBRANCH  27  33
ENDBRANCH   5  26
BRANCH   4  40
HETATM   40  O   UNL     1       7.527   5.524  23.972  0.00  0.00    -0.360 OA
HETATM   41  H   UNL     1       8.259   5.186  23.427  0.00  0.00     0.217 HD
ENDBRANCH   4  40
TORSDOF 8
ENDMDL
MODEL 6
REMARK VINA RESULT:    -8.789      3.262      4.304
REMARK INTER + INTRA:         -14.424
REMARK INTER:                 -12.162
REMARK INTRA:                  -2.262
REMARK UNBOUND:                -2.038
REMARK  8 active torsions:
REMARK  status: ('A' for Active; 'I' for Inactive)
REMARK       I    between atoms: C_2  and  N_3 
REMARK    1  A    between atoms: C_2  and  C_18 
REMARK    2  A    between atoms: N_3  and  C_4 
REMARK    3  A    between atoms: C_4  and  C_5 
REMARK    4  A    between atoms: C_7  and  C_8 
REMARK    5  A    between atoms: C_19  and  O_20 
REMARK    6  A    between atoms: C_22  and  O_23 
REMARK    7  A    between atoms: C_24  and  C_25 
REMARK    8  A    between atoms: N_26  and  C_27 
ROOT
HETATM    1  C   UNL     1       8.047  10.216  22.983  0.00  0.00     0.066 A 
HETATM    2  C   UNL     1       8.968   9.473  23.745  0.00  0.00     0.084 A 
HETATM    3  C   UNL     1      10.231   9.968  24.068  0.00  0.00     0.075 A 
HETATM    4  C   UNL     1      10.596  11.254  23.675  0.00  0.00     0.082 A 
HETATM    5  C   UNL     1       9.742  12.014  22.877  0.00  0.00     0.046 A 
HETATM    6  C   UNL     1       8.485  11.456  22.494  0.00  0.00     0.038 A 
ENDROOT
BRANCH   1   7
HETATM    7  C   UNL     1       6.688   9.610  22.757  0.00  0.00     0.256 C 
HETATM    8  O   UNL     1       6.694   8.587  22.057  0.00  0.00    -0.267 OA
HETATM    9  N   UNL     1       5.502  10.050  23.358  0.00  0.00    -0.348 N 
HETATM   10  C   UNL     1       5.346  11.151  24.301  0.00  0.00     0.153 C 
BRANCH   9  11
HETATM   11  C   UNL     1       4.316   9.157  23.260  0.00  0.00     0.164 C 
BRANCH  11  12
HETATM   12  C   UNL     1       4.132   8.366  24.546  0.00  0.00    -0.039 C 
HETATM   13  C   UNL     1       2.999   8.593  25.350  0.00  0.00     0.021 C 
HETATM   14  C   UNL     1       2.598   7.684  26.347  0.00  0.00    -0.022 C 
HETATM   15  C   UNL     1       3.436   6.575  26.570  0.00  0.00     0.012 C 
HETATM   16  C   UNL     1       4.630   6.404  25.863  0.00  0.00     0.001 C 
HETATM   17  C   UNL     1       4.979   7.297  24.856  0.00  0.00     0.009 C 
BRANCH  14  18
HETATM   18  C   UNL     1       1.320   7.840  27.072  0.00  0.00     0.009 A 
HETATM   19  C   UNL     1       1.139   7.482  28.402  0.00  0.00     0.131 A 
HETATM   20  N   UNL     1      -0.002   7.654  29.108  0.00  0.00    -0.253 NA
HETATM   21  C   UNL     1      -1.013   8.225  28.443  0.00  0.00     0.232 A 
HETATM   22  N   UNL     1      -0.986   8.615  27.163  0.00  0.00    -0.253 NA
HETATM   23  C   UNL     1       0.183   8.404  26.513  0.00  0.00     0.131 A 
ENDBRANCH  14  18
ENDBRANCH  11  12
ENDBRANCH   9  11
ENDBRANCH   1   7
BRANCH   2  24
HETATM   24  O   UNL     1       8.691   8.225  24.252  0.00  0.00    -0.360 OA
HETATM   25  H   UNL     1       7.896   7.884  23.783  0.00  0.00     0.217 HD
ENDBRANCH   2  24
BRANCH   5  26
HETATM   26  C   UNL     1       9.930  13.477  22.663  0.00  0.00     0.172 A 
HETATM   27  N   UNL     1       9.016  14.494  22.808  0.00  0.00    -0.244 N 
HETATM   28  C   UNL     1       9.621  15.599  22.228  0.00  0.00     0.349 A 
HETATM   29  O   UNL     1       9.212  16.735  22.050  0.00  0.00    -0.245 OA
HETATM   30  N   UNL     1      10.887  15.187  21.860  0.00  0.00    -0.226 N 
HETATM   31  N   UNL     1      11.063  13.869  22.125  0.00  0.00    -0.151 NA
HETATM   32  H   UNL     1      11.557  15.753  21.359  0.00  0.00     0.194 HD
BRANCH  27  33
HETATM   33  C   UNL     1       7.738  14.628  23.422  0.00  0.00     0.051 C 
HETATM   34  C   UNL     1       7.525  14.943  24.777  0.00  0.00    -0.035 C 
HETATM   35  C   UNL     1       8.572  14.941  25.848  0.00  0.00     0.050 C 
HETATM   36  C   UNL     1       6.244  15.397  25.172  0.00  0.00     0.009 C 
HETATM   37  C   UNL     1       5.162  15.421  24.291  0.00  0.00     0.001 C 
HETATM   38  C   UNL     1       5.339  14.982  22.990  0.00  0.00     0.002 C 
HETATM   39  C   UNL     1       6.617  14.623  22.559  0.00  0.00     0.031 C 
ENDBRANCH  27  33
ENDBRANCH   5  26
BRANCH   4  40
HETATM   40  O   UNL     1      11.765  11.766  24.152  0.00  0.00    -0.360 OA
HETATM   41  H   UNL     1      11.766  12.736  24.076  0.00  0.00     0.217 HD
ENDBRANCH   4  40
TORSDOF 8
ENDMDL
MODEL 7
REMARK VINA RESULT:    -8.784      2.981      8.583
REMARK INTER + INTRA:         -14.416
REMARK INTER:                 -11.910
REMARK INTRA:                  -2.506
REMARK UNBOUND:                -2.038
REMARK  8 active torsions:
REMARK  status: ('A' for Active; 'I' for Inactive)
REMARK       I    between atoms: C_2  and  N_3 
REMARK    1  A    between atoms: C_2  and  C_18 
REMARK    2  A    between atoms: N_3  and  C_4 
REMARK    3  A    between atoms: C_4  and  C_5 
REMARK    4  A    between atoms: C_7  and  C_8 
REMARK    5  A    between atoms: C_19  and  O_20 
REMARK    6  A    between atoms: C_22  and  O_23 
REMARK    7  A    between atoms: C_24  and  C_25 
REMARK    8  A    between atoms: N_26  and  C_27 
ROOT
HETATM    1  C   UNL     1       6.264  11.578  20.772  0.00  0.00     0.066 A 
HETATM    2  C   UNL     1       5.742  11.310  19.492  0.00  0.00     0.084 A 
HETATM    3  C   UNL     1       4.398  11.516  19.183  0.00  0.00     0.075 A 
HETATM    4  C   UNL     1       3.537  12.047  20.141  0.00  0.00     0.082 A 
HETATM    5  C   UNL     1       3.990  12.285  21.438  0.00  0.00     0.046 A 
HETATM    6  C   UNL     1       5.351  11.993  21.752  0.00  0.00     0.038 A 
ENDROOT
BRANCH   1   7
HETATM    7  C   UNL     1       7.743  11.385  20.969  0.00  0.00     0.256 C 
HETATM    8  O   UNL     1       8.444  11.815  20.042  0.00  0.00    -0.267 OA
HETATM    9  N   UNL     1       8.339  10.878  22.131  0.00  0.00    -0.348 N 
HETATM   10  C   UNL     1       7.668  10.451  23.352  0.00  0.00     0.153 C 
BRANCH   9  11
HETATM   11  C   UNL     1       9.812  11.037  22.267  0.00  0.00     0.164 C 
BRANCH  11  12
HETATM   12  C   UNL     1      10.155  12.414  22.816  0.00  0.00    -0.039 C 
HETATM   13  C   UNL     1      10.621  12.544  24.137  0.00  0.00     0.021 C 
HETATM   14  C   UNL     1      11.266  13.711  24.589  0.00  0.00    -0.022 C 
HETATM   15  C   UNL     1      11.344  14.785  23.683  0.00  0.00     0.012 C 
HETATM   16  C   UNL     1      10.773  14.714  22.409  0.00  0.00     0.001 C 
HETATM   17  C   UNL     1      10.179  13.532  21.976  0.00  0.00     0.009 C 
BRANCH  14  18
HETATM   18  C   UNL     1      11.902  13.781  25.921  0.00  0.00     0.009 A 
HETATM   19  C   UNL     1      13.050  13.081  26.265  0.00  0.00     0.131 A 
HETATM   20  N   UNL     1      13.683  13.159  27.459  0.00  0.00    -0.253 NA
HETATM   21  C   UNL     1      13.136  13.992  28.351  0.00  0.00     0.232 A 
HETATM   22  N   UNL     1      12.031  14.724  28.162  0.00  0.00    -0.253 NA
HETATM   23  C   UNL     1      11.443  14.591  26.950  0.00  0.00     0.131 A 
ENDBRANCH  14  18
ENDBRANCH  11  12
ENDBRANCH   9  11
ENDBRANCH   1   7
BRANCH   2  24
HETATM   24  O   UNL     1       6.510  10.855  18.446  0.00  0.00    -0.360 OA
HETATM   25  H   UNL     1       6.064  10.062  18.072  0.00  0.00     0.217 HD
ENDBRANCH   2  24
BRANCH   5  26
HETATM   26  C   UNL     1       3.227  13.108  22.419  0.00  0.00     0.172 A 
HETATM   27  N   UNL     1       3.695  13.807  23.507  0.00  0.00    -0.244 N 
HETATM   28  C   UNL     1       2.557  14.157  24.218  0.00  0.00     0.349 A 
HETATM   29  O   UNL     1       2.426  14.738  25.284  0.00  0.00    -0.245 OA
HETATM   30  N   UNL     1       1.488  13.721  23.460  0.00  0.00    -0.226 N 
HETATM   31  N   UNL     1       1.915  13.064  22.353  0.00  0.00    -0.151 NA
HETATM   32  H   UNL     1       0.518  13.780  23.738  0.00  0.00     0.194 HD
BRANCH  27  33
HETATM   33  C   UNL     1       4.973  14.241  23.959  0.00  0.00     0.051 C 
HETATM   34  C   UNL     1       5.792  13.534  24.859  0.00  0.00    -0.035 C 
HETATM   35  C   UNL     1       5.369  12.355  25.681  0.00  0.00     0.050 C 
HETATM   36  C   UNL     1       7.161  13.883  24.944  0.00  0.00     0.009 C 
HETATM   37  C   UNL     1       7.689  14.979  24.262  0.00  0.00     0.001 C 
HETATM   38  C   UNL     1       6.854  15.758  23.481  0.00  0.00     0.002 C 
HETATM   39  C   UNL     1       5.524  15.371  23.310  0.00  0.00     0.031 C 
ENDBRANCH  27  33
ENDBRANCH   5  26
BRANCH   4  40
HETATM   40  O   UNL     1       2.278  12.394  19.755  0.00  0.00    -0.360 OA
HETATM   41  H   UNL     1       1.634  11.736  20.069  0.00  0.00     0.217 HD
ENDBRANCH   4  40
TORSDOF 8
ENDMDL
MODEL 8
REMARK VINA RESULT:    -8.657      3.027      6.095
REMARK INTER + INTRA:         -14.238
REMARK INTER:                 -12.196
REMARK INTRA:                  -2.042
REMARK UNBOUND:                -2.038
REMARK  8 active torsions:
REMARK  status: ('A' for Active; 'I' for Inactive)
REMARK       I    between atoms: C_2  and  N_3 
REMARK    1  A    between atoms: C_2  and  C_18 
REMARK    2  A    between atoms: N_3  and  C_4 
REMARK    3  A    between atoms: C_4  and  C_5 
REMARK    4  A    between atoms: C_7  and  C_8 
REMARK    5  A    between atoms: C_19  and  O_20 
REMARK    6  A    between atoms: C_22  and  O_23 
REMARK    7  A    between atoms: C_24  and  C_25 
REMARK    8  A    between atoms: N_26  and  C_27 
ROOT
HETATM    1  C   UNL     1       5.596  13.628  22.702  0.00  0.00     0.066 A 
HETATM    2  C   UNL     1       5.597  15.010  22.968  0.00  0.00     0.084 A 
HETATM    3  C   UNL     1       6.767  15.770  22.930  0.00  0.00     0.075 A 
HETATM    4  C   UNL     1       7.974  15.172  22.575  0.00  0.00     0.082 A 
HETATM    5  C   UNL     1       8.037  13.797  22.350  0.00  0.00     0.046 A 
HETATM    6  C   UNL     1       6.842  13.027  22.471  0.00  0.00     0.038 A 
ENDROOT
BRANCH   1   7
HETATM    7  C   UNL     1       4.265  12.926  22.703  0.00  0.00     0.256 C 
HETATM    8  O   UNL     1       3.848  12.616  21.578  0.00  0.00    -0.267 OA
HETATM    9  N   UNL     1       3.569  12.525  23.851  0.00  0.00    -0.348 N 
HETATM   10  C   UNL     1       3.981  12.698  25.238  0.00  0.00     0.153 C 
BRANCH   9  11
HETATM   11  C   UNL     1       2.429  11.587  23.664  0.00  0.00     0.164 C 
BRANCH  11  12
HETATM   12  C   UNL     1       2.844  10.164  24.008  0.00  0.00    -0.039 C 
HETATM   13  C   UNL     1       4.143   9.720  23.698  0.00  0.00     0.021 C 
HETATM   14  C   UNL     1       4.694   8.562  24.278  0.00  0.00    -0.022 C 
HETATM   15  C   UNL     1       3.852   7.810  25.118  0.00  0.00     0.012 C 
HETATM   16  C   UNL     1       2.519   8.172  25.335  0.00  0.00     0.001 C 
HETATM   17  C   UNL     1       2.015   9.344  24.780  0.00  0.00     0.009 C 
BRANCH  14  18
HETATM   18  C   UNL     1       6.111   8.194  24.082  0.00  0.00     0.009 A 
HETATM   19  C   UNL     1       6.574   6.884  24.074  0.00  0.00     0.131 A 
HETATM   20  N   UNL     1       7.855   6.510  23.850  0.00  0.00    -0.253 NA
HETATM   21  C   UNL     1       8.715   7.507  23.614  0.00  0.00     0.232 A 
HETATM   22  N   UNL     1       8.416   8.811  23.597  0.00  0.00    -0.253 NA
HETATM   23  C   UNL     1       7.119   9.116  23.837  0.00  0.00     0.131 A 
ENDBRANCH  14  18
ENDBRANCH  11  12
ENDBRANCH   9  11
ENDBRANCH   1   7
BRANCH   2  24
HETATM   24  O   UNL     1       4.457  15.723  23.254  0.00  0.00    -0.360 OA
HETATM   25  H   UNL     1       4.480  15.947  24.212  0.00  0.00     0.217 HD
ENDBRANCH   2  24
BRANCH   5  26
HETATM   26  C   UNL     1       9.205  13.142  21.695  0.00  0.00     0.172 A 
HETATM   27  N   UNL     1      10.492  13.008  22.161  0.00  0.00    -0.244 N 
HETATM   28  C   UNL     1      11.222  12.575  21.064  0.00  0.00     0.349 A 
HETATM   29  O   UNL     1      12.416  12.357  20.933  0.00  0.00    -0.245 OA
HETATM   30  N   UNL     1      10.306  12.396  20.047  0.00  0.00    -0.226 N 
HETATM   31  N   UNL     1       9.062  12.759  20.446  0.00  0.00    -0.151 NA
HETATM   32  H   UNL     1      10.537  12.136  19.098  0.00  0.00     0.194 HD
BRANCH  27  33
HETATM   33  C   UNL     1      11.132  13.154  23.424  0.00  0.00     0.051 C 
HETATM   34  C   UNL     1      11.921  14.255  23.804  0.00  0.00    -0.035 C 
HETATM   35  C   UNL     1      12.429  15.324  22.885  0.00  0.00     0.050 C 
HETATM   36  C   UNL     1      12.194  14.449  25.180  0.00  0.00     0.009 C 
HETATM   37  C   UNL     1      11.814  13.519  26.148  0.00  0.00     0.001 C 
HETATM   38  C   UNL     1      11.155  12.367  25.758  0.00  0.00     0.002 C 
HETATM   39  C   UNL     1      10.794  12.207  24.419  0.00  0.00     0.031 C 
ENDBRANCH  27  33
ENDBRANCH   5  26
BRANCH   4  40
HETATM   40  O   UNL     1       9.058  15.973  22.383  0.00  0.00    -0.360 OA
HETATM   41  H   UNL     1       8.777  16.867  22.122  0.00  0.00     0.217 HD
ENDBRANCH   4  40
TORSDOF 8
ENDMDL
MODEL 9
REMARK VINA RESULT:    -8.561      4.396      7.316
REMARK INTER + INTRA:         -14.102
REMARK INTER:                 -12.064
REMARK INTRA:                  -2.038
REMARK UNBOUND:                -2.038
REMARK  8 active torsions:
REMARK  status: ('A' for Active; 'I' for Inactive)
REMARK       I    between atoms: C_2  and  N_3 
REMARK    1  A    between atoms: C_2  and  C_18 
REMARK    2  A    between atoms: N_3  and  C_4 
REMARK    3  A    between atoms: C_4  and  C_5 
REMARK    4  A    between atoms: C_7  and  C_8 
REMARK    5  A    between atoms: C_19  and  O_20 
REMARK    6  A    between atoms: C_22  and  O_23 
REMARK    7  A    between atoms: C_24  and  C_25 
REMARK    8  A    between atoms: N_26  and  C_27 
ROOT
HETATM    1  C   UNL     1       6.074   9.446  23.162  0.00  0.00     0.066 A 
HETATM    2  C   UNL     1       6.576   8.169  22.849  0.00  0.00     0.084 A 
HETATM    3  C   UNL     1       6.010   7.004  23.368  0.00  0.00     0.075 A 
HETATM    4  C   UNL     1       4.884   7.081  24.185  0.00  0.00     0.082 A 
HETATM    5  C   UNL     1       4.376   8.323  24.565  0.00  0.00     0.046 A 
HETATM    6  C   UNL     1       5.020   9.503  24.085  0.00  0.00     0.038 A 
ENDROOT
BRANCH   1   7
HETATM    7  C   UNL     1       6.721  10.626  22.488  0.00  0.00     0.256 C 
HETATM    8  O   UNL     1       6.557  10.668  21.261  0.00  0.00    -0.267 OA
HETATM    9  N   UNL     1       7.361  11.679  23.154  0.00  0.00    -0.348 N 
HETATM   10  C   UNL     1       7.524  11.845  24.593  0.00  0.00     0.153 C 
BRANCH   9  11
HETATM   11  C   UNL     1       7.673  12.899  22.360  0.00  0.00     0.164 C 
BRANCH  11  12
HETATM   12  C   UNL     1       6.627  13.977  22.598  0.00  0.00    -0.039 C 
HETATM   13  C   UNL     1       5.260  13.660  22.491  0.00  0.00     0.021 C 
HETATM   14  C   UNL     1       4.258  14.496  23.019  0.00  0.00    -0.022 C 
HETATM   15  C   UNL     1       4.678  15.715  23.582  0.00  0.00     0.012 C 
HETATM   16  C   UNL     1       6.023  16.099  23.582  0.00  0.00     0.001 C 
HETATM   17  C   UNL     1       6.995  15.233  23.090  0.00  0.00     0.009 C 
BRANCH  14  18
HETATM   18  C   UNL     1       2.839  14.082  23.054  0.00  0.00     0.009 A 
HETATM   19  C   UNL     1       2.299  13.111  22.221  0.00  0.00     0.131 A 
HETATM   20  N   UNL     1       1.018  12.676  22.259  0.00  0.00    -0.253 NA
HETATM   21  C   UNL     1       0.242  13.242  23.190  0.00  0.00     0.232 A 
HETATM   22  N   UNL     1       0.622  14.191  24.054  0.00  0.00    -0.253 NA
HETATM   23  C   UNL     1       1.913  14.586  23.955  0.00  0.00     0.131 A 
ENDBRANCH  14  18
ENDBRANCH  11  12
ENDBRANCH   9  11
ENDBRANCH   1   7
BRANCH   2  24
HETATM   24  O   UNL     1       7.634   7.964  21.995  0.00  0.00    -0.360 OA
HETATM   25  H   UNL     1       8.092   8.827  21.879  0.00  0.00     0.217 HD
ENDBRANCH   2  24
BRANCH   5  26
HETATM   26  C   UNL     1       3.030   8.486  25.185  0.00  0.00     0.172 A 
HETATM   27  N   UNL     1       2.560   7.976  26.372  0.00  0.00    -0.244 N 
HETATM   28  C   UNL     1       1.191   8.196  26.334  0.00  0.00     0.349 A 
HETATM   29  O   UNL     1       0.308   7.885  27.117  0.00  0.00    -0.245 OA
HETATM   30  N   UNL     1       0.953   8.900  25.170  0.00  0.00    -0.226 N 
HETATM   31  N   UNL     1       2.098   9.065  24.461  0.00  0.00    -0.151 NA
HETATM   32  H   UNL     1       0.040   9.163  24.829  0.00  0.00     0.194 HD
BRANCH  27  33
HETATM   33  C   UNL     1       3.150   7.388  27.526  0.00  0.00     0.051 C 
HETATM   34  C   UNL     1       3.191   6.007  27.794  0.00  0.00    -0.035 C 
HETATM   35  C   UNL     1       2.418   4.952  27.063  0.00  0.00     0.050 C 
HETATM   36  C   UNL     1       4.104   5.534  28.768  0.00  0.00     0.009 C 
HETATM   37  C   UNL     1       4.865   6.401  29.552  0.00  0.00     0.001 C 
HETATM   38  C   UNL     1       4.725   7.767  29.381  0.00  0.00     0.002 C 
HETATM   39  C   UNL     1       3.903   8.247  28.361  0.00  0.00     0.031 C 
ENDBRANCH  27  33
ENDBRANCH   5  26
BRANCH   4  40
HETATM   40  O   UNL     1       4.259   5.922  24.532  0.00  0.00    -0.360 OA
HETATM   41  H   UNL     1       3.297   6.057  24.581  0.00  0.00     0.217 HD
ENDBRANCH   4  40
TORSDOF 8
ENDMDL
