MODEL 1
REMARK VINA RESULT:    -6.263      0.000      0.000
REMARK INTER + INTRA:          -9.214
REMARK INTER:                  -8.116
REMARK INTRA:                  -1.098
REMARK UNBOUND:                -1.121
REMARK  5 active torsions:
REMARK  status: ('A' for Active; 'I' for Inactive)
REMARK    1  A    between atoms: N8_1  and  C24_2 
REMARK    2  A    between atoms: N8_1  and  C7_8 
REMARK    3  A    between atoms: C2_13  and  N1_14 
REMARK    4  A    between atoms: N1_14  and  C17_15 
REMARK    5  A    between atoms: C14_16  and  C13_19 
ROOT
ATOM      1  C17 FTA A   1       6.053  13.559  11.962  1.00  0.00     0.142 C 
ATOM      2  C14 FTA A   1       4.963  13.621  11.172  1.00  0.00     0.158 C 
ATOM      3  C18 FTA A   1       3.763  14.282  11.638  1.00  0.00     0.069 C 
ATOM      4  N21 FTA A   1       2.850  14.794  12.166  1.00  0.00    -0.197 NA
ENDROOT
BRANCH   2   5
ATOM      5  C13 FTA A   1       5.011  13.023   9.818  1.00  0.00     0.197 A 
ATOM      6  N15 FTA A   1       5.266  13.701   8.628  1.00  0.00    -0.093 NA
ATOM      7  N19 FTA A   1       5.172  12.779   7.593  1.00  0.00    -0.231 N 
ATOM      8  N20 FTA A   1       4.858  11.534   8.120  1.00  0.00    -0.017 NA
ATOM      9  H15 FTA A   1       5.312  12.986   6.594  1.00  0.00     0.200 HD
ATOM     10  N16 FTA A   1       4.769  11.681   9.500  1.00  0.00    -0.090 NA
ENDBRANCH   2   5
BRANCH   1  11
ATOM     11  N1  FTA A   1       6.620  12.360  12.196  1.00  0.00    -0.389 N 
ATOM     12  H11 FTA A   1       6.148  11.731  12.862  1.00  0.00     0.159 HD
BRANCH  11  13
ATOM     13  C2  FTA A   1       7.821  11.894  11.592  1.00  0.00     0.028 A 
ATOM     14  C4  FTA A   1       8.863  12.754  11.257  1.00  0.00     0.031 A 
ATOM     15  C6  FTA A   1       9.912  12.274  10.461  1.00  0.00     0.031 A 
ATOM     16  C7  FTA A   1       9.945  10.963   9.993  1.00  0.00     0.032 A 
ATOM     17  C5  FTA A   1       8.914  10.114  10.356  1.00  0.00     0.031 A 
ATOM     18  C3  FTA A   1       7.858  10.575  11.133  1.00  0.00     0.031 A 
BRANCH  16  19
ATOM     19  N8  FTA A   1      10.878  10.515   9.023  1.00  0.00    -0.356 N 
ATOM     20  H1  FTA A   1      11.749  10.086   9.368  1.00  0.00     0.166 HD
BRANCH  19  21
ATOM     21  C24 FTA A   1      10.709  10.609   7.609  1.00  0.00     0.032 A 
ATOM     22  C26 FTA A   1      11.216   9.656   6.757  1.00  0.00     0.029 A 
ATOM     23  C28 FTA A   1      11.171   9.892   5.396  1.00  0.00     0.002 A 
ATOM     24  C30 FTA A   1      10.605  11.036   4.859  1.00  0.00     0.000 A 
ATOM     25  C29 FTA A   1      10.062  11.975   5.695  1.00  0.00     0.002 A 
ATOM     26  C27 FTA A   1      10.110  11.741   7.074  1.00  0.00     0.029 A 
ENDBRANCH  19  21
ENDBRANCH  16  19
ENDBRANCH  11  13
ENDBRANCH   1  11
TORSDOF 5
ENDMDL
MODEL 2
REMARK VINA RESULT:    -6.200      3.333      8.604
REMARK INTER + INTRA:          -9.133
REMARK INTER:                  -8.135
REMARK INTRA:                  -0.997
REMARK UNBOUND:                -1.121
REMARK  5 active torsions:
REMARK  status: ('A' for Active; 'I' for Inactive)
REMARK    1  A    between atoms: N8_1  and  C24_2 
REMARK    2  A    between atoms: N8_1  and  C7_8 
REMARK    3  A    between atoms: C2_13  and  N1_14 
REMARK    4  A    between atoms: N1_14  and  C17_15 
REMARK    5  A    between atoms: C14_16  and  C13_19 
ROOT
ATOM      1  C17 FTA A   1       6.479  13.791   8.812  1.00  0.00     0.142 C 
ATOM      2  C14 FTA A   1       6.053  12.539   8.553  1.00  0.00     0.158 C 
ATOM      3  C18 FTA A   1       4.986  12.316   7.601  1.00  0.00     0.069 C 
ATOM      4  N21 FTA A   1       4.081  12.292   6.856  1.00  0.00    -0.197 NA
ENDROOT
BRANCH   2   5
ATOM      5  C13 FTA A   1       6.696  11.394   9.238  1.00  0.00     0.197 A 
ATOM      6  N15 FTA A   1       8.010  11.345   9.701  1.00  0.00    -0.093 NA
ATOM      7  N19 FTA A   1       8.218  10.080  10.234  1.00  0.00    -0.231 N 
ATOM      8  N20 FTA A   1       7.054   9.336  10.109  1.00  0.00    -0.017 NA
ATOM      9  H15 FTA A   1       9.097   9.747  10.656  1.00  0.00     0.200 HD
ATOM     10  N16 FTA A   1       6.106  10.153   9.501  1.00  0.00    -0.090 NA
ENDBRANCH   2   5
BRANCH   1  11
ATOM     11  N1  FTA A   1       6.529  14.210  10.092  1.00  0.00    -0.389 N 
ATOM     12  H11 FTA A   1       7.444  14.185  10.565  1.00  0.00     0.159 HD
BRANCH  11  13
ATOM     13  C2  FTA A   1       5.416  14.684  10.838  1.00  0.00     0.028 A 
ATOM     14  C4  FTA A   1       4.479  13.821  11.402  1.00  0.00     0.031 A 
ATOM     15  C6  FTA A   1       3.292  14.352  11.922  1.00  0.00     0.031 A 
ATOM     16  C7  FTA A   1       3.015  15.717  11.892  1.00  0.00     0.032 A 
ATOM     17  C5  FTA A   1       3.967  16.564  11.351  1.00  0.00     0.031 A 
ATOM     18  C3  FTA A   1       5.145  16.055  10.818  1.00  0.00     0.031 A 
BRANCH  16  19
ATOM     19  N8  FTA A   1       1.743  16.252  12.217  1.00  0.00    -0.356 N 
ATOM     20  H1  FTA A   1       1.622  17.271  12.126  1.00  0.00     0.166 HD
BRANCH  19  21
ATOM     21  C24 FTA A   1       0.617  15.495  12.662  1.00  0.00     0.032 A 
ATOM     22  C26 FTA A   1      -0.464  15.265  11.844  1.00  0.00     0.029 A 
ATOM     23  C28 FTA A   1      -1.591  14.677  12.386  1.00  0.00     0.002 A 
ATOM     24  C30 FTA A   1      -1.659  14.283  13.712  1.00  0.00     0.000 A 
ATOM     25  C29 FTA A   1      -0.575  14.472  14.527  1.00  0.00     0.002 A 
ATOM     26  C27 FTA A   1       0.567  15.071  13.982  1.00  0.00     0.029 A 
ENDBRANCH  19  21
ENDBRANCH  16  19
ENDBRANCH  11  13
ENDBRANCH   1  11
TORSDOF 5
ENDMDL
MODEL 3
REMARK VINA RESULT:    -6.048      3.185      8.708
REMARK INTER + INTRA:          -8.937
REMARK INTER:                  -7.888
REMARK INTRA:                  -1.048
REMARK UNBOUND:                -1.121
REMARK  5 active torsions:
REMARK  status: ('A' for Active; 'I' for Inactive)
REMARK    1  A    between atoms: N8_1  and  C24_2 
REMARK    2  A    between atoms: N8_1  and  C7_8 
REMARK    3  A    between atoms: C2_13  and  N1_14 
REMARK    4  A    between atoms: N1_14  and  C17_15 
REMARK    5  A    between atoms: C14_16  and  C13_19 
ROOT
ATOM      1  C17 FTA A   1       7.675  13.965  11.152  1.00  0.00     0.142 C 
ATOM      2  C14 FTA A   1       8.492  12.942  10.832  1.00  0.00     0.158 C 
ATOM      3  C18 FTA A   1       9.925  13.141  10.792  1.00  0.00     0.069 C 
ATOM      4  N21 FTA A   1      11.052  13.461  10.743  1.00  0.00    -0.197 NA
ENDROOT
BRANCH   2   5
ATOM      5  C13 FTA A   1       7.912  11.612  10.537  1.00  0.00     0.197 A 
ATOM      6  N15 FTA A   1       6.791  11.360   9.748  1.00  0.00    -0.093 NA
ATOM      7  N19 FTA A   1       6.564   9.990   9.771  1.00  0.00    -0.231 N 
ATOM      8  N20 FTA A   1       7.525   9.382  10.565  1.00  0.00    -0.017 NA
ATOM      9  H15 FTA A   1       5.802   9.503   9.277  1.00  0.00     0.200 HD
ATOM     10  N16 FTA A   1       8.369  10.385  11.032  1.00  0.00    -0.090 NA
ENDBRANCH   2   5
BRANCH   1  11
ATOM     11  N1  FTA A   1       6.657  14.270  10.324  1.00  0.00    -0.389 N 
ATOM     12  H11 FTA A   1       6.813  14.145   9.313  1.00  0.00     0.159 HD
BRANCH  11  13
ATOM     13  C2  FTA A   1       5.385  14.752  10.738  1.00  0.00     0.028 A 
ATOM     14  C4  FTA A   1       5.054  16.104  10.693  1.00  0.00     0.031 A 
ATOM     15  C6  FTA A   1       3.882  16.538  11.326  1.00  0.00     0.031 A 
ATOM     16  C7  FTA A   1       3.037  15.661  12.001  1.00  0.00     0.032 A 
ATOM     17  C5  FTA A   1       3.367  14.317  12.015  1.00  0.00     0.031 A 
ATOM     18  C3  FTA A   1       4.532  13.869  11.405  1.00  0.00     0.031 A 
BRANCH  16  19
ATOM     19  N8  FTA A   1       1.966  16.101  12.820  1.00  0.00    -0.356 N 
ATOM     20  H1  FTA A   1       2.104  16.973  13.351  1.00  0.00     0.166 HD
BRANCH  19  21
ATOM     21  C24 FTA A   1       0.712  15.435  12.970  1.00  0.00     0.032 A 
ATOM     22  C26 FTA A   1      -0.205  15.385  11.946  1.00  0.00     0.029 A 
ATOM     23  C28 FTA A   1      -1.464  14.879  12.208  1.00  0.00     0.002 A 
ATOM     24  C30 FTA A   1      -1.824  14.392  13.452  1.00  0.00     0.000 A 
ATOM     25  C29 FTA A   1      -0.908  14.401  14.470  1.00  0.00     0.002 A 
ATOM     26  C27 FTA A   1       0.366  14.916  14.209  1.00  0.00     0.029 A 
ENDBRANCH  19  21
ENDBRANCH  16  19
ENDBRANCH  11  13
ENDBRANCH   1  11
TORSDOF 5
ENDMDL
MODEL 4
REMARK VINA RESULT:    -6.026      3.234      8.672
REMARK INTER + INTRA:          -8.908
REMARK INTER:                  -7.972
REMARK INTRA:                  -0.936
REMARK UNBOUND:                -1.121
REMARK  5 active torsions:
REMARK  status: ('A' for Active; 'I' for Inactive)
REMARK    1  A    between atoms: N8_1  and  C24_2 
REMARK    2  A    between atoms: N8_1  and  C7_8 
REMARK    3  A    between atoms: C2_13  and  N1_14 
REMARK    4  A    between atoms: N1_14  and  C17_15 
REMARK    5  A    between atoms: C14_16  and  C13_19 
ROOT
ATOM      1  C17 FTA A   1       7.123  13.417   9.996  1.00  0.00     0.142 C 
ATOM      2  C14 FTA A   1       6.784  12.126   9.809  1.00  0.00     0.158 C 
ATOM      3  C18 FTA A   1       5.905  11.755   8.720  1.00  0.00     0.069 C 
ATOM      4  N21 FTA A   1       5.145  11.611   7.839  1.00  0.00    -0.197 NA
ENDROOT
BRANCH   2   5
ATOM      5  C13 FTA A   1       7.329  11.090  10.716  1.00  0.00     0.197 A 
ATOM      6  N15 FTA A   1       7.427   9.727  10.444  1.00  0.00    -0.093 NA
ATOM      7  N19 FTA A   1       7.949   9.112  11.575  1.00  0.00    -0.231 N 
ATOM      8  N20 FTA A   1       8.176  10.071  12.551  1.00  0.00    -0.017 NA
ATOM      9  H15 FTA A   1       8.137   8.104  11.673  1.00  0.00     0.200 HD
ATOM     10  N16 FTA A   1       7.803  11.300  12.016  1.00  0.00    -0.090 NA
ENDBRANCH   2   5
BRANCH   1  11
ATOM     11  N1  FTA A   1       6.937  13.969  11.210  1.00  0.00    -0.389 N 
ATOM     12  H11 FTA A   1       7.763  14.072  11.818  1.00  0.00     0.159 HD
BRANCH  11  13
ATOM     13  C2  FTA A   1       5.689  14.423  11.717  1.00  0.00     0.028 A 
ATOM     14  C4  FTA A   1       4.530  13.656  11.627  1.00  0.00     0.031 A 
ATOM     15  C6  FTA A   1       3.297  14.249  11.933  1.00  0.00     0.031 A 
ATOM     16  C7  FTA A   1       3.193  15.581  12.323  1.00  0.00     0.032 A 
ATOM     17  C5  FTA A   1       4.357  16.322  12.432  1.00  0.00     0.031 A 
ATOM     18  C3  FTA A   1       5.587  15.757  12.120  1.00  0.00     0.031 A 
BRANCH  16  19
ATOM     19  N8  FTA A   1       1.951  16.256  12.434  1.00  0.00    -0.356 N 
ATOM     20  H1  FTA A   1       1.917  17.238  12.123  1.00  0.00     0.166 HD
BRANCH  19  21
ATOM     21  C24 FTA A   1       0.743  15.687  12.940  1.00  0.00     0.032 A 
ATOM     22  C26 FTA A   1       0.621  15.310  14.257  1.00  0.00     0.029 A 
ATOM     23  C28 FTA A   1      -0.506  14.609  14.643  1.00  0.00     0.002 A 
ATOM     24  C30 FTA A   1      -1.528  14.302  13.761  1.00  0.00     0.000 A 
ATOM     25  C29 FTA A   1      -1.436  14.705  12.455  1.00  0.00     0.002 A 
ATOM     26  C27 FTA A   1      -0.294  15.412  12.061  1.00  0.00     0.029 A 
ENDBRANCH  19  21
ENDBRANCH  16  19
ENDBRANCH  11  13
ENDBRANCH   1  11
TORSDOF 5
ENDMDL
MODEL 5
REMARK VINA RESULT:    -5.994      3.302      8.788
REMARK INTER + INTRA:          -8.866
REMARK INTER:                  -7.970
REMARK INTRA:                  -0.896
REMARK UNBOUND:                -1.121
REMARK  5 active torsions:
REMARK  status: ('A' for Active; 'I' for Inactive)
REMARK    1  A    between atoms: N8_1  and  C24_2 
REMARK    2  A    between atoms: N8_1  and  C7_8 
REMARK    3  A    between atoms: C2_13  and  N1_14 
REMARK    4  A    between atoms: N1_14  and  C17_15 
REMARK    5  A    between atoms: C14_16  and  C13_19 
ROOT
ATOM      1  C17 FTA A   1       6.857  11.974  11.552  1.00  0.00     0.142 C 
ATOM      2  C14 FTA A   1       8.023  11.297  11.566  1.00  0.00     0.158 C 
ATOM      3  C18 FTA A   1       8.112  10.015  12.232  1.00  0.00     0.069 C 
ATOM      4  N21 FTA A   1       8.052   9.024  12.855  1.00  0.00    -0.197 NA
ENDROOT
BRANCH   2   5
ATOM      5  C13 FTA A   1       9.205  11.869  10.881  1.00  0.00     0.197 A 
ATOM      6  N15 FTA A   1      10.003  11.222   9.940  1.00  0.00    -0.093 NA
ATOM      7  N19 FTA A   1      11.025  12.094   9.588  1.00  0.00    -0.231 N 
ATOM      8  N20 FTA A   1      10.879  13.276  10.299  1.00  0.00    -0.017 NA
ATOM      9  H15 FTA A   1      11.772  11.895   8.908  1.00  0.00     0.200 HD
ATOM     10  N16 FTA A   1       9.745  13.143  11.093  1.00  0.00    -0.090 NA
ENDBRANCH   2   5
BRANCH   1  11
ATOM     11  N1  FTA A   1       6.842  13.254  11.969  1.00  0.00    -0.389 N 
ATOM     12  H11 FTA A   1       7.729  13.654  12.309  1.00  0.00     0.159 HD
BRANCH  11  13
ATOM     13  C2  FTA A   1       5.697  14.096  11.977  1.00  0.00     0.028 A 
ATOM     14  C4  FTA A   1       5.749  15.415  12.420  1.00  0.00     0.031 A 
ATOM     15  C6  FTA A   1       4.550  16.113  12.620  1.00  0.00     0.031 A 
ATOM     16  C7  FTA A   1       3.307  15.530  12.391  1.00  0.00     0.032 A 
ATOM     17  C5  FTA A   1       3.273  14.227  11.927  1.00  0.00     0.031 A 
ATOM     18  C3  FTA A   1       4.449  13.513  11.736  1.00  0.00     0.031 A 
BRANCH  16  19
ATOM     19  N8  FTA A   1       2.087  16.139  12.782  1.00  0.00    -0.356 N 
ATOM     20  H1  FTA A   1       2.100  17.155  12.950  1.00  0.00     0.166 HD
BRANCH  19  21
ATOM     21  C24 FTA A   1       0.844  15.460  12.962  1.00  0.00     0.032 A 
ATOM     22  C26 FTA A   1      -0.085  15.379  11.952  1.00  0.00     0.029 A 
ATOM     23  C28 FTA A   1      -1.334  14.861  12.242  1.00  0.00     0.002 A 
ATOM     24  C30 FTA A   1      -1.671  14.394  13.500  1.00  0.00     0.000 A 
ATOM     25  C29 FTA A   1      -0.741  14.434  14.505  1.00  0.00     0.002 A 
ATOM     26  C27 FTA A   1       0.523  14.961  14.216  1.00  0.00     0.029 A 
ENDBRANCH  19  21
ENDBRANCH  16  19
ENDBRANCH  11  13
ENDBRANCH   1  11
TORSDOF 5
ENDMDL
MODEL 6
REMARK VINA RESULT:    -5.957      3.208      8.616
REMARK INTER + INTRA:          -8.819
REMARK INTER:                  -7.941
REMARK INTRA:                  -0.878
REMARK UNBOUND:                -1.121
REMARK  5 active torsions:
REMARK  status: ('A' for Active; 'I' for Inactive)
REMARK    1  A    between atoms: N8_1  and  C24_2 
REMARK    2  A    between atoms: N8_1  and  C7_8 
REMARK    3  A    between atoms: C2_13  and  N1_14 
REMARK    4  A    between atoms: N1_14  and  C17_15 
REMARK    5  A    between atoms: C14_16  and  C13_19 
ROOT
ATOM      1  C17 FTA A   1       6.314  12.256  11.689  1.00  0.00     0.142 C 
ATOM      2  C14 FTA A   1       6.657  11.517  10.616  1.00  0.00     0.158 C 
ATOM      3  C18 FTA A   1       7.640  10.463  10.742  1.00  0.00     0.069 C 
ATOM      4  N21 FTA A   1       8.487   9.687  10.979  1.00  0.00    -0.197 NA
ENDROOT
BRANCH   2   5
ATOM      5  C13 FTA A   1       6.009  11.783   9.311  1.00  0.00     0.197 A 
ATOM      6  N15 FTA A   1       6.660  12.004   8.099  1.00  0.00    -0.093 NA
ATOM      7  N19 FTA A   1       5.686  12.258   7.142  1.00  0.00    -0.231 N 
ATOM      8  N20 FTA A   1       4.435  12.202   7.739  1.00  0.00    -0.017 NA
ATOM      9  H15 FTA A   1       5.864  12.457   6.147  1.00  0.00     0.200 HD
ATOM     10  N16 FTA A   1       4.632  11.897   9.082  1.00  0.00    -0.090 NA
ENDBRANCH   2   5
BRANCH   1  11
ATOM     11  N1  FTA A   1       6.377  13.599  11.603  1.00  0.00    -0.389 N 
ATOM     12  H11 FTA A   1       7.280  14.016  11.333  1.00  0.00     0.159 HD
BRANCH  11  13
ATOM     13  C2  FTA A   1       5.294  14.484  11.857  1.00  0.00     0.028 A 
ATOM     14  C4  FTA A   1       5.464  15.688  12.536  1.00  0.00     0.031 A 
ATOM     15  C6  FTA A   1       4.331  16.399  12.954  1.00  0.00     0.031 A 
ATOM     16  C7  FTA A   1       3.039  15.939  12.714  1.00  0.00     0.032 A 
ATOM     17  C5  FTA A   1       2.886  14.754  12.016  1.00  0.00     0.031 A 
ATOM     18  C3  FTA A   1       3.997  14.027  11.605  1.00  0.00     0.031 A 
BRANCH  16  19
ATOM     19  N8  FTA A   1       1.891  16.526  13.304  1.00  0.00    -0.356 N 
ATOM     20  H1  FTA A   1       1.981  17.492  13.653  1.00  0.00     0.166 HD
BRANCH  19  21
ATOM     21  C24 FTA A   1       0.621  15.891  13.454  1.00  0.00     0.032 A 
ATOM     22  C26 FTA A   1       0.353  15.058  14.515  1.00  0.00     0.029 A 
ATOM     23  C28 FTA A   1      -0.828  14.341  14.512  1.00  0.00     0.002 A 
ATOM     24  C30 FTA A   1      -1.763  14.454  13.497  1.00  0.00     0.000 A 
ATOM     25  C29 FTA A   1      -1.525  15.309  12.454  1.00  0.00     0.002 A 
ATOM     26  C27 FTA A   1      -0.328  16.034  12.453  1.00  0.00     0.029 A 
ENDBRANCH  19  21
ENDBRANCH  16  19
ENDBRANCH  11  13
ENDBRANCH   1  11
TORSDOF 5
ENDMDL
MODEL 7
REMARK VINA RESULT:    -5.929      2.927      5.363
REMARK INTER + INTRA:          -8.783
REMARK INTER:                  -7.835
REMARK INTRA:                  -0.947
REMARK UNBOUND:                -1.121
REMARK  5 active torsions:
REMARK  status: ('A' for Active; 'I' for Inactive)
REMARK    1  A    between atoms: N8_1  and  C24_2 
REMARK    2  A    between atoms: N8_1  and  C7_8 
REMARK    3  A    between atoms: C2_13  and  N1_14 
REMARK    4  A    between atoms: N1_14  and  C17_15 
REMARK    5  A    between atoms: C14_16  and  C13_19 
ROOT
ATOM      1  C17 FTA A   1       2.508  15.711  12.203  1.00  0.00     0.142 C 
ATOM      2  C14 FTA A   1       1.720  16.004  13.257  1.00  0.00     0.158 C 
ATOM      3  C18 FTA A   1       2.142  16.989  14.230  1.00  0.00     0.069 C 
ATOM      4  N21 FTA A   1       2.635  17.759  14.963  1.00  0.00    -0.197 NA
ENDROOT
BRANCH   2   5
ATOM      5  C13 FTA A   1       0.413  15.322  13.400  1.00  0.00     0.197 A 
ATOM      6  N15 FTA A   1      -0.189  14.942  14.598  1.00  0.00    -0.093 NA
ATOM      7  N19 FTA A   1      -1.376  14.295  14.282  1.00  0.00    -0.231 N 
ATOM      8  N20 FTA A   1      -1.524  14.263  12.903  1.00  0.00    -0.017 NA
ATOM      9  H15 FTA A   1      -2.041  13.900  14.963  1.00  0.00     0.200 HD
ATOM     10  N16 FTA A   1      -0.421  14.909  12.355  1.00  0.00    -0.090 NA
ENDBRANCH   2   5
BRANCH   1  11
ATOM     11  N1  FTA A   1       2.826  14.424  11.966  1.00  0.00    -0.389 N 
ATOM     12  H11 FTA A   1       2.055  13.741  11.937  1.00  0.00     0.159 HD
BRANCH  11  13
ATOM     13  C2  FTA A   1       4.144  13.937  11.752  1.00  0.00     0.028 A 
ATOM     14  C4  FTA A   1       4.389  12.695  11.170  1.00  0.00     0.031 A 
ATOM     15  C6  FTA A   1       5.691  12.177  11.198  1.00  0.00     0.031 A 
ATOM     16  C7  FTA A   1       6.748  12.862  11.791  1.00  0.00     0.032 A 
ATOM     17  C5  FTA A   1       6.493  14.105  12.343  1.00  0.00     0.031 A 
ATOM     18  C3  FTA A   1       5.207  14.630  12.337  1.00  0.00     0.031 A 
BRANCH  16  19
ATOM     19  N8  FTA A   1       8.018  12.272  12.017  1.00  0.00    -0.356 N 
ATOM     20  H1  FTA A   1       8.204  11.897  12.958  1.00  0.00     0.166 HD
BRANCH  19  21
ATOM     21  C24 FTA A   1       9.059  12.154  11.047  1.00  0.00     0.032 A 
ATOM     22  C26 FTA A   1       9.189  11.033  10.262  1.00  0.00     0.029 A 
ATOM     23  C28 FTA A   1      10.314  10.908   9.468  1.00  0.00     0.002 A 
ATOM     24  C30 FTA A   1      11.295  11.882   9.411  1.00  0.00     0.000 A 
ATOM     25  C29 FTA A   1      11.158  13.021  10.159  1.00  0.00     0.002 A 
ATOM     26  C27 FTA A   1      10.023  13.149  10.967  1.00  0.00     0.029 A 
ENDBRANCH  19  21
ENDBRANCH  16  19
ENDBRANCH  11  13
ENDBRANCH   1  11
TORSDOF 5
ENDMDL
MODEL 8
REMARK VINA RESULT:    -5.828      1.391      2.563
REMARK INTER + INTRA:          -8.652
REMARK INTER:                  -7.262
REMARK INTRA:                  -1.390
REMARK UNBOUND:                -1.121
REMARK  5 active torsions:
REMARK  status: ('A' for Active; 'I' for Inactive)
REMARK    1  A    between atoms: N8_1  and  C24_2 
REMARK    2  A    between atoms: N8_1  and  C7_8 
REMARK    3  A    between atoms: C2_13  and  N1_14 
REMARK    4  A    between atoms: N1_14  and  C17_15 
REMARK    5  A    between atoms: C14_16  and  C13_19 
ROOT
ATOM      1  C17 FTA A   1       5.252  12.321  11.241  1.00  0.00     0.142 C 
ATOM      2  C14 FTA A   1       5.171  13.097  10.141  1.00  0.00     0.158 C 
ATOM      3  C18 FTA A   1       4.831  12.512   8.862  1.00  0.00     0.069 C 
ATOM      4  N21 FTA A   1       4.605  11.897   7.890  1.00  0.00    -0.197 NA
ENDROOT
BRANCH   2   5
ATOM      5  C13 FTA A   1       5.418  14.552  10.258  1.00  0.00     0.197 A 
ATOM      6  N15 FTA A   1       5.567  15.448   9.201  1.00  0.00    -0.093 NA
ATOM      7  N19 FTA A   1       5.828  16.698   9.747  1.00  0.00    -0.231 N 
ATOM      8  N20 FTA A   1       5.847  16.596  11.130  1.00  0.00    -0.017 NA
ATOM      9  H15 FTA A   1       5.983  17.564   9.210  1.00  0.00     0.200 HD
ATOM     10  N16 FTA A   1       5.582  15.268  11.449  1.00  0.00    -0.090 NA
ENDBRANCH   2   5
BRANCH   1  11
ATOM     11  N1  FTA A   1       6.371  12.366  11.989  1.00  0.00    -0.389 N 
ATOM     12  H11 FTA A   1       6.273  12.646  12.975  1.00  0.00     0.159 HD
BRANCH  11  13
ATOM     13  C2  FTA A   1       7.677  12.055  11.521  1.00  0.00     0.028 A 
ATOM     14  C4  FTA A   1       8.655  13.032  11.350  1.00  0.00     0.031 A 
ATOM     15  C6  FTA A   1       9.836  12.700  10.673  1.00  0.00     0.031 A 
ATOM     16  C7  FTA A   1      10.064  11.424  10.163  1.00  0.00     0.032 A 
ATOM     17  C5  FTA A   1       9.093  10.458  10.364  1.00  0.00     0.031 A 
ATOM     18  C3  FTA A   1       7.910  10.771  11.021  1.00  0.00     0.031 A 
BRANCH  16  19
ATOM     19  N8  FTA A   1      11.148  11.122   9.300  1.00  0.00    -0.356 N 
ATOM     20  H1  FTA A   1      12.081  11.033   9.727  1.00  0.00     0.166 HD
BRANCH  19  21
ATOM     21  C24 FTA A   1      11.052  10.931   7.888  1.00  0.00     0.032 A 
ATOM     22  C26 FTA A   1      10.486  11.879   7.070  1.00  0.00     0.029 A 
ATOM     23  C28 FTA A   1      10.267  11.563   5.743  1.00  0.00     0.002 A 
ATOM     24  C30 FTA A   1      10.624  10.339   5.202  1.00  0.00     0.000 A 
ATOM     25  C29 FTA A   1      11.224   9.400   5.998  1.00  0.00     0.002 A 
ATOM     26  C27 FTA A   1      11.443   9.716   7.343  1.00  0.00     0.029 A 
ENDBRANCH  19  21
ENDBRANCH  16  19
ENDBRANCH  11  13
ENDBRANCH   1  11
TORSDOF 5
ENDMDL
MODEL 9
REMARK VINA RESULT:    -5.812      3.757      7.861
REMARK INTER + INTRA:          -8.631
REMARK INTER:                  -7.511
REMARK INTRA:                  -1.121
REMARK UNBOUND:                -1.121
REMARK  5 active torsions:
REMARK  status: ('A' for Active; 'I' for Inactive)
REMARK    1  A    between atoms: N8_1  and  C24_2 
REMARK    2  A    between atoms: N8_1  and  C7_8 
REMARK    3  A    between atoms: C2_13  and  N1_14 
REMARK    4  A    between atoms: N1_14  and  C17_15 
REMARK    5  A    between atoms: C14_16  and  C13_19 
ROOT
ATOM      1  C17 FTA A   1       7.204  13.620   8.632  1.00  0.00     0.142 C 
ATOM      2  C14 FTA A   1       6.518  12.467   8.765  1.00  0.00     0.158 C 
ATOM      3  C18 FTA A   1       5.211  12.325   8.161  1.00  0.00     0.069 C 
ATOM      4  N21 FTA A   1       4.147  12.373   7.671  1.00  0.00    -0.197 NA
ENDROOT
BRANCH   2   5
ATOM      5  C13 FTA A   1       7.120  11.345   9.520  1.00  0.00     0.197 A 
ATOM      6  N15 FTA A   1       8.407  11.309  10.053  1.00  0.00    -0.093 NA
ATOM      7  N19 FTA A   1       8.582  10.061  10.638  1.00  0.00    -0.231 N 
ATOM      8  N20 FTA A   1       7.423   9.316  10.476  1.00  0.00    -0.017 NA
ATOM      9  H15 FTA A   1       9.436   9.740  11.117  1.00  0.00     0.200 HD
ATOM     10  N16 FTA A   1       6.512  10.114   9.792  1.00  0.00    -0.090 NA
ENDBRANCH   2   5
BRANCH   1  11
ATOM     11  N1  FTA A   1       7.670  14.232   9.738  1.00  0.00    -0.389 N 
ATOM     12  H11 FTA A   1       8.689  14.224   9.893  1.00  0.00     0.159 HD
BRANCH  11  13
ATOM     13  C2  FTA A   1       6.863  14.888  10.708  1.00  0.00     0.028 A 
ATOM     14  C4  FTA A   1       6.478  16.219  10.574  1.00  0.00     0.031 A 
ATOM     15  C6  FTA A   1       5.885  16.868  11.665  1.00  0.00     0.031 A 
ATOM     16  C7  FTA A   1       5.669  16.225  12.881  1.00  0.00     0.032 A 
ATOM     17  C5  FTA A   1       6.035  14.895  12.990  1.00  0.00     0.031 A 
ATOM     18  C3  FTA A   1       6.637  14.238  11.925  1.00  0.00     0.031 A 
BRANCH  16  19
ATOM     19  N8  FTA A   1       5.267  16.913  14.055  1.00  0.00    -0.356 N 
ATOM     20  H1  FTA A   1       4.352  17.385  14.035  1.00  0.00     0.166 HD
BRANCH  19  21
ATOM     21  C24 FTA A   1       6.027  17.005  15.260  1.00  0.00     0.032 A 
ATOM     22  C26 FTA A   1       5.431  16.917  16.496  1.00  0.00     0.029 A 
ATOM     23  C28 FTA A   1       6.191  17.186  17.618  1.00  0.00     0.002 A 
ATOM     24  C30 FTA A   1       7.535  17.510  17.545  1.00  0.00     0.000 A 
ATOM     25  C29 FTA A   1       8.150  17.563  16.322  1.00  0.00     0.002 A 
ATOM     26  C27 FTA A   1       7.382  17.295  15.183  1.00  0.00     0.029 A 
ENDBRANCH  19  21
ENDBRANCH  16  19
ENDBRANCH  11  13
ENDBRANCH   1  11
TORSDOF 5
ENDMDL
