MODEL 1
REMARK VINA RESULT:   -10.136      0.000      0.000
REMARK INTER + INTRA:         -14.400
REMARK INTER:                 -12.928
REMARK INTRA:                  -1.472
REMARK UNBOUND:                -1.005
REMARK  6 active torsions:
REMARK  status: ('A' for Active; 'I' for Inactive)
REMARK    1  A    between atoms: N_6  and  C_7 
REMARK    2  A    between atoms: C_12  and  N_13 
REMARK       I    between atoms: N_13  and  C_15 
REMARK    3  A    between atoms: C_15  and  C_17 
REMARK    4  A    between atoms: C_19  and  O_20 
REMARK    5  A    between atoms: C_27  and  C_28 
REMARK    6  A    between atoms: C_28  and  C_29 
ROOT
HETATM    1  C   UNL     1      -2.791  13.408  21.651  0.00  0.00     0.066 C 
HETATM    2  C   UNL     1      -2.079  14.283  20.802  0.00  0.00     0.035 C 
HETATM    3  C   UNL     1      -4.135  13.721  21.936  0.00  0.00     0.083 C 
HETATM    4  C   UNL     1      -4.743  14.900  21.484  0.00  0.00     0.069 C 
HETATM    5  C   UNL     1      -3.928  15.810  20.802  0.00  0.00     0.065 A 
HETATM    6  C   UNL     1      -2.597  15.554  20.485  0.00  0.00     0.020 A 
HETATM    7  N   UNL     1      -4.180  17.054  20.298  0.00  0.00    -0.277 N 
HETATM    8  H   UNL     1      -5.065  17.547  20.287  0.00  0.00     0.189 HD
HETATM    9  N   UNL     1      -3.099  17.675  19.801  0.00  0.00    -0.178 NA
HETATM   10  C   UNL     1      -2.103  16.778  19.929  0.00  0.00     0.071 A 
ENDROOT
BRANCH   1  11
HETATM   11  C   UNL     1      -2.169  12.175  22.293  0.00  0.00     0.260 C 
HETATM   12  N   UNL     1      -1.143  12.287  23.278  0.00  0.00    -0.318 N 
HETATM   13  C   UNL     1      -0.690  13.602  23.761  0.00  0.00     0.159 C 
HETATM   14  O   UNL     1      -2.673  11.121  21.921  0.00  0.00    -0.267 OA
BRANCH  12  15
HETATM   15  C   UNL     1      -0.569  11.139  23.976  0.00  0.00     0.037 C 
HETATM   16  C   UNL     1      -0.962  10.831  25.295  0.00  0.00     0.032 C 
HETATM   17  C   UNL     1      -0.609   9.628  25.934  0.00  0.00     0.031 C 
HETATM   18  C   UNL     1       0.200   8.680  25.320  0.00  0.00     0.030 C 
HETATM   19  C   UNL     1       0.715   9.057  24.072  0.00  0.00     0.031 C 
HETATM   20  C   UNL     1       0.342  10.251  23.414  0.00  0.00     0.032 C 
BRANCH  18  21
HETATM   21  N   UNL     1       0.503   7.473  25.907  0.00  0.00    -0.377 N 
HETATM   22  C   UNL     1       1.833   6.840  25.880  0.00  0.00     0.149 C 
HETATM   23  C   UNL     1       1.659   5.350  25.527  0.00  0.00     0.187 C 
HETATM   24  O   UNL     1       0.748   4.681  26.419  0.00  0.00    -0.388 OA
HETATM   25  C   UNL     1      -0.538   5.329  26.407  0.00  0.00     0.187 C 
HETATM   26  C   UNL     1      -0.416   6.796  26.837  0.00  0.00     0.149 C 
ENDBRANCH  18  21
ENDBRANCH  12  15
ENDBRANCH   1  11
BRANCH   3  27
HETATM   27  O   UNL     1      -4.960  12.904  22.673  0.00  0.00    -0.360 OA
HETATM   28  H   UNL     1      -4.396  12.237  23.126  0.00  0.00     0.217 HD
ENDBRANCH   3  27
BRANCH  10  29
HETATM   29  C   UNL     1      -0.707  17.174  19.508  0.00  0.00     0.100 C 
BRANCH  29  30
HETATM   30  C   UNL     1       0.335  16.833  20.573  0.00  0.00    -0.052 A 
HETATM   31  C   UNL     1       0.165  17.129  21.933  0.00  0.00     0.007 A 
HETATM   32  C   UNL     1       1.145  16.805  22.875  0.00  0.00     0.001 A 
HETATM   33  C   UNL     1       2.360  16.259  22.470  0.00  0.00     0.007 A 
HETATM   34  C   UNL     1       2.622  16.065  21.112  0.00  0.00    -0.061 A 
HETATM   35  C   UNL     1       1.594  16.317  20.178  0.00  0.00     0.014 A 
HETATM   36  C   UNL     1       3.992  15.602  20.698  0.00  0.00     0.048 C 
ENDBRANCH  29  30
ENDBRANCH  10  29
TORSDOF 6
ENDMDL
MODEL 2
REMARK VINA RESULT:    -9.840      0.887      1.240
REMARK INTER + INTRA:         -14.009
REMARK INTER:                 -12.560
REMARK INTRA:                  -1.449
REMARK UNBOUND:                -1.005
REMARK  6 active torsions:
REMARK  status: ('A' for Active; 'I' for Inactive)
REMARK    1  A    between atoms: N_6  and  C_7 
REMARK    2  A    between atoms: C_12  and  N_13 
REMARK       I    between atoms: N_13  and  C_15 
REMARK    3  A    between atoms: C_15  and  C_17 
REMARK    4  A    between atoms: C_19  and  O_20 
REMARK    5  A    between atoms: C_27  and  C_28 
REMARK    6  A    between atoms: C_28  and  C_29 
ROOT
HETATM    1  C   UNL     1      -2.949  13.424  21.677  0.00  0.00     0.066 C 
HETATM    2  C   UNL     1      -2.033  14.230  20.969  0.00  0.00     0.035 C 
HETATM    3  C   UNL     1      -4.292  13.848  21.734  0.00  0.00     0.083 C 
HETATM    4  C   UNL     1      -4.714  15.071  21.194  0.00  0.00     0.069 C 
HETATM    5  C   UNL     1      -3.723  15.905  20.667  0.00  0.00     0.065 A 
HETATM    6  C   UNL     1      -2.383  15.539  20.578  0.00  0.00     0.020 A 
HETATM    7  N   UNL     1      -3.782  17.163  20.137  0.00  0.00    -0.277 N 
HETATM    8  H   UNL     1      -4.609  17.727  19.980  0.00  0.00     0.189 HD
HETATM    9  N   UNL     1      -2.585  17.689  19.836  0.00  0.00    -0.178 NA
HETATM   10  C   UNL     1      -1.702  16.714  20.124  0.00  0.00     0.071 A 
ENDROOT
BRANCH   1  11
HETATM   11  C   UNL     1      -2.549  12.147  22.406  0.00  0.00     0.260 C 
HETATM   12  N   UNL     1      -1.785  12.186  23.611  0.00  0.00    -0.318 N 
HETATM   13  C   UNL     1      -1.410  13.467  24.234  0.00  0.00     0.159 C 
HETATM   14  O   UNL     1      -2.991  11.128  21.889  0.00  0.00    -0.267 OA
BRANCH  12  15
HETATM   15  C   UNL     1      -1.442  10.996  24.386  0.00  0.00     0.037 C 
HETATM   16  C   UNL     1      -0.579  10.016  23.851  0.00  0.00     0.032 C 
HETATM   17  C   UNL     1      -0.047   8.967  24.623  0.00  0.00     0.031 C 
HETATM   18  C   UNL     1      -0.379   8.798  25.962  0.00  0.00     0.030 C 
HETATM   19  C   UNL     1      -1.354   9.681  26.447  0.00  0.00     0.031 C 
HETATM   20  C   UNL     1      -1.872  10.752  25.685  0.00  0.00     0.032 C 
BRANCH  18  21
HETATM   21  N   UNL     1       0.180   7.815  26.745  0.00  0.00    -0.377 N 
HETATM   22  C   UNL     1       1.445   7.954  27.486  0.00  0.00     0.149 C 
HETATM   23  C   UNL     1       2.289   6.685  27.254  0.00  0.00     0.187 C 
HETATM   24  O   UNL     1       1.576   5.484  27.602  0.00  0.00    -0.388 OA
HETATM   25  C   UNL     1       0.351   5.388  26.851  0.00  0.00     0.187 C 
HETATM   26  C   UNL     1      -0.555   6.595  27.122  0.00  0.00     0.149 C 
ENDBRANCH  18  21
ENDBRANCH  12  15
ENDBRANCH   1  11
BRANCH   3  27
HETATM   27  O   UNL     1      -5.294  13.107  22.314  0.00  0.00    -0.360 OA
HETATM   28  H   UNL     1      -5.552  12.401  21.679  0.00  0.00     0.217 HD
ENDBRANCH   3  27
BRANCH  10  29
HETATM   29  C   UNL     1      -0.228  16.990  19.949  0.00  0.00     0.100 C 
BRANCH  29  30
HETATM   30  C   UNL     1       0.608  16.401  21.085  0.00  0.00    -0.052 A 
HETATM   31  C   UNL     1       0.377  16.693  22.437  0.00  0.00     0.007 A 
HETATM   32  C   UNL     1       1.169  16.137  23.445  0.00  0.00     0.001 A 
HETATM   33  C   UNL     1       2.268  15.346  23.123  0.00  0.00     0.007 A 
HETATM   34  C   UNL     1       2.610  15.132  21.786  0.00  0.00    -0.061 A 
HETATM   35  C   UNL     1       1.756  15.628  20.778  0.00  0.00     0.014 A 
HETATM   36  C   UNL     1       3.879  14.388  21.474  0.00  0.00     0.048 C 
ENDBRANCH  29  30
ENDBRANCH  10  29
TORSDOF 6
ENDMDL
MODEL 3
REMARK VINA RESULT:    -9.268      2.298      2.988
REMARK INTER + INTRA:         -13.252
REMARK INTER:                 -11.967
REMARK INTRA:                  -1.286
REMARK UNBOUND:                -1.005
REMARK  6 active torsions:
REMARK  status: ('A' for Active; 'I' for Inactive)
REMARK    1  A    between atoms: N_6  and  C_7 
REMARK    2  A    between atoms: C_12  and  N_13 
REMARK       I    between atoms: N_13  and  C_15 
REMARK    3  A    between atoms: C_15  and  C_17 
REMARK    4  A    between atoms: C_19  and  O_20 
REMARK    5  A    between atoms: C_27  and  C_28 
REMARK    6  A    between atoms: C_28  and  C_29 
ROOT
HETATM    1  C   UNL     1      -2.298  13.615  23.103  0.00  0.00     0.066 C 
HETATM    2  C   UNL     1      -1.373  14.491  22.496  0.00  0.00     0.035 C 
HETATM    3  C   UNL     1      -3.596  13.552  22.560  0.00  0.00     0.083 C 
HETATM    4  C   UNL     1      -4.012  14.385  21.512  0.00  0.00     0.069 C 
HETATM    5  C   UNL     1      -3.104  15.356  21.079  0.00  0.00     0.065 A 
HETATM    6  C   UNL     1      -1.806  15.464  21.572  0.00  0.00     0.020 A 
HETATM    7  N   UNL     1      -3.211  16.349  20.147  0.00  0.00    -0.277 N 
HETATM    8  H   UNL     1      -3.997  16.538  19.536  0.00  0.00     0.189 HD
HETATM    9  N   UNL     1      -2.148  17.166  20.088  0.00  0.00    -0.178 NA
HETATM   10  C   UNL     1      -1.277  16.654  20.979  0.00  0.00     0.071 A 
ENDROOT
BRANCH   1  11
HETATM   11  C   UNL     1      -1.969  12.771  24.328  0.00  0.00     0.260 C 
HETATM   12  N   UNL     1      -1.520  11.422  24.203  0.00  0.00    -0.318 N 
HETATM   13  C   UNL     1      -1.292  10.814  22.881  0.00  0.00     0.159 C 
HETATM   14  O   UNL     1      -2.076  13.379  25.386  0.00  0.00    -0.267 OA
BRANCH  12  15
HETATM   15  C   UNL     1      -1.121  10.598  25.341  0.00  0.00     0.037 C 
HETATM   16  C   UNL     1       0.159  10.006  25.386  0.00  0.00     0.032 C 
HETATM   17  C   UNL     1       0.673   9.387  26.540  0.00  0.00     0.031 C 
HETATM   18  C   UNL     1      -0.074   9.272  27.706  0.00  0.00     0.030 C 
HETATM   19  C   UNL     1      -1.398   9.722  27.610  0.00  0.00     0.031 C 
HETATM   20  C   UNL     1      -1.911  10.370  26.462  0.00  0.00     0.032 C 
BRANCH  18  21
HETATM   21  N   UNL     1       0.435   8.724  28.861  0.00  0.00    -0.377 N 
HETATM   22  C   UNL     1      -0.181   8.856  30.192  0.00  0.00     0.149 C 
HETATM   23  C   UNL     1       0.920   9.216  31.208  0.00  0.00     0.187 C 
HETATM   24  O   UNL     1       2.005   8.270  31.194  0.00  0.00    -0.388 OA
HETATM   25  C   UNL     1       2.580   8.179  29.877  0.00  0.00     0.187 C 
HETATM   26  C   UNL     1       1.530   7.740  28.849  0.00  0.00     0.149 C 
ENDBRANCH  18  21
ENDBRANCH  12  15
ENDBRANCH   1  11
BRANCH   3  27
HETATM   27  O   UNL     1      -4.557  12.674  23.003  0.00  0.00    -0.360 OA
HETATM   28  H   UNL     1      -4.866  12.151  22.229  0.00  0.00     0.217 HD
ENDBRANCH   3  27
BRANCH  10  29
HETATM   29  C   UNL     1       0.033  17.370  21.211  0.00  0.00     0.100 C 
BRANCH  29  30
HETATM   30  C   UNL     1       1.228  16.420  21.147  0.00  0.00    -0.052 A 
HETATM   31  C   UNL     1       1.722  15.889  19.947  0.00  0.00     0.007 A 
HETATM   32  C   UNL     1       2.815  15.018  19.933  0.00  0.00     0.001 A 
HETATM   33  C   UNL     1       3.387  14.585  21.126  0.00  0.00     0.007 A 
HETATM   34  C   UNL     1       2.847  14.989  22.349  0.00  0.00    -0.061 A 
HETATM   35  C   UNL     1       1.798  15.933  22.350  0.00  0.00     0.014 A 
HETATM   36  C   UNL     1       3.400  14.397  23.615  0.00  0.00     0.048 C 
ENDBRANCH  29  30
ENDBRANCH  10  29
TORSDOF 6
ENDMDL
MODEL 4
REMARK VINA RESULT:    -9.089      2.038      2.771
REMARK INTER + INTRA:         -13.016
REMARK INTER:                 -11.579
REMARK INTRA:                  -1.437
REMARK UNBOUND:                -1.005
REMARK  6 active torsions:
REMARK  status: ('A' for Active; 'I' for Inactive)
REMARK    1  A    between atoms: N_6  and  C_7 
REMARK    2  A    between atoms: C_12  and  N_13 
REMARK       I    between atoms: N_13  and  C_15 
REMARK    3  A    between atoms: C_15  and  C_17 
REMARK    4  A    between atoms: C_19  and  O_20 
REMARK    5  A    between atoms: C_27  and  C_28 
REMARK    6  A    between atoms: C_28  and  C_29 
ROOT
HETATM    1  C   UNL     1      -1.105  12.527  22.162  0.00  0.00     0.066 C 
HETATM    2  C   UNL     1      -0.440  13.756  21.964  0.00  0.00     0.035 C 
HETATM    3  C   UNL     1      -2.351  12.345  21.529  0.00  0.00     0.083 C 
HETATM    4  C   UNL     1      -2.975  13.365  20.798  0.00  0.00     0.069 C 
HETATM    5  C   UNL     1      -2.349  14.615  20.794  0.00  0.00     0.065 A 
HETATM    6  C   UNL     1      -1.116  14.854  21.395  0.00  0.00     0.020 A 
HETATM    7  N   UNL     1      -2.715  15.813  20.249  0.00  0.00    -0.277 N 
HETATM    8  H   UNL     1      -3.530  16.007  19.679  0.00  0.00     0.189 HD
HETATM    9  N   UNL     1      -1.895  16.830  20.557  0.00  0.00    -0.178 NA
HETATM   10  C   UNL     1      -0.913  16.267  21.285  0.00  0.00     0.071 A 
ENDROOT
BRANCH   1  11
HETATM   11  C   UNL     1      -0.559  11.414  23.049  0.00  0.00     0.260 C 
HETATM   12  N   UNL     1      -0.667  11.475  24.470  0.00  0.00    -0.318 N 
HETATM   13  C   UNL     1      -1.370  12.587  25.134  0.00  0.00     0.159 C 
HETATM   14  O   UNL     1      -0.089  10.473  22.420  0.00  0.00    -0.267 OA
BRANCH  12  15
HETATM   15  C   UNL     1      -0.228  10.401  25.357  0.00  0.00     0.037 C 
HETATM   16  C   UNL     1       1.133  10.037  25.426  0.00  0.00     0.032 C 
HETATM   17  C   UNL     1       1.641   9.167  26.408  0.00  0.00     0.031 C 
HETATM   18  C   UNL     1       0.818   8.565  27.352  0.00  0.00     0.030 C 
HETATM   19  C   UNL     1      -0.553   8.807  27.186  0.00  0.00     0.031 C 
HETATM   20  C   UNL     1      -1.066   9.701  26.218  0.00  0.00     0.032 C 
BRANCH  18  21
HETATM   21  N   UNL     1       1.308   7.761  28.356  0.00  0.00    -0.377 N 
HETATM   22  C   UNL     1       0.924   6.354  28.563  0.00  0.00     0.149 C 
HETATM   23  C   UNL     1       0.639   6.141  30.063  0.00  0.00     0.187 C 
HETATM   24  O   UNL     1       1.749   6.537  30.891  0.00  0.00    -0.388 OA
HETATM   25  C   UNL     1       2.083   7.919  30.659  0.00  0.00     0.187 C 
HETATM   26  C   UNL     1       2.456   8.154  29.190  0.00  0.00     0.149 C 
ENDBRANCH  18  21
ENDBRANCH  12  15
ENDBRANCH   1  11
BRANCH   3  27
HETATM   27  O   UNL     1      -3.053  11.164  21.570  0.00  0.00    -0.360 OA
HETATM   28  H   UNL     1      -3.952  11.336  21.210  0.00  0.00     0.217 HD
ENDBRANCH   3  27
BRANCH  10  29
HETATM   29  C   UNL     1       0.174  17.150  21.850  0.00  0.00     0.100 C 
BRANCH  29  30
HETATM   30  C   UNL     1       1.572  16.643  21.494  0.00  0.00    -0.052 A 
HETATM   31  C   UNL     1       2.103  16.706  20.198  0.00  0.00     0.007 A 
HETATM   32  C   UNL     1       3.384  16.226  19.914  0.00  0.00     0.001 A 
HETATM   33  C   UNL     1       4.133  15.589  20.899  0.00  0.00     0.007 A 
HETATM   34  C   UNL     1       3.593  15.391  22.172  0.00  0.00    -0.061 A 
HETATM   35  C   UNL     1       2.334  15.954  22.471  0.00  0.00     0.014 A 
HETATM   36  C   UNL     1       4.372  14.581  23.171  0.00  0.00     0.048 C 
ENDBRANCH  29  30
ENDBRANCH  10  29
TORSDOF 6
ENDMDL
MODEL 5
REMARK VINA RESULT:    -9.078      2.706      4.388
REMARK INTER + INTRA:         -13.002
REMARK INTER:                 -11.807
REMARK INTRA:                  -1.195
REMARK UNBOUND:                -1.005
REMARK  6 active torsions:
REMARK  status: ('A' for Active; 'I' for Inactive)
REMARK    1  A    between atoms: N_6  and  C_7 
REMARK    2  A    between atoms: C_12  and  N_13 
REMARK       I    between atoms: N_13  and  C_15 
REMARK    3  A    between atoms: C_15  and  C_17 
REMARK    4  A    between atoms: C_19  and  O_20 
REMARK    5  A    between atoms: C_27  and  C_28 
REMARK    6  A    between atoms: C_28  and  C_29 
ROOT
HETATM    1  C   UNL     1      -1.917  10.807  24.712  0.00  0.00     0.066 C 
HETATM    2  C   UNL     1      -2.410  11.279  23.477  0.00  0.00     0.035 C 
HETATM    3  C   UNL     1      -2.483  11.336  25.890  0.00  0.00     0.083 C 
HETATM    4  C   UNL     1      -3.436  12.364  25.867  0.00  0.00     0.069 C 
HETATM    5  C   UNL     1      -3.745  12.912  24.618  0.00  0.00     0.065 A 
HETATM    6  C   UNL     1      -3.225  12.428  23.421  0.00  0.00     0.020 A 
HETATM    7  N   UNL     1      -4.561  13.946  24.257  0.00  0.00    -0.277 N 
HETATM    8  H   UNL     1      -5.158  14.499  24.861  0.00  0.00     0.189 HD
HETATM    9  N   UNL     1      -4.513  14.254  22.952  0.00  0.00    -0.178 NA
HETATM   10  C   UNL     1      -3.673  13.346  22.419  0.00  0.00     0.071 A 
ENDROOT
BRANCH   1  11
HETATM   11  C   UNL     1      -0.790   9.788  24.829  0.00  0.00     0.260 C 
HETATM   12  N   UNL     1       0.567  10.150  24.579  0.00  0.00    -0.318 N 
HETATM   13  C   UNL     1       0.941  11.539  24.262  0.00  0.00     0.159 C 
HETATM   14  O   UNL     1      -1.164   8.683  25.204  0.00  0.00    -0.267 OA
BRANCH  12  15
HETATM   15  C   UNL     1       1.690   9.230  24.751  0.00  0.00     0.037 C 
HETATM   16  C   UNL     1       2.538   9.334  25.873  0.00  0.00     0.032 C 
HETATM   17  C   UNL     1       3.493   8.354  26.199  0.00  0.00     0.031 C 
HETATM   18  C   UNL     1       3.700   7.235  25.402  0.00  0.00     0.030 C 
HETATM   19  C   UNL     1       2.965   7.213  24.208  0.00  0.00     0.031 C 
HETATM   20  C   UNL     1       1.985   8.180  23.888  0.00  0.00     0.032 C 
BRANCH  18  21
HETATM   21  N   UNL     1       4.587   6.238  25.739  0.00  0.00    -0.377 N 
HETATM   22  C   UNL     1       5.277   5.370  24.771  0.00  0.00     0.149 C 
HETATM   23  C   UNL     1       5.185   3.913  25.268  0.00  0.00     0.187 C 
HETATM   24  O   UNL     1       5.694   3.761  26.606  0.00  0.00    -0.388 OA
HETATM   25  C   UNL     1       4.987   4.623  27.517  0.00  0.00     0.187 C 
HETATM   26  C   UNL     1       5.126   6.093  27.101  0.00  0.00     0.149 C 
ENDBRANCH  18  21
ENDBRANCH  12  15
ENDBRANCH   1  11
BRANCH   3  27
HETATM   27  O   UNL     1      -2.154  10.894  27.149  0.00  0.00    -0.360 OA
HETATM   28  H   UNL     1      -1.693  11.628  27.615  0.00  0.00     0.217 HD
ENDBRANCH   3  27
BRANCH  10  29
HETATM   29  C   UNL     1      -3.344  13.434  20.948  0.00  0.00     0.100 C 
BRANCH  29  30
HETATM   30  C   UNL     1      -2.956  14.851  20.527  0.00  0.00    -0.052 A 
HETATM   31  C   UNL     1      -3.735  15.634  19.662  0.00  0.00     0.007 A 
HETATM   32  C   UNL     1      -3.341  16.924  19.298  0.00  0.00     0.001 A 
HETATM   33  C   UNL     1      -2.114  17.432  19.716  0.00  0.00     0.007 A 
HETATM   34  C   UNL     1      -1.250  16.639  20.474  0.00  0.00    -0.061 A 
HETATM   35  C   UNL     1      -1.693  15.371  20.906  0.00  0.00     0.014 A 
HETATM   36  C   UNL     1       0.122  17.166  20.794  0.00  0.00     0.048 C 
ENDBRANCH  29  30
ENDBRANCH  10  29
TORSDOF 6
ENDMDL
MODEL 6
REMARK VINA RESULT:    -8.624      2.038      4.367
REMARK INTER + INTRA:         -12.401
REMARK INTER:                 -11.291
REMARK INTRA:                  -1.111
REMARK UNBOUND:                -1.005
REMARK  6 active torsions:
REMARK  status: ('A' for Active; 'I' for Inactive)
REMARK    1  A    between atoms: N_6  and  C_7 
REMARK    2  A    between atoms: C_12  and  N_13 
REMARK       I    between atoms: N_13  and  C_15 
REMARK    3  A    between atoms: C_15  and  C_17 
REMARK    4  A    between atoms: C_19  and  O_20 
REMARK    5  A    between atoms: C_27  and  C_28 
REMARK    6  A    between atoms: C_28  and  C_29 
ROOT
HETATM    1  C   UNL     1       0.862  14.566  22.379  0.00  0.00     0.066 C 
HETATM    2  C   UNL     1      -0.147  15.507  22.080  0.00  0.00     0.035 C 
HETATM    3  C   UNL     1       2.141  14.779  21.829  0.00  0.00     0.083 C 
HETATM    4  C   UNL     1       2.409  15.827  20.937  0.00  0.00     0.069 C 
HETATM    5  C   UNL     1       1.323  16.613  20.541  0.00  0.00     0.065 A 
HETATM    6  C   UNL     1       0.038  16.455  21.054  0.00  0.00     0.020 A 
HETATM    7  N   UNL     1       1.225  17.647  19.654  0.00  0.00    -0.277 N 
HETATM    8  H   UNL     1       1.976  18.084  19.132  0.00  0.00     0.189 HD
HETATM    9  N   UNL     1      -0.028  18.083  19.453  0.00  0.00    -0.178 NA
HETATM   10  C   UNL     1      -0.783  17.344  20.288  0.00  0.00     0.071 A 
ENDROOT
BRANCH   1  11
HETATM   11  C   UNL     1       0.623  13.326  23.231  0.00  0.00     0.260 C 
HETATM   12  N   UNL     1      -0.152  12.230  22.748  0.00  0.00    -0.318 N 
HETATM   13  C   UNL     1      -0.696  12.225  21.379  0.00  0.00     0.159 C 
HETATM   14  O   UNL     1       1.198  13.356  24.313  0.00  0.00    -0.267 OA
BRANCH  12  15
HETATM   15  C   UNL     1      -0.346  10.990  23.496  0.00  0.00     0.037 C 
HETATM   16  C   UNL     1       0.478   9.870  23.257  0.00  0.00     0.032 C 
HETATM   17  C   UNL     1       0.478   8.733  24.086  0.00  0.00     0.031 C 
HETATM   18  C   UNL     1      -0.376   8.619  25.176  0.00  0.00     0.030 C 
HETATM   19  C   UNL     1      -1.299   9.664  25.319  0.00  0.00     0.031 C 
HETATM   20  C   UNL     1      -1.287  10.820  24.506  0.00  0.00     0.032 C 
BRANCH  18  21
HETATM   21  N   UNL     1      -0.345   7.541  26.032  0.00  0.00    -0.377 N 
HETATM   22  C   UNL     1      -0.617   7.613  27.477  0.00  0.00     0.149 C 
HETATM   23  C   UNL     1       0.467   6.807  28.220  0.00  0.00     0.187 C 
HETATM   24  O   UNL     1       0.561   5.452  27.744  0.00  0.00    -0.388 OA
HETATM   25  C   UNL     1       0.834   5.431  26.330  0.00  0.00     0.187 C 
HETATM   26  C   UNL     1      -0.271   6.153  25.547  0.00  0.00     0.149 C 
ENDBRANCH  18  21
ENDBRANCH  12  15
ENDBRANCH   1  11
BRANCH   3  27
HETATM   27  O   UNL     1       3.228  13.987  22.117  0.00  0.00    -0.360 OA
HETATM   28  H   UNL     1       3.641  13.722  21.265  0.00  0.00     0.217 HD
ENDBRANCH   3  27
BRANCH  10  29
HETATM   29  C   UNL     1      -2.280  17.541  20.284  0.00  0.00     0.100 C 
BRANCH  29  30
HETATM   30  C   UNL     1      -3.037  16.213  20.291  0.00  0.00    -0.052 A 
HETATM   31  C   UNL     1      -3.764  15.740  19.189  0.00  0.00     0.007 A 
HETATM   32  C   UNL     1      -4.446  14.521  19.238  0.00  0.00     0.001 A 
HETATM   33  C   UNL     1      -4.494  13.787  20.419  0.00  0.00     0.007 A 
HETATM   34  C   UNL     1      -3.890  14.282  21.577  0.00  0.00    -0.061 A 
HETATM   35  C   UNL     1      -3.134  15.471  21.494  0.00  0.00     0.014 A 
HETATM   36  C   UNL     1      -4.076  13.533  22.868  0.00  0.00     0.048 C 
ENDBRANCH  29  30
ENDBRANCH  10  29
TORSDOF 6
ENDMDL
MODEL 7
REMARK VINA RESULT:    -8.548      3.807      6.242
REMARK INTER + INTRA:         -12.302
REMARK INTER:                 -11.310
REMARK INTRA:                  -0.992
REMARK UNBOUND:                -1.005
REMARK  6 active torsions:
REMARK  status: ('A' for Active; 'I' for Inactive)
REMARK    1  A    between atoms: N_6  and  C_7 
REMARK    2  A    between atoms: C_12  and  N_13 
REMARK       I    between atoms: N_13  and  C_15 
REMARK    3  A    between atoms: C_15  and  C_17 
REMARK    4  A    between atoms: C_19  and  O_20 
REMARK    5  A    between atoms: C_27  and  C_28 
REMARK    6  A    between atoms: C_28  and  C_29 
ROOT
HETATM    1  C   UNL     1      -0.654  10.112  25.746  0.00  0.00     0.066 C 
HETATM    2  C   UNL     1      -1.576  10.717  24.865  0.00  0.00     0.035 C 
HETATM    3  C   UNL     1      -1.020  10.002  27.103  0.00  0.00     0.083 C 
HETATM    4  C   UNL     1      -2.209  10.548  27.606  0.00  0.00     0.069 C 
HETATM    5  C   UNL     1      -2.988  11.292  26.715  0.00  0.00     0.065 A 
HETATM    6  C   UNL     1      -2.683  11.431  25.364  0.00  0.00     0.020 A 
HETATM    7  N   UNL     1      -4.144  11.999  26.892  0.00  0.00    -0.277 N 
HETATM    8  H   UNL     1      -4.697  12.074  27.737  0.00  0.00     0.189 HD
HETATM    9  N   UNL     1      -4.539  12.687  25.808  0.00  0.00    -0.178 NA
HETATM   10  C   UNL     1      -3.637  12.372  24.859  0.00  0.00     0.071 A 
ENDROOT
BRANCH   1  11
HETATM   11  C   UNL     1       0.716   9.610  25.309  0.00  0.00     0.260 C 
HETATM   12  N   UNL     1       0.965   8.222  25.089  0.00  0.00    -0.318 N 
HETATM   13  C   UNL     1      -0.113   7.226  25.213  0.00  0.00     0.159 C 
HETATM   14  O   UNL     1       1.529  10.507  25.119  0.00  0.00    -0.267 OA
BRANCH  12  15
HETATM   15  C   UNL     1       2.238   7.701  24.597  0.00  0.00     0.037 C 
HETATM   16  C   UNL     1       2.299   6.982  23.385  0.00  0.00     0.032 C 
HETATM   17  C   UNL     1       3.513   6.644  22.760  0.00  0.00     0.031 C 
HETATM   18  C   UNL     1       4.743   6.957  23.326  0.00  0.00     0.030 C 
HETATM   19  C   UNL     1       4.679   7.533  24.602  0.00  0.00     0.031 C 
HETATM   20  C   UNL     1       3.463   7.898  25.224  0.00  0.00     0.032 C 
BRANCH  18  21
HETATM   21  N   UNL     1       5.937   6.689  22.697  0.00  0.00    -0.377 N 
HETATM   22  C   UNL     1       6.434   7.400  21.507  0.00  0.00     0.149 C 
HETATM   23  C   UNL     1       6.957   6.359  20.498  0.00  0.00     0.187 C 
HETATM   24  O   UNL     1       7.949   5.489  21.076  0.00  0.00    -0.388 OA
HETATM   25  C   UNL     1       7.417   4.812  22.230  0.00  0.00     0.187 C 
HETATM   26  C   UNL     1       6.963   5.818  23.295  0.00  0.00     0.149 C 
ENDBRANCH  18  21
ENDBRANCH  12  15
ENDBRANCH   1  11
BRANCH   3  27
HETATM   27  O   UNL     1      -0.251   9.354  28.041  0.00  0.00    -0.360 OA
HETATM   28  H   UNL     1       0.693   9.524  27.825  0.00  0.00     0.217 HD
ENDBRANCH   3  27
BRANCH  10  29
HETATM   29  C   UNL     1      -3.753  13.022  23.501  0.00  0.00     0.100 C 
BRANCH  29  30
HETATM   30  C   UNL     1      -2.712  14.124  23.299  0.00  0.00    -0.052 A 
HETATM   31  C   UNL     1      -1.939  14.648  24.344  0.00  0.00     0.007 A 
HETATM   32  C   UNL     1      -1.001  15.659  24.117  0.00  0.00     0.001 A 
HETATM   33  C   UNL     1      -0.877  16.236  22.857  0.00  0.00     0.007 A 
HETATM   34  C   UNL     1      -1.716  15.832  21.816  0.00  0.00    -0.061 A 
HETATM   35  C   UNL     1      -2.599  14.754  22.034  0.00  0.00     0.014 A 
HETATM   36  C   UNL     1      -1.650  16.568  20.506  0.00  0.00     0.048 C 
ENDBRANCH  29  30
ENDBRANCH  10  29
TORSDOF 6
ENDMDL
MODEL 8
REMARK VINA RESULT:    -8.473      3.198      5.637
REMARK INTER + INTRA:         -12.202
REMARK INTER:                 -11.039
REMARK INTRA:                  -1.163
REMARK UNBOUND:                -1.005
REMARK  6 active torsions:
REMARK  status: ('A' for Active; 'I' for Inactive)
REMARK    1  A    between atoms: N_6  and  C_7 
REMARK    2  A    between atoms: C_12  and  N_13 
REMARK       I    between atoms: N_13  and  C_15 
REMARK    3  A    between atoms: C_15  and  C_17 
REMARK    4  A    between atoms: C_19  and  O_20 
REMARK    5  A    between atoms: C_27  and  C_28 
REMARK    6  A    between atoms: C_28  and  C_29 
ROOT
HETATM    1  C   UNL     1      -1.211   9.673  25.609  0.00  0.00     0.066 C 
HETATM    2  C   UNL     1      -1.973  10.383  24.657  0.00  0.00     0.035 C 
HETATM    3  C   UNL     1      -1.518   9.866  26.971  0.00  0.00     0.083 C 
HETATM    4  C   UNL     1      -2.477  10.794  27.399  0.00  0.00     0.069 C 
HETATM    5  C   UNL     1      -3.065  11.595  26.415  0.00  0.00     0.065 A 
HETATM    6  C   UNL     1      -2.807  11.447  25.055  0.00  0.00     0.020 A 
HETATM    7  N   UNL     1      -3.965  12.619  26.495  0.00  0.00    -0.277 N 
HETATM    8  H   UNL     1      -4.429  12.968  27.326  0.00  0.00     0.189 HD
HETATM    9  N   UNL     1      -4.210  13.229  25.325  0.00  0.00    -0.178 NA
HETATM   10  C   UNL     1      -3.486  12.538  24.424  0.00  0.00     0.071 A 
ENDROOT
BRANCH   1  11
HETATM   11  C   UNL     1      -0.061   8.745  25.237  0.00  0.00     0.260 C 
HETATM   12  N   UNL     1       1.223   9.256  24.886  0.00  0.00    -0.318 N 
HETATM   13  C   UNL     1       1.508  10.701  24.933  0.00  0.00     0.159 C 
HETATM   14  O   UNL     1      -0.342   7.556  25.328  0.00  0.00    -0.267 OA
BRANCH  12  15
HETATM   15  C   UNL     1       2.376   8.407  24.595  0.00  0.00     0.037 C 
HETATM   16  C   UNL     1       3.355   8.162  25.581  0.00  0.00     0.032 C 
HETATM   17  C   UNL     1       4.362   7.192  25.431  0.00  0.00     0.031 C 
HETATM   18  C   UNL     1       4.490   6.439  24.269  0.00  0.00     0.030 C 
HETATM   19  C   UNL     1       3.613   6.792  23.234  0.00  0.00     0.031 C 
HETATM   20  C   UNL     1       2.582   7.747  23.388  0.00  0.00     0.032 C 
BRANCH  18  21
HETATM   21  N   UNL     1       5.430   5.444  24.131  0.00  0.00    -0.377 N 
HETATM   22  C   UNL     1       6.671   5.570  23.347  0.00  0.00     0.149 C 
HETATM   23  C   UNL     1       6.838   4.301  22.488  0.00  0.00     0.187 C 
HETATM   24  O   UNL     1       6.805   3.098  23.279  0.00  0.00    -0.388 OA
HETATM   25  C   UNL     1       5.573   3.016  24.022  0.00  0.00     0.187 C 
HETATM   26  C   UNL     1       5.413   4.224  24.954  0.00  0.00     0.149 C 
ENDBRANCH  18  21
ENDBRANCH  12  15
ENDBRANCH   1  11
BRANCH   3  27
HETATM   27  O   UNL     1      -0.911   9.167  27.988  0.00  0.00    -0.360 OA
HETATM   28  H   UNL     1      -1.548   9.111  28.736  0.00  0.00     0.217 HD
ENDBRANCH   3  27
BRANCH  10  29
HETATM   29  C   UNL     1      -3.489  12.994  22.984  0.00  0.00     0.100 C 
BRANCH  29  30
HETATM   30  C   UNL     1      -2.543  14.172  22.750  0.00  0.00    -0.052 A 
HETATM   31  C   UNL     1      -1.648  14.641  23.723  0.00  0.00     0.007 A 
HETATM   32  C   UNL     1      -0.803  15.725  23.470  0.00  0.00     0.001 A 
HETATM   33  C   UNL     1      -0.894  16.424  22.271  0.00  0.00     0.007 A 
HETATM   34  C   UNL     1      -1.857  16.071  21.324  0.00  0.00    -0.061 A 
HETATM   35  C   UNL     1      -2.647  14.924  21.553  0.00  0.00     0.014 A 
HETATM   36  C   UNL     1      -2.020  16.930  20.100  0.00  0.00     0.048 C 
ENDBRANCH  29  30
ENDBRANCH  10  29
TORSDOF 6
ENDMDL
MODEL 9
REMARK VINA RESULT:    -8.275      3.607      6.212
REMARK INTER + INTRA:         -11.941
REMARK INTER:                 -10.936
REMARK INTRA:                  -1.005
REMARK UNBOUND:                -1.005
REMARK  6 active torsions:
REMARK  status: ('A' for Active; 'I' for Inactive)
REMARK    1  A    between atoms: N_6  and  C_7 
REMARK    2  A    between atoms: C_12  and  N_13 
REMARK       I    between atoms: N_13  and  C_15 
REMARK    3  A    between atoms: C_15  and  C_17 
REMARK    4  A    between atoms: C_19  and  O_20 
REMARK    5  A    between atoms: C_27  and  C_28 
REMARK    6  A    between atoms: C_28  and  C_29 
ROOT
HETATM    1  C   UNL     1      -0.174   9.631  24.640  0.00  0.00     0.066 C 
HETATM    2  C   UNL     1      -0.849  10.013  23.460  0.00  0.00     0.035 C 
HETATM    3  C   UNL     1      -0.820   9.865  25.870  0.00  0.00     0.083 C 
HETATM    4  C   UNL     1      -2.047  10.536  25.957  0.00  0.00     0.069 C 
HETATM    5  C   UNL     1      -2.573  11.049  24.768  0.00  0.00     0.065 A 
HETATM    6  C   UNL     1      -1.985  10.845  23.522  0.00  0.00     0.020 A 
HETATM    7  N   UNL     1      -3.689  11.795  24.515  0.00  0.00    -0.277 N 
HETATM    8  H   UNL     1      -4.399  12.084  25.177  0.00  0.00     0.189 HD
HETATM    9  N   UNL     1      -3.803  12.199  23.240  0.00  0.00    -0.178 NA
HETATM   10  C   UNL     1      -2.748  11.646  22.612  0.00  0.00     0.071 A 
ENDROOT
BRANCH   1  11
HETATM   11  C   UNL     1       1.220   9.017  24.643  0.00  0.00     0.260 C 
HETATM   12  N   UNL     1       1.436   7.661  24.256  0.00  0.00    -0.318 N 
HETATM   13  C   UNL     1       0.327   6.819  23.773  0.00  0.00     0.159 C 
HETATM   14  O   UNL     1       2.104   9.808  24.949  0.00  0.00    -0.267 OA
BRANCH  12  15
HETATM   15  C   UNL     1       2.760   7.049  24.170  0.00  0.00     0.037 C 
HETATM   16  C   UNL     1       3.151   6.052  25.089  0.00  0.00     0.032 C 
HETATM   17  C   UNL     1       4.318   5.283  24.927  0.00  0.00     0.031 C 
HETATM   18  C   UNL     1       5.194   5.491  23.869  0.00  0.00     0.030 C 
HETATM   19  C   UNL     1       4.883   6.582  23.047  0.00  0.00     0.031 C 
HETATM   20  C   UNL     1       3.700   7.342  23.188  0.00  0.00     0.032 C 
BRANCH  18  21
HETATM   21  N   UNL     1       6.307   4.707  23.663  0.00  0.00    -0.377 N 
HETATM   22  C   UNL     1       7.525   5.150  22.965  0.00  0.00     0.149 C 
HETATM   23  C   UNL     1       7.948   4.050  21.973  0.00  0.00     0.187 C 
HETATM   24  O   UNL     1       8.115   2.771  22.614  0.00  0.00    -0.388 OA
HETATM   25  C   UNL     1       6.899   2.377  23.277  0.00  0.00     0.187 C 
HETATM   26  C   UNL     1       6.491   3.409  24.335  0.00  0.00     0.149 C 
ENDBRANCH  18  21
ENDBRANCH  12  15
ENDBRANCH   1  11
BRANCH   3  27
HETATM   27  O   UNL     1      -0.308   9.457  27.080  0.00  0.00    -0.360 OA
HETATM   28  H   UNL     1       0.470  10.024  27.284  0.00  0.00     0.217 HD
ENDBRANCH   3  27
BRANCH  10  29
HETATM   29  C   UNL     1      -2.535  11.943  21.147  0.00  0.00     0.100 C 
BRANCH  29  30
HETATM   30  C   UNL     1      -2.860  13.395  20.799  0.00  0.00    -0.052 A 
HETATM   31  C   UNL     1      -3.993  13.771  20.063  0.00  0.00     0.007 A 
HETATM   32  C   UNL     1      -4.252  15.111  19.762  0.00  0.00     0.001 A 
HETATM   33  C   UNL     1      -3.338  16.101  20.111  0.00  0.00     0.007 A 
HETATM   34  C   UNL     1      -2.136  15.758  20.733  0.00  0.00    -0.061 A 
HETATM   35  C   UNL     1      -1.924  14.414  21.107  0.00  0.00     0.014 A 
HETATM   36  C   UNL     1      -1.112  16.833  20.974  0.00  0.00     0.048 C 
ENDBRANCH  29  30
ENDBRANCH  10  29
TORSDOF 6
ENDMDL
