MODEL 1
REMARK VINA RESULT:   -10.456      0.000      0.000
REMARK INTER + INTRA:         -15.549
REMARK INTER:                 -13.551
REMARK INTRA:                  -1.997
REMARK UNBOUND:                -1.730
REMARK  6 active torsions:
REMARK  status: ('A' for Active; 'I' for Inactive)
REMARK    1  A    between atoms: C_7  and  C_8 
REMARK    2  A    between atoms: C_8  and  N_9 
REMARK       I    between atoms: N_9  and  C_11 
REMARK    3  A    between atoms: C_11  and  C_13 
REMARK    4  A    between atoms: C_15  and  O_16 
REMARK    5  A    between atoms: C_23  and  C_24 
REMARK    6  A    between atoms: C_24  and  C_25 
ROOT
HETATM    1  C   UNL     1      -0.807  11.088  25.453  0.00  0.00     0.066 C 
HETATM    2  C   UNL     1       0.356  11.906  25.368  0.00  0.00     0.035 C 
HETATM    3  C   UNL     1      -1.731  11.192  24.412  0.00  0.00     0.083 C 
HETATM    4  C   UNL     1      -1.475  11.897  23.229  0.00  0.00     0.069 C 
HETATM    5  C   UNL     1      -0.317  12.663  23.186  0.00  0.00     0.065 A 
HETATM    6  C   UNL     1       0.578  12.741  24.245  0.00  0.00     0.020 A 
HETATM    7  N   UNL     1       0.164  13.511  22.229  0.00  0.00    -0.277 N 
HETATM    8  H   UNL     1      -0.228  13.691  21.312  0.00  0.00     0.189 HD
HETATM    9  N   UNL     1       1.208  14.246  22.629  0.00  0.00    -0.178 NA
HETATM   10  C   UNL     1       1.466  13.800  23.871  0.00  0.00     0.071 A 
ENDROOT
BRANCH   1  11
HETATM   11  C   UNL     1      -0.952  10.283  26.720  0.00  0.00     0.256 C 
HETATM   12  N   UNL     1      -0.434   8.992  26.924  0.00  0.00    -0.348 N 
HETATM   13  C   UNL     1      -0.399   8.528  28.308  0.00  0.00     0.153 C 
HETATM   14  O   UNL     1      -1.509  10.871  27.658  0.00  0.00    -0.267 OA
BRANCH  12  15
HETATM   15  C   UNL     1       0.183   8.097  25.947  0.00  0.00     0.164 C 
BRANCH  15  16
HETATM   16  C   UNL     1       1.506   8.577  25.346  0.00  0.00    -0.040 A 
HETATM   17  C   UNL     1       1.766   8.263  24.002  0.00  0.00     0.010 A 
HETATM   18  C   UNL     1       3.039   8.441  23.456  0.00  0.00     0.024 A 
HETATM   19  C   UNL     1       4.066   8.949  24.249  0.00  0.00     0.034 A 
HETATM   20 CL   UNL     1       5.665   9.041  23.617  0.00  0.00    -0.084 Cl
HETATM   21  C   UNL     1       3.816   9.343  25.561  0.00  0.00     0.024 A 
HETATM   22  C   UNL     1       2.538   9.168  26.107  0.00  0.00     0.010 A 
ENDBRANCH  15  16
ENDBRANCH  12  15
ENDBRANCH   1  11
BRANCH   3  23
HETATM   23  O   UNL     1      -3.000  10.707  24.483  0.00  0.00    -0.360 OA
HETATM   24  H   UNL     1      -3.173  10.260  23.633  0.00  0.00     0.217 HD
ENDBRANCH   3  23
BRANCH  10  25
HETATM   25  C   UNL     1       2.412  14.566  24.737  0.00  0.00     0.100 C 
BRANCH  25  26
HETATM   26  C   UNL     1       3.827  14.258  24.329  0.00  0.00    -0.052 A 
HETATM   27  C   UNL     1       4.838  15.225  24.458  0.00  0.00     0.007 A 
HETATM   28  C   UNL     1       6.172  14.895  24.211  0.00  0.00     0.001 A 
HETATM   29  C   UNL     1       6.509  13.601  23.821  0.00  0.00     0.000 A 
HETATM   30  C   UNL     1       5.511  12.641  23.655  0.00  0.00     0.001 A 
HETATM   31  C   UNL     1       4.177  12.967  23.905  0.00  0.00     0.007 A 
ENDBRANCH  25  26
ENDBRANCH  10  25
TORSDOF 6
ENDMDL
MODEL 2
REMARK VINA RESULT:    -9.921      3.627      5.636
REMARK INTER + INTRA:         -14.841
REMARK INTER:                 -13.379
REMARK INTRA:                  -1.462
REMARK UNBOUND:                -1.730
REMARK  6 active torsions:
REMARK  status: ('A' for Active; 'I' for Inactive)
REMARK    1  A    between atoms: C_7  and  C_8 
REMARK    2  A    between atoms: C_8  and  N_9 
REMARK       I    between atoms: N_9  and  C_11 
REMARK    3  A    between atoms: C_11  and  C_13 
REMARK    4  A    between atoms: C_15  and  O_16 
REMARK    5  A    between atoms: C_23  and  C_24 
REMARK    6  A    between atoms: C_24  and  C_25 
ROOT
HETATM    1  C   UNL     1       4.366   9.561  23.632  0.00  0.00     0.066 C 
HETATM    2  C   UNL     1       4.979  10.384  24.620  0.00  0.00     0.035 C 
HETATM    3  C   UNL     1       4.995   9.494  22.388  0.00  0.00     0.083 C 
HETATM    4  C   UNL     1       6.267  10.027  22.143  0.00  0.00     0.069 C 
HETATM    5  C   UNL     1       6.832  10.804  23.147  0.00  0.00     0.065 A 
HETATM    6  C   UNL     1       6.199  11.053  24.356  0.00  0.00     0.020 A 
HETATM    7  N   UNL     1       7.997  11.516  23.182  0.00  0.00    -0.277 N 
HETATM    8  H   UNL     1       8.718  11.553  22.471  0.00  0.00     0.189 HD
HETATM    9  N   UNL     1       8.109  12.323  24.243  0.00  0.00    -0.178 NA
HETATM   10  C   UNL     1       7.005  12.067  24.968  0.00  0.00     0.071 A 
ENDROOT
BRANCH   1  11
HETATM   11  C   UNL     1       3.045   8.944  24.018  0.00  0.00     0.256 C 
HETATM   12  N   UNL     1       1.920   9.654  24.474  0.00  0.00    -0.348 N 
HETATM   13  C   UNL     1       0.659   8.919  24.479  0.00  0.00     0.153 C 
HETATM   14  O   UNL     1       2.960   7.722  23.830  0.00  0.00    -0.267 OA
BRANCH  12  15
HETATM   15  C   UNL     1       1.825  11.068  24.832  0.00  0.00     0.164 C 
BRANCH  15  16
HETATM   16  C   UNL     1       0.888  11.914  23.966  0.00  0.00    -0.040 A 
HETATM   17  C   UNL     1      -0.490  11.831  24.221  0.00  0.00     0.010 A 
HETATM   18  C   UNL     1      -1.419  12.368  23.326  0.00  0.00     0.024 A 
HETATM   19  C   UNL     1      -0.975  13.006  22.170  0.00  0.00     0.034 A 
HETATM   20 CL   UNL     1      -2.120  13.547  21.003  0.00  0.00    -0.084 Cl
HETATM   21  C   UNL     1       0.387  13.171  21.933  0.00  0.00     0.024 A 
HETATM   22  C   UNL     1       1.318  12.637  22.832  0.00  0.00     0.010 A 
ENDBRANCH  15  16
ENDBRANCH  12  15
ENDBRANCH   1  11
BRANCH   3  23
HETATM   23  O   UNL     1       4.398   8.996  21.271  0.00  0.00    -0.360 OA
HETATM   24  H   UNL     1       3.974   8.158  21.534  0.00  0.00     0.217 HD
ENDBRANCH   3  23
BRANCH  10  25
HETATM   25  C   UNL     1       6.655  12.970  26.104  0.00  0.00     0.100 C 
BRANCH  25  26
HETATM   26  C   UNL     1       5.595  13.944  25.663  0.00  0.00    -0.052 A 
HETATM   27  C   UNL     1       5.932  15.072  24.897  0.00  0.00     0.007 A 
HETATM   28  C   UNL     1       4.937  15.898  24.371  0.00  0.00     0.001 A 
HETATM   29  C   UNL     1       3.595  15.612  24.616  0.00  0.00     0.000 A 
HETATM   30  C   UNL     1       3.248  14.515  25.403  0.00  0.00     0.001 A 
HETATM   31  C   UNL     1       4.242  13.686  25.926  0.00  0.00     0.007 A 
ENDBRANCH  25  26
ENDBRANCH  10  25
TORSDOF 6
ENDMDL
MODEL 3
REMARK VINA RESULT:    -9.624      3.229      6.157
REMARK INTER + INTRA:         -14.449
REMARK INTER:                 -12.519
REMARK INTRA:                  -1.929
REMARK UNBOUND:                -1.730
REMARK  6 active torsions:
REMARK  status: ('A' for Active; 'I' for Inactive)
REMARK    1  A    between atoms: C_7  and  C_8 
REMARK    2  A    between atoms: C_8  and  N_9 
REMARK       I    between atoms: N_9  and  C_11 
REMARK    3  A    between atoms: C_11  and  C_13 
REMARK    4  A    between atoms: C_15  and  O_16 
REMARK    5  A    between atoms: C_23  and  C_24 
REMARK    6  A    between atoms: C_24  and  C_25 
ROOT
HETATM    1  C   UNL     1       3.284   8.608  23.468  0.00  0.00     0.066 C 
HETATM    2  C   UNL     1       2.313   9.628  23.683  0.00  0.00     0.035 C 
HETATM    3  C   UNL     1       3.035   7.366  24.054  0.00  0.00     0.083 C 
HETATM    4  C   UNL     1       1.815   7.035  24.659  0.00  0.00     0.069 C 
HETATM    5  C   UNL     1       0.893   8.061  24.826  0.00  0.00     0.065 A 
HETATM    6  C   UNL     1       1.129   9.365  24.414  0.00  0.00     0.020 A 
HETATM    7  N   UNL     1      -0.327   8.080  25.441  0.00  0.00    -0.277 N 
HETATM    8  H   UNL     1      -0.824   7.296  25.847  0.00  0.00     0.189 HD
HETATM    9  N   UNL     1      -0.838   9.305  25.597  0.00  0.00    -0.178 NA
HETATM   10  C   UNL     1       0.050  10.112  24.989  0.00  0.00     0.071 A 
ENDROOT
BRANCH   1  11
HETATM   11  C   UNL     1       4.523   9.027  22.718  0.00  0.00     0.256 C 
HETATM   12  N   UNL     1       5.646   9.649  23.291  0.00  0.00    -0.348 N 
HETATM   13  C   UNL     1       6.852   9.673  22.469  0.00  0.00     0.153 C 
HETATM   14  O   UNL     1       4.546   8.711  21.520  0.00  0.00    -0.267 OA
BRANCH  12  15
HETATM   15  C   UNL     1       5.801  10.170  24.648  0.00  0.00     0.164 C 
BRANCH  15  16
HETATM   16  C   UNL     1       5.590  11.677  24.811  0.00  0.00    -0.040 A 
HETATM   17  C   UNL     1       4.319  12.120  25.212  0.00  0.00     0.010 A 
HETATM   18  C   UNL     1       3.975  13.472  25.142  0.00  0.00     0.024 A 
HETATM   19  C   UNL     1       4.907  14.399  24.681  0.00  0.00     0.034 A 
HETATM   20 CL   UNL     1       4.439  16.042  24.467  0.00  0.00    -0.084 Cl
HETATM   21  C   UNL     1       6.199  13.998  24.353  0.00  0.00     0.024 A 
HETATM   22  C   UNL     1       6.546  12.643  24.427  0.00  0.00     0.010 A 
ENDBRANCH  15  16
ENDBRANCH  12  15
ENDBRANCH   1  11
BRANCH   3  23
HETATM   23  O   UNL     1       3.978   6.394  24.184  0.00  0.00    -0.360 OA
HETATM   24  H   UNL     1       3.521   5.612  24.547  0.00  0.00     0.217 HD
ENDBRANCH   3  23
BRANCH  10  25
HETATM   25  C   UNL     1      -0.055  11.589  25.181  0.00  0.00     0.100 C 
BRANCH  25  26
HETATM   26  C   UNL     1      -0.410  12.240  23.871  0.00  0.00    -0.052 A 
HETATM   27  C   UNL     1       0.587  12.796  23.052  0.00  0.00     0.007 A 
HETATM   28  C   UNL     1       0.275  13.275  21.778  0.00  0.00     0.001 A 
HETATM   29  C   UNL     1      -1.038  13.215  21.314  0.00  0.00     0.000 A 
HETATM   30  C   UNL     1      -2.042  12.698  22.131  0.00  0.00     0.001 A 
HETATM   31  C   UNL     1      -1.732  12.216  23.403  0.00  0.00     0.007 A 
ENDBRANCH  25  26
ENDBRANCH  10  25
TORSDOF 6
ENDMDL
MODEL 4
REMARK VINA RESULT:    -9.509      3.334      5.074
REMARK INTER + INTRA:         -14.297
REMARK INTER:                 -12.888
REMARK INTRA:                  -1.409
REMARK UNBOUND:                -1.730
REMARK  6 active torsions:
REMARK  status: ('A' for Active; 'I' for Inactive)
REMARK    1  A    between atoms: C_7  and  C_8 
REMARK    2  A    between atoms: C_8  and  N_9 
REMARK       I    between atoms: N_9  and  C_11 
REMARK    3  A    between atoms: C_11  and  C_13 
REMARK    4  A    between atoms: C_15  and  O_16 
REMARK    5  A    between atoms: C_23  and  C_24 
REMARK    6  A    between atoms: C_24  and  C_25 
ROOT
HETATM    1  C   UNL     1       3.494  10.849  23.757  0.00  0.00     0.066 C 
HETATM    2  C   UNL     1       4.383  11.933  24.007  0.00  0.00     0.035 C 
HETATM    3  C   UNL     1       4.065   9.648  23.334  0.00  0.00     0.083 C 
HETATM    4  C   UNL     1       5.446   9.414  23.335  0.00  0.00     0.069 C 
HETATM    5  C   UNL     1       6.272  10.499  23.606  0.00  0.00     0.065 A 
HETATM    6  C   UNL     1       5.785  11.769  23.881  0.00  0.00     0.020 A 
HETATM    7  N   UNL     1       7.633  10.615  23.603  0.00  0.00    -0.277 N 
HETATM    8  H   UNL     1       8.313   9.878  23.455  0.00  0.00     0.189 HD
HETATM    9  N   UNL     1       8.072  11.874  23.702  0.00  0.00    -0.178 NA
HETATM   10  C   UNL     1       6.951  12.601  23.855  0.00  0.00     0.071 A 
ENDROOT
BRANCH   1  11
HETATM   11  C   UNL     1       2.024  11.164  23.877  0.00  0.00     0.256 C 
HETATM   12  N   UNL     1       1.194  10.770  24.942  0.00  0.00    -0.348 N 
HETATM   13  C   UNL     1      -0.097  11.445  25.030  0.00  0.00     0.153 C 
HETATM   14  O   UNL     1       1.567  11.896  22.988  0.00  0.00    -0.267 OA
BRANCH  12  15
HETATM   15  C   UNL     1       1.502   9.857  26.041  0.00  0.00     0.164 C 
BRANCH  15  16
HETATM   16  C   UNL     1       0.756   8.521  26.027  0.00  0.00    -0.040 A 
HETATM   17  C   UNL     1       0.042   8.159  27.181  0.00  0.00     0.010 A 
HETATM   18  C   UNL     1      -0.451   6.863  27.343  0.00  0.00     0.024 A 
HETATM   19  C   UNL     1      -0.245   5.915  26.343  0.00  0.00     0.034 A 
HETATM   20 CL   UNL     1      -0.734   4.284  26.601  0.00  0.00    -0.084 Cl
HETATM   21  C   UNL     1       0.390   6.268  25.155  0.00  0.00     0.024 A 
HETATM   22  C   UNL     1       0.881   7.570  24.991  0.00  0.00     0.010 A 
ENDBRANCH  15  16
ENDBRANCH  12  15
ENDBRANCH   1  11
BRANCH   3  23
HETATM   23  O   UNL     1       3.350   8.628  22.787  0.00  0.00    -0.360 OA
HETATM   24  H   UNL     1       3.709   7.804  23.166  0.00  0.00     0.217 HD
ENDBRANCH   3  23
BRANCH  10  25
HETATM   25  C   UNL     1       7.026  14.088  23.743  0.00  0.00     0.100 C 
BRANCH  25  26
HETATM   26  C   UNL     1       6.098  14.715  24.750  0.00  0.00    -0.052 A 
HETATM   27  C   UNL     1       5.017  15.509  24.333  0.00  0.00     0.007 A 
HETATM   28  C   UNL     1       4.079  15.973  25.256  0.00  0.00     0.001 A 
HETATM   29  C   UNL     1       4.218  15.661  26.607  0.00  0.00     0.000 A 
HETATM   30  C   UNL     1       5.305  14.902  27.038  0.00  0.00     0.001 A 
HETATM   31  C   UNL     1       6.242  14.434  26.116  0.00  0.00     0.007 A 
ENDBRANCH  25  26
ENDBRANCH  10  25
TORSDOF 6
ENDMDL
MODEL 5
REMARK VINA RESULT:    -9.421      3.863      5.937
REMARK INTER + INTRA:         -14.180
REMARK INTER:                 -13.011
REMARK INTRA:                  -1.169
REMARK UNBOUND:                -1.730
REMARK  6 active torsions:
REMARK  status: ('A' for Active; 'I' for Inactive)
REMARK    1  A    between atoms: C_7  and  C_8 
REMARK    2  A    between atoms: C_8  and  N_9 
REMARK       I    between atoms: N_9  and  C_11 
REMARK    3  A    between atoms: C_11  and  C_13 
REMARK    4  A    between atoms: C_15  and  O_16 
REMARK    5  A    between atoms: C_23  and  C_24 
REMARK    6  A    between atoms: C_24  and  C_25 
ROOT
HETATM    1  C   UNL     1       5.063   8.658  24.248  0.00  0.00     0.066 C 
HETATM    2  C   UNL     1       5.165  10.075  24.141  0.00  0.00     0.035 C 
HETATM    3  C   UNL     1       6.258   7.945  24.351  0.00  0.00     0.083 C 
HETATM    4  C   UNL     1       7.502   8.559  24.545  0.00  0.00     0.069 C 
HETATM    5  C   UNL     1       7.546   9.945  24.452  0.00  0.00     0.065 A 
HETATM    6  C   UNL     1       6.425  10.721  24.192  0.00  0.00     0.020 A 
HETATM    7  N   UNL     1       8.596  10.816  24.509  0.00  0.00    -0.277 N 
HETATM    8  H   UNL     1       9.567  10.599  24.701  0.00  0.00     0.189 HD
HETATM    9  N   UNL     1       8.283  12.069  24.162  0.00  0.00    -0.178 NA
HETATM   10  C   UNL     1       6.956  12.028  23.946  0.00  0.00     0.071 A 
ENDROOT
BRANCH   1  11
HETATM   11  C   UNL     1       3.672   8.089  24.129  0.00  0.00     0.256 C 
HETATM   12  N   UNL     1       2.493   8.737  24.538  0.00  0.00    -0.348 N 
HETATM   13  C   UNL     1       1.245   8.165  24.042  0.00  0.00     0.153 C 
HETATM   14  O   UNL     1       3.598   6.996  23.550  0.00  0.00    -0.267 OA
BRANCH  12  15
HETATM   15  C   UNL     1       2.357   9.978  25.298  0.00  0.00     0.164 C 
BRANCH  15  16
HETATM   16  C   UNL     1       1.258  10.932  24.825  0.00  0.00    -0.040 A 
HETATM   17  C   UNL     1      -0.015  10.802  25.405  0.00  0.00     0.010 A 
HETATM   18  C   UNL     1      -1.122  11.455  24.859  0.00  0.00     0.024 A 
HETATM   19  C   UNL     1      -0.965  12.257  23.732  0.00  0.00     0.034 A 
HETATM   20 CL   UNL     1      -2.350  12.951  22.980  0.00  0.00    -0.084 Cl
HETATM   21  C   UNL     1       0.298  12.466  23.184  0.00  0.00     0.024 A 
HETATM   22  C   UNL     1       1.409  11.815  23.734  0.00  0.00     0.010 A 
ENDBRANCH  15  16
ENDBRANCH  12  15
ENDBRANCH   1  11
BRANCH   3  23
HETATM   23  O   UNL     1       6.348   6.599  24.174  0.00  0.00    -0.360 OA
HETATM   24  H   UNL     1       5.835   6.391  23.370  0.00  0.00     0.217 HD
ENDBRANCH   3  23
BRANCH  10  25
HETATM   25  C   UNL     1       6.288  13.192  23.291  0.00  0.00     0.100 C 
BRANCH  25  26
HETATM   26  C   UNL     1       5.435  13.914  24.300  0.00  0.00    -0.052 A 
HETATM   27  C   UNL     1       6.009  14.481  25.450  0.00  0.00     0.007 A 
HETATM   28  C   UNL     1       5.242  15.267  26.312  0.00  0.00     0.001 A 
HETATM   29  C   UNL     1       3.893  15.484  26.041  0.00  0.00     0.000 A 
HETATM   30  C   UNL     1       3.304  14.899  24.922  0.00  0.00     0.001 A 
HETATM   31  C   UNL     1       4.069  14.116  24.056  0.00  0.00     0.007 A 
ENDBRANCH  25  26
ENDBRANCH  10  25
TORSDOF 6
ENDMDL
MODEL 6
REMARK VINA RESULT:    -9.382      3.576      6.294
REMARK INTER + INTRA:         -14.129
REMARK INTER:                 -12.399
REMARK INTRA:                  -1.730
REMARK UNBOUND:                -1.730
REMARK  6 active torsions:
REMARK  status: ('A' for Active; 'I' for Inactive)
REMARK    1  A    between atoms: C_7  and  C_8 
REMARK    2  A    between atoms: C_8  and  N_9 
REMARK       I    between atoms: N_9  and  C_11 
REMARK    3  A    between atoms: C_11  and  C_13 
REMARK    4  A    between atoms: C_15  and  O_16 
REMARK    5  A    between atoms: C_23  and  C_24 
REMARK    6  A    between atoms: C_24  and  C_25 
ROOT
HETATM    1  C   UNL     1       6.272  12.987  23.989  0.00  0.00     0.066 C 
HETATM    2  C   UNL     1       4.908  12.630  23.786  0.00  0.00     0.035 C 
HETATM    3  C   UNL     1       6.537  14.321  24.301  0.00  0.00     0.083 C 
HETATM    4  C   UNL     1       5.534  15.250  24.606  0.00  0.00     0.069 C 
HETATM    5  C   UNL     1       4.218  14.847  24.412  0.00  0.00     0.065 A 
HETATM    6  C   UNL     1       3.874  13.585  23.950  0.00  0.00     0.020 A 
HETATM    7  N   UNL     1       3.042  15.531  24.537  0.00  0.00    -0.277 N 
HETATM    8  H   UNL     1       2.914  16.480  24.869  0.00  0.00     0.189 HD
HETATM    9  N   UNL     1       1.979  14.878  24.056  0.00  0.00    -0.178 NA
HETATM   10  C   UNL     1       2.472  13.686  23.673  0.00  0.00     0.071 A 
ENDROOT
BRANCH   1  11
HETATM   11  C   UNL     1       7.281  11.895  23.736  0.00  0.00     0.256 C 
HETATM   12  N   UNL     1       7.067  10.765  22.926  0.00  0.00    -0.348 N 
HETATM   13  C   UNL     1       8.260  10.011  22.553  0.00  0.00     0.153 C 
HETATM   14  O   UNL     1       8.399  12.083  24.236  0.00  0.00    -0.267 OA
BRANCH  12  15
HETATM   15  C   UNL     1       5.821  10.314  22.310  0.00  0.00     0.164 C 
BRANCH  15  16
HETATM   16  C   UNL     1       5.092   9.179  23.033  0.00  0.00    -0.040 A 
HETATM   17  C   UNL     1       4.322   8.297  22.257  0.00  0.00     0.010 A 
HETATM   18  C   UNL     1       3.436   7.400  22.857  0.00  0.00     0.024 A 
HETATM   19  C   UNL     1       3.321   7.367  24.245  0.00  0.00     0.034 A 
HETATM   20 CL   UNL     1       2.132   6.358  24.977  0.00  0.00    -0.084 Cl
HETATM   21  C   UNL     1       4.129   8.174  25.041  0.00  0.00     0.024 A 
HETATM   22  C   UNL     1       5.021   9.071  24.439  0.00  0.00     0.010 A 
ENDBRANCH  15  16
ENDBRANCH  12  15
ENDBRANCH   1  11
BRANCH   3  23
HETATM   23  O   UNL     1       7.778  14.874  24.242  0.00  0.00    -0.360 OA
HETATM   24  H   UNL     1       8.405  14.176  24.510  0.00  0.00     0.217 HD
ENDBRANCH   3  23
BRANCH  10  25
HETATM   25  C   UNL     1       1.622  12.777  22.849  0.00  0.00     0.100 C 
BRANCH  25  26
HETATM   26  C   UNL     1       0.838  11.865  23.754  0.00  0.00    -0.052 A 
HETATM   27  C   UNL     1      -0.531  12.082  23.982  0.00  0.00     0.007 A 
HETATM   28  C   UNL     1      -1.286  11.160  24.708  0.00  0.00     0.001 A 
HETATM   29  C   UNL     1      -0.680  10.017  25.225  0.00  0.00     0.000 A 
HETATM   30  C   UNL     1       0.685   9.806  25.035  0.00  0.00     0.001 A 
HETATM   31  C   UNL     1       1.442  10.726  24.307  0.00  0.00     0.007 A 
ENDBRANCH  25  26
ENDBRANCH  10  25
TORSDOF 6
ENDMDL
MODEL 7
REMARK VINA RESULT:    -9.382      3.633      6.975
REMARK INTER + INTRA:         -14.129
REMARK INTER:                 -12.766
REMARK INTRA:                  -1.363
REMARK UNBOUND:                -1.730
REMARK  6 active torsions:
REMARK  status: ('A' for Active; 'I' for Inactive)
REMARK    1  A    between atoms: C_7  and  C_8 
REMARK    2  A    between atoms: C_8  and  N_9 
REMARK       I    between atoms: N_9  and  C_11 
REMARK    3  A    between atoms: C_11  and  C_13 
REMARK    4  A    between atoms: C_15  and  O_16 
REMARK    5  A    between atoms: C_23  and  C_24 
REMARK    6  A    between atoms: C_24  and  C_25 
ROOT
HETATM    1  C   UNL     1       5.439   8.536  23.833  0.00  0.00     0.066 C 
HETATM    2  C   UNL     1       4.258   9.252  24.183  0.00  0.00     0.035 C 
HETATM    3  C   UNL     1       5.271   7.242  23.339  0.00  0.00     0.083 C 
HETATM    4  C   UNL     1       4.021   6.709  22.998  0.00  0.00     0.069 C 
HETATM    5  C   UNL     1       2.900   7.455  23.340  0.00  0.00     0.065 A 
HETATM    6  C   UNL     1       2.976   8.684  23.981  0.00  0.00     0.020 A 
HETATM    7  N   UNL     1       1.567   7.179  23.222  0.00  0.00    -0.277 N 
HETATM    8  H   UNL     1       1.143   6.369  22.785  0.00  0.00     0.189 HD
HETATM    9  N   UNL     1       0.774   8.046  23.860  0.00  0.00    -0.178 NA
HETATM   10  C   UNL     1       1.622   8.969  24.348  0.00  0.00     0.071 A 
ENDROOT
BRANCH   1  11
HETATM   11  C   UNL     1       6.743   9.229  24.143  0.00  0.00     0.256 C 
HETATM   12  N   UNL     1       7.102  10.515  23.703  0.00  0.00    -0.348 N 
HETATM   13  C   UNL     1       8.247  11.123  24.373  0.00  0.00     0.153 C 
HETATM   14  O   UNL     1       7.496   8.615  24.912  0.00  0.00    -0.267 OA
BRANCH  12  15
HETATM   15  C   UNL     1       6.408  11.372  22.744  0.00  0.00     0.164 C 
BRANCH  15  16
HETATM   16  C   UNL     1       5.743  12.622  23.325  0.00  0.00    -0.040 A 
HETATM   17  C   UNL     1       6.573  13.698  23.681  0.00  0.00     0.010 A 
HETATM   18  C   UNL     1       6.081  14.762  24.441  0.00  0.00     0.024 A 
HETATM   19  C   UNL     1       4.748  14.766  24.842  0.00  0.00     0.034 A 
HETATM   20 CL   UNL     1       4.178  16.008  25.891  0.00  0.00    -0.084 Cl
HETATM   21  C   UNL     1       3.884  13.752  24.436  0.00  0.00     0.024 A 
HETATM   22  C   UNL     1       4.376  12.687  23.671  0.00  0.00     0.010 A 
ENDBRANCH  15  16
ENDBRANCH  12  15
ENDBRANCH   1  11
BRANCH   3  23
HETATM   23  O   UNL     1       6.284   6.341  23.234  0.00  0.00    -0.360 OA
HETATM   24  H   UNL     1       6.985   6.640  23.842  0.00  0.00     0.217 HD
ENDBRANCH   3  23
BRANCH  10  25
HETATM   25  C   UNL     1       1.121   9.965  25.342  0.00  0.00     0.100 C 
BRANCH  25  26
HETATM   26  C   UNL     1       0.194  10.934  24.658  0.00  0.00    -0.052 A 
HETATM   27  C   UNL     1       0.698  11.922  23.796  0.00  0.00     0.007 A 
HETATM   28  C   UNL     1      -0.169  12.728  23.056  0.00  0.00     0.001 A 
HETATM   29  C   UNL     1      -1.546  12.565  23.178  0.00  0.00     0.000 A 
HETATM   30  C   UNL     1      -2.060  11.611  24.056  0.00  0.00     0.001 A 
HETATM   31  C   UNL     1      -1.196  10.802  24.794  0.00  0.00     0.007 A 
ENDBRANCH  25  26
ENDBRANCH  10  25
TORSDOF 6
ENDMDL
MODEL 8
REMARK VINA RESULT:    -9.272      3.089      6.068
REMARK INTER + INTRA:         -13.983
REMARK INTER:                 -11.308
REMARK INTRA:                  -2.675
REMARK UNBOUND:                -1.730
REMARK  6 active torsions:
REMARK  status: ('A' for Active; 'I' for Inactive)
REMARK    1  A    between atoms: C_7  and  C_8 
REMARK    2  A    between atoms: C_8  and  N_9 
REMARK       I    between atoms: N_9  and  C_11 
REMARK    3  A    between atoms: C_11  and  C_13 
REMARK    4  A    between atoms: C_15  and  O_16 
REMARK    5  A    between atoms: C_23  and  C_24 
REMARK    6  A    between atoms: C_24  and  C_25 
ROOT
HETATM    1  C   UNL     1       4.883  13.519  25.277  0.00  0.00     0.066 C 
HETATM    2  C   UNL     1       3.956  12.438  25.238  0.00  0.00     0.035 C 
HETATM    3  C   UNL     1       4.471  14.726  24.712  0.00  0.00     0.083 C 
HETATM    4  C   UNL     1       3.155  14.968  24.298  0.00  0.00     0.069 C 
HETATM    5  C   UNL     1       2.282  13.887  24.299  0.00  0.00     0.065 A 
HETATM    6  C   UNL     1       2.658  12.612  24.696  0.00  0.00     0.020 A 
HETATM    7  N   UNL     1       0.985  13.780  23.884  0.00  0.00    -0.277 N 
HETATM    8  H   UNL     1       0.384  14.522  23.544  0.00  0.00     0.189 HD
HETATM    9  N   UNL     1       0.531  12.523  23.835  0.00  0.00    -0.178 NA
HETATM   10  C   UNL     1       1.551  11.788  24.313  0.00  0.00     0.071 A 
ENDROOT
BRANCH   1  11
HETATM   11  C   UNL     1       6.247  13.193  25.832  0.00  0.00     0.256 C 
HETATM   12  N   UNL     1       7.307  12.627  25.102  0.00  0.00    -0.348 N 
HETATM   13  C   UNL     1       8.623  12.696  25.728  0.00  0.00     0.153 C 
HETATM   14  O   UNL     1       6.434  13.538  27.008  0.00  0.00    -0.267 OA
BRANCH  12  15
HETATM   15  C   UNL     1       7.284  12.084  23.745  0.00  0.00     0.164 C 
BRANCH  15  16
HETATM   16  C   UNL     1       6.538  10.760  23.569  0.00  0.00    -0.040 A 
HETATM   17  C   UNL     1       5.703  10.624  22.448  0.00  0.00     0.010 A 
HETATM   18  C   UNL     1       4.804   9.559  22.348  0.00  0.00     0.024 A 
HETATM   19  C   UNL     1       4.742   8.610  23.365  0.00  0.00     0.034 A 
HETATM   20 CL   UNL     1       3.542   7.376  23.305  0.00  0.00    -0.084 Cl
HETATM   21  C   UNL     1       5.614   8.677  24.449  0.00  0.00     0.024 A 
HETATM   22  C   UNL     1       6.517   9.742  24.547  0.00  0.00     0.010 A 
ENDBRANCH  15  16
ENDBRANCH  12  15
ENDBRANCH   1  11
BRANCH   3  23
HETATM   23  O   UNL     1       5.322  15.745  24.415  0.00  0.00    -0.360 OA
HETATM   24  H   UNL     1       5.182  15.957  23.473  0.00  0.00     0.217 HD
ENDBRANCH   3  23
BRANCH  10  25
HETATM   25  C   UNL     1       1.507  10.302  24.171  0.00  0.00     0.100 C 
BRANCH  25  26
HETATM   26  C   UNL     1       1.340   9.673  25.528  0.00  0.00    -0.052 A 
HETATM   27  C   UNL     1       0.064   9.516  26.095  0.00  0.00     0.007 A 
HETATM   28  C   UNL     1      -0.101   8.810  27.288  0.00  0.00     0.001 A 
HETATM   29  C   UNL     1       1.006   8.264  27.933  0.00  0.00     0.000 A 
HETATM   30  C   UNL     1       2.281   8.441  27.399  0.00  0.00     0.001 A 
HETATM   31  C   UNL     1       2.449   9.144  26.205  0.00  0.00     0.007 A 
ENDBRANCH  25  26
ENDBRANCH  10  25
TORSDOF 6
ENDMDL
MODEL 9
REMARK VINA RESULT:    -9.239      3.379      5.851
REMARK INTER + INTRA:         -13.939
REMARK INTER:                 -11.609
REMARK INTRA:                  -2.330
REMARK UNBOUND:                -1.730
REMARK  6 active torsions:
REMARK  status: ('A' for Active; 'I' for Inactive)
REMARK    1  A    between atoms: C_7  and  C_8 
REMARK    2  A    between atoms: C_8  and  N_9 
REMARK       I    between atoms: N_9  and  C_11 
REMARK    3  A    between atoms: C_11  and  C_13 
REMARK    4  A    between atoms: C_15  and  O_16 
REMARK    5  A    between atoms: C_23  and  C_24 
REMARK    6  A    between atoms: C_24  and  C_25 
ROOT
HETATM    1  C   UNL     1       4.798  10.565  23.233  0.00  0.00     0.066 C 
HETATM    2  C   UNL     1       3.597  11.330  23.290  0.00  0.00     0.035 C 
HETATM    3  C   UNL     1       5.887  11.043  23.962  0.00  0.00     0.083 C 
HETATM    4  C   UNL     1       5.792  12.101  24.876  0.00  0.00     0.069 C 
HETATM    5  C   UNL     1       4.593  12.803  24.910  0.00  0.00     0.065 A 
HETATM    6  C   UNL     1       3.511  12.490  24.098  0.00  0.00     0.020 A 
HETATM    7  N   UNL     1       4.221  13.912  25.615  0.00  0.00    -0.277 N 
HETATM    8  H   UNL     1       4.760  14.404  26.318  0.00  0.00     0.189 HD
HETATM    9  N   UNL     1       3.053  14.436  25.228  0.00  0.00    -0.178 NA
HETATM   10  C   UNL     1       2.609  13.587  24.284  0.00  0.00     0.071 A 
ENDROOT
BRANCH   1  11
HETATM   11  C   UNL     1       4.779   9.381  22.299  0.00  0.00     0.256 C 
HETATM   12  N   UNL     1       4.448   8.065  22.665  0.00  0.00    -0.348 N 
HETATM   13  C   UNL     1       4.174   7.145  21.565  0.00  0.00     0.153 C 
HETATM   14  O   UNL     1       5.001   9.645  21.109  0.00  0.00    -0.267 OA
BRANCH  12  15
HETATM   15  C   UNL     1       4.228   7.524  24.005  0.00  0.00     0.164 C 
BRANCH  15  16
HETATM   16  C   UNL     1       2.966   8.012  24.722  0.00  0.00    -0.040 A 
HETATM   17  C   UNL     1       3.122   8.615  25.980  0.00  0.00     0.010 A 
HETATM   18  C   UNL     1       2.018   8.857  26.801  0.00  0.00     0.024 A 
HETATM   19  C   UNL     1       0.743   8.506  26.365  0.00  0.00     0.034 A 
HETATM   20 CL   UNL     1      -0.599   8.678  27.431  0.00  0.00    -0.084 Cl
HETATM   21  C   UNL     1       0.552   7.979  25.091  0.00  0.00     0.024 A 
HETATM   22  C   UNL     1       1.658   7.741  24.265  0.00  0.00     0.010 A 
ENDBRANCH  15  16
ENDBRANCH  12  15
ENDBRANCH   1  11
BRANCH   3  23
HETATM   23  O   UNL     1       7.161  10.600  23.788  0.00  0.00    -0.360 OA
HETATM   24  H   UNL     1       7.367  10.037  24.557  0.00  0.00     0.217 HD
ENDBRANCH   3  23
BRANCH  10  25
HETATM   25  C   UNL     1       1.446  13.985  23.436  0.00  0.00     0.100 C 
BRANCH  25  26
HETATM   26  C   UNL     1       0.311  13.021  23.658  0.00  0.00    -0.052 A 
HETATM   27  C   UNL     1       0.244  12.249  24.829  0.00  0.00     0.007 A 
HETATM   28  C   UNL     1      -0.877  11.461  25.097  0.00  0.00     0.001 A 
HETATM   29  C   UNL     1      -1.936  11.425  24.193  0.00  0.00     0.000 A 
HETATM   30  C   UNL     1      -1.866  12.160  23.010  0.00  0.00     0.001 A 
HETATM   31  C   UNL     1      -0.748  12.951  22.741  0.00  0.00     0.007 A 
ENDBRANCH  25  26
ENDBRANCH  10  25
TORSDOF 6
ENDMDL
