MODEL 1
REMARK VINA RESULT:    -6.771      0.000      0.000
REMARK INTER + INTRA:          -9.668
REMARK INTER:                  -8.273
REMARK INTRA:                  -1.394
REMARK UNBOUND:                -1.314
REMARK  5 active torsions:
REMARK  status: ('A' for Active; 'I' for Inactive)
REMARK    1  A    between atoms: C_3  and  O_4 
REMARK    2  A    between atoms: C_6  and  O_7 
REMARK    3  A    between atoms: C_8  and  C_9 
REMARK    4  A    between atoms: C_15  and  C_16 
REMARK    5  A    between atoms: C_19  and  O_22 
ROOT
HETATM    1  C   UNL     1      -3.802  14.239  22.960  0.00  0.00     0.099 A 
HETATM    2  N   UNL     1      -5.044  14.583  22.570  0.00  0.00    -0.173 NA
HETATM    3  N   UNL     1      -4.892  15.230  21.418  0.00  0.00    -0.281 N 
HETATM    4  H   UNL     1      -5.720  15.633  20.986  0.00  0.00     0.189 HD
HETATM    5  C   UNL     1      -3.615  15.241  20.960  0.00  0.00     0.033 A 
HETATM    6  C   UNL     1      -3.236  15.829  19.652  0.00  0.00     0.070 C 
HETATM    7  C   UNL     1      -2.848  14.636  21.948  0.00  0.00     0.008 A 
ENDROOT
BRANCH   1   8
HETATM    8  C   UNL     1      -3.617  13.506  24.233  0.00  0.00     0.028 A 
HETATM    9  C   UNL     1      -2.747  14.016  25.211  0.00  0.00     0.019 A 
HETATM   10  C   UNL     1      -2.491  13.330  26.404  0.00  0.00     0.037 A 
HETATM   11  C   UNL     1      -3.082  12.096  26.622  0.00  0.00     0.068 A 
HETATM   12  C   UNL     1      -3.940  11.550  25.678  0.00  0.00     0.074 A 
HETATM   13  C   UNL     1      -4.214  12.255  24.498  0.00  0.00     0.081 A 
BRANCH  11  14
HETATM   14  O   UNL     1      -2.841  11.382  27.757  0.00  0.00    -0.361 OA
HETATM   15  H   UNL     1      -1.901  11.139  27.778  0.00  0.00     0.217 HD
ENDBRANCH  11  14
BRANCH  13  16
HETATM   16  O   UNL     1      -5.106  11.691  23.620  0.00  0.00    -0.360 OA
HETATM   17  H   UNL     1      -4.624  11.392  22.833  0.00  0.00     0.217 HD
ENDBRANCH  13  16
ENDBRANCH   1   8
BRANCH   7  18
HETATM   18  C   UNL     1      -1.350  14.518  21.846  0.00  0.00     0.068 C 
HETATM   19  C   UNL     1      -0.584  15.540  22.652  0.00  0.00    -0.015 C 
HETATM   20  C   UNL     1       0.627  15.271  23.175  0.00  0.00     0.006 C 
HETATM   21  C   UNL     1       1.287  13.919  23.063  0.00  0.00     0.166 C 
HETATM   22  C   UNL     1       0.371  12.838  22.539  0.00  0.00     0.006 C 
HETATM   23  C   UNL     1      -0.836  13.101  22.007  0.00  0.00    -0.015 C 
BRANCH  21  24
HETATM   24  O   UNL     1       2.486  13.967  22.287  0.00  0.00    -0.383 OA
HETATM   25  C   UNL     1       2.316  14.275  20.907  0.00  0.00     0.202 C 
ENDBRANCH  21  24
ENDBRANCH   7  18
TORSDOF 5
ENDMDL
MODEL 2
REMARK VINA RESULT:    -6.728      2.398      2.795
REMARK INTER + INTRA:          -9.615
REMARK INTER:                  -8.237
REMARK INTRA:                  -1.378
REMARK UNBOUND:                -1.314
REMARK  5 active torsions:
REMARK  status: ('A' for Active; 'I' for Inactive)
REMARK    1  A    between atoms: C_3  and  O_4 
REMARK    2  A    between atoms: C_6  and  O_7 
REMARK    3  A    between atoms: C_8  and  C_9 
REMARK    4  A    between atoms: C_15  and  C_16 
REMARK    5  A    between atoms: C_19  and  O_22 
ROOT
HETATM    1  C   UNL     1      -1.943  12.442  23.131  0.00  0.00     0.099 A 
HETATM    2  N   UNL     1      -2.956  11.781  22.541  0.00  0.00    -0.173 NA
HETATM    3  N   UNL     1      -2.501  11.419  21.345  0.00  0.00    -0.281 N 
HETATM    4  H   UNL     1      -3.148  10.957  20.710  0.00  0.00     0.189 HD
HETATM    5  C   UNL     1      -1.191  11.711  21.146  0.00  0.00     0.033 A 
HETATM    6  C   UNL     1      -0.458  11.316  19.918  0.00  0.00     0.070 C 
HETATM    7  C   UNL     1      -0.780  12.416  22.271  0.00  0.00     0.008 A 
ENDROOT
BRANCH   1   8
HETATM    8  C   UNL     1      -2.131  12.997  24.490  0.00  0.00     0.028 A 
HETATM    9  C   UNL     1      -1.835  14.348  24.739  0.00  0.00     0.019 A 
HETATM   10  C   UNL     1      -1.938  14.905  26.018  0.00  0.00     0.037 A 
HETATM   11  C   UNL     1      -2.308  14.101  27.085  0.00  0.00     0.068 A 
HETATM   12  C   UNL     1      -2.598  12.759  26.887  0.00  0.00     0.074 A 
HETATM   13  C   UNL     1      -2.521  12.214  25.598  0.00  0.00     0.081 A 
BRANCH  11  14
HETATM   14  O   UNL     1      -2.396  14.596  28.352  0.00  0.00    -0.361 OA
HETATM   15  H   UNL     1      -1.497  14.744  28.690  0.00  0.00     0.217 HD
ENDBRANCH  11  14
BRANCH  13  16
HETATM   16  O   UNL     1      -2.864  10.893  25.451  0.00  0.00    -0.360 OA
HETATM   17  H   UNL     1      -3.137  10.741  24.532  0.00  0.00     0.217 HD
ENDBRANCH  13  16
ENDBRANCH   1   8
BRANCH   7  18
HETATM   18  C   UNL     1       0.608  12.984  22.402  0.00  0.00     0.068 C 
HETATM   19  C   UNL     1       0.718  14.454  22.074  0.00  0.00    -0.015 C 
HETATM   20  C   UNL     1       1.626  15.250  22.667  0.00  0.00     0.006 C 
HETATM   21  C   UNL     1       2.557  14.766  23.751  0.00  0.00     0.166 C 
HETATM   22  C   UNL     1       2.211  13.395  24.281  0.00  0.00     0.006 C 
HETATM   23  C   UNL     1       1.311  12.591  23.687  0.00  0.00    -0.015 C 
BRANCH  21  24
HETATM   24  O   UNL     1       3.927  14.806  23.344  0.00  0.00    -0.383 OA
HETATM   25  C   UNL     1       4.179  14.433  21.993  0.00  0.00     0.202 C 
ENDBRANCH  21  24
ENDBRANCH   7  18
TORSDOF 5
ENDMDL
MODEL 3
REMARK VINA RESULT:    -6.639      1.491      1.604
REMARK INTER + INTRA:          -9.505
REMARK INTER:                  -8.181
REMARK INTRA:                  -1.325
REMARK UNBOUND:                -1.314
REMARK  5 active torsions:
REMARK  status: ('A' for Active; 'I' for Inactive)
REMARK    1  A    between atoms: C_3  and  O_4 
REMARK    2  A    between atoms: C_6  and  O_7 
REMARK    3  A    between atoms: C_8  and  C_9 
REMARK    4  A    between atoms: C_15  and  C_16 
REMARK    5  A    between atoms: C_19  and  O_22 
ROOT
HETATM    1  C   UNL     1      -3.470  13.351  22.600  0.00  0.00     0.099 A 
HETATM    2  N   UNL     1      -4.723  13.209  22.130  0.00  0.00    -0.173 NA
HETATM    3  N   UNL     1      -4.850  14.117  21.166  0.00  0.00    -0.281 N 
HETATM    4  H   UNL     1      -5.760  14.214  20.722  0.00  0.00     0.189 HD
HETATM    5  C   UNL     1      -3.705  14.790  20.893  0.00  0.00     0.033 A 
HETATM    6  C   UNL     1      -3.599  15.783  19.796  0.00  0.00     0.070 C 
HETATM    7  C   UNL     1      -2.772  14.355  21.827  0.00  0.00     0.008 A 
ENDROOT
BRANCH   1   8
HETATM    8  C   UNL     1      -3.006  12.485  23.707  0.00  0.00     0.028 A 
HETATM    9  C   UNL     1      -1.901  11.639  23.514  0.00  0.00     0.019 A 
HETATM   10  C   UNL     1      -1.461  10.757  24.508  0.00  0.00     0.037 A 
HETATM   11  C   UNL     1      -2.149  10.684  25.709  0.00  0.00     0.068 A 
HETATM   12  C   UNL     1      -3.253  11.493  25.938  0.00  0.00     0.074 A 
HETATM   13  C   UNL     1      -3.671  12.395  24.949  0.00  0.00     0.081 A 
BRANCH  11  14
HETATM   14  O   UNL     1      -1.772   9.821  26.694  0.00  0.00    -0.361 OA
HETATM   15  H   UNL     1      -2.369   9.935  27.452  0.00  0.00     0.217 HD
ENDBRANCH  11  14
BRANCH  13  16
HETATM   16  O   UNL     1      -4.739  13.204  25.246  0.00  0.00    -0.360 OA
HETATM   17  H   UNL     1      -5.019  13.662  24.437  0.00  0.00     0.217 HD
ENDBRANCH  13  16
ENDBRANCH   1   8
BRANCH   7  18
HETATM   18  C   UNL     1      -1.380  14.925  21.900  0.00  0.00     0.068 C 
HETATM   19  C   UNL     1      -1.038  15.577  23.218  0.00  0.00    -0.015 C 
HETATM   20  C   UNL     1       0.218  15.591  23.701  0.00  0.00     0.006 C 
HETATM   21  C   UNL     1       1.370  14.902  23.011  0.00  0.00     0.166 C 
HETATM   22  C   UNL     1       0.945  13.996  21.880  0.00  0.00     0.006 C 
HETATM   23  C   UNL     1      -0.307  13.985  21.387  0.00  0.00    -0.015 C 
BRANCH  21  24
HETATM   24  O   UNL     1       2.358  15.829  22.555  0.00  0.00    -0.383 OA
HETATM   25  C   UNL     1       3.690  15.330  22.493  0.00  0.00     0.202 C 
ENDBRANCH  21  24
ENDBRANCH   7  18
TORSDOF 5
ENDMDL
MODEL 4
REMARK VINA RESULT:    -6.638      3.117      4.996
REMARK INTER + INTRA:          -9.504
REMARK INTER:                  -8.199
REMARK INTRA:                  -1.305
REMARK UNBOUND:                -1.314
REMARK  5 active torsions:
REMARK  status: ('A' for Active; 'I' for Inactive)
REMARK    1  A    between atoms: C_3  and  O_4 
REMARK    2  A    between atoms: C_6  and  O_7 
REMARK    3  A    between atoms: C_8  and  C_9 
REMARK    4  A    between atoms: C_15  and  C_16 
REMARK    5  A    between atoms: C_19  and  O_22 
ROOT
HETATM    1  C   UNL     1      -0.972  12.623  22.906  0.00  0.00     0.099 A 
HETATM    2  N   UNL     1      -1.623  11.767  23.715  0.00  0.00    -0.173 NA
HETATM    3  N   UNL     1      -0.686  11.210  24.478  0.00  0.00    -0.281 N 
HETATM    4  H   UNL     1      -0.971  10.477  25.122  0.00  0.00     0.189 HD
HETATM    5  C   UNL     1       0.552  11.733  24.293  0.00  0.00     0.033 A 
HETATM    6  C   UNL     1       1.726  11.322  25.102  0.00  0.00     0.070 C 
HETATM    7  C   UNL     1       0.434  12.640  23.247  0.00  0.00     0.008 A 
ENDROOT
BRANCH   1   8
HETATM    8  C   UNL     1      -1.737  13.406  21.909  0.00  0.00     0.028 A 
HETATM    9  C   UNL     1      -1.585  14.801  21.853  0.00  0.00     0.019 A 
HETATM   10  C   UNL     1      -2.331  15.592  20.971  0.00  0.00     0.037 A 
HETATM   11  C   UNL     1      -3.273  14.995  20.149  0.00  0.00     0.068 A 
HETATM   12  C   UNL     1      -3.464  13.620  20.179  0.00  0.00     0.074 A 
HETATM   13  C   UNL     1      -2.694  12.831  21.044  0.00  0.00     0.081 A 
BRANCH  11  14
HETATM   14  O   UNL     1      -4.039  15.729  19.294  0.00  0.00    -0.361 OA
HETATM   15  H   UNL     1      -4.809  16.067  19.779  0.00  0.00     0.217 HD
ENDBRANCH  11  14
BRANCH  13  16
HETATM   16  O   UNL     1      -2.890  11.473  21.000  0.00  0.00    -0.360 OA
HETATM   17  H   UNL     1      -3.815  11.283  21.225  0.00  0.00     0.217 HD
ENDBRANCH  13  16
ENDBRANCH   1   8
BRANCH   7  18
HETATM   18  C   UNL     1       1.617  13.386  22.689  0.00  0.00     0.068 C 
HETATM   19  C   UNL     1       1.693  13.404  21.181  0.00  0.00    -0.015 C 
HETATM   20  C   UNL     1       2.243  14.432  20.508  0.00  0.00     0.006 C 
HETATM   21  C   UNL     1       2.761  15.674  21.190  0.00  0.00     0.166 C 
HETATM   22  C   UNL     1       2.383  15.769  22.649  0.00  0.00     0.006 C 
HETATM   23  C   UNL     1       1.843  14.742  23.329  0.00  0.00    -0.015 C 
BRANCH  21  24
HETATM   24  O   UNL     1       4.174  15.824  21.036  0.00  0.00    -0.383 OA
HETATM   25  C   UNL     1       4.974  14.876  21.736  0.00  0.00     0.202 C 
ENDBRANCH  21  24
ENDBRANCH   7  18
TORSDOF 5
ENDMDL
MODEL 5
REMARK VINA RESULT:    -6.558      2.659      5.028
REMARK INTER + INTRA:          -9.405
REMARK INTER:                  -8.220
REMARK INTRA:                  -1.185
REMARK UNBOUND:                -1.314
REMARK  5 active torsions:
REMARK  status: ('A' for Active; 'I' for Inactive)
REMARK    1  A    between atoms: C_3  and  O_4 
REMARK    2  A    between atoms: C_6  and  O_7 
REMARK    3  A    between atoms: C_8  and  C_9 
REMARK    4  A    between atoms: C_15  and  C_16 
REMARK    5  A    between atoms: C_19  and  O_22 
ROOT
HETATM    1  C   UNL     1      -3.868  12.299  23.772  0.00  0.00     0.099 A 
HETATM    2  N   UNL     1      -4.845  11.379  23.871  0.00  0.00    -0.173 NA
HETATM    3  N   UNL     1      -4.618  10.734  25.011  0.00  0.00    -0.281 N 
HETATM    4  H   UNL     1      -5.219   9.946  25.240  0.00  0.00     0.189 HD
HETATM    5  C   UNL     1      -3.596  11.251  25.738  0.00  0.00     0.033 A 
HETATM    6  C   UNL     1      -3.229  10.743  27.083  0.00  0.00     0.070 C 
HETATM    7  C   UNL     1      -3.041  12.259  24.958  0.00  0.00     0.008 A 
ENDROOT
BRANCH   1   8
HETATM    8  C   UNL     1      -3.824  13.189  22.589  0.00  0.00     0.028 A 
HETATM    9  C   UNL     1      -4.312  14.502  22.687  0.00  0.00     0.019 A 
HETATM   10  C   UNL     1      -4.350  15.362  21.583  0.00  0.00     0.037 A 
HETATM   11  C   UNL     1      -3.925  14.903  20.346  0.00  0.00     0.068 A 
HETATM   12  C   UNL     1      -3.446  13.609  20.201  0.00  0.00     0.074 A 
HETATM   13  C   UNL     1      -3.385  12.762  21.317  0.00  0.00     0.081 A 
BRANCH  11  14
HETATM   14  O   UNL     1      -3.968  15.698  19.239  0.00  0.00    -0.361 OA
HETATM   15  H   UNL     1      -3.946  16.626  19.523  0.00  0.00     0.217 HD
ENDBRANCH  11  14
BRANCH  13  16
HETATM   16  O   UNL     1      -2.858  11.509  21.128  0.00  0.00    -0.360 OA
HETATM   17  H   UNL     1      -1.923  11.596  20.883  0.00  0.00     0.217 HD
ENDBRANCH  13  16
ENDBRANCH   1   8
BRANCH   7  18
HETATM   18  C   UNL     1      -1.825  13.035  25.390  0.00  0.00     0.068 C 
HETATM   19  C   UNL     1      -0.601  12.808  24.536  0.00  0.00    -0.015 C 
HETATM   20  C   UNL     1       0.326  13.766  24.352  0.00  0.00     0.006 C 
HETATM   21  C   UNL     1       0.190  15.159  24.918  0.00  0.00     0.166 C 
HETATM   22  C   UNL     1      -1.178  15.451  25.487  0.00  0.00     0.006 C 
HETATM   23  C   UNL     1      -2.105  14.497  25.682  0.00  0.00    -0.015 C 
BRANCH  21  24
HETATM   24  O   UNL     1       1.199  15.447  25.889  0.00  0.00    -0.383 OA
HETATM   25  C   UNL     1       0.725  15.829  27.176  0.00  0.00     0.202 C 
ENDBRANCH  21  24
ENDBRANCH   7  18
TORSDOF 5
ENDMDL
MODEL 6
REMARK VINA RESULT:    -6.414      2.639      4.694
REMARK INTER + INTRA:          -9.227
REMARK INTER:                  -7.944
REMARK INTRA:                  -1.283
REMARK UNBOUND:                -1.314
REMARK  5 active torsions:
REMARK  status: ('A' for Active; 'I' for Inactive)
REMARK    1  A    between atoms: C_3  and  O_4 
REMARK    2  A    between atoms: C_6  and  O_7 
REMARK    3  A    between atoms: C_8  and  C_9 
REMARK    4  A    between atoms: C_15  and  C_16 
REMARK    5  A    between atoms: C_19  and  O_22 
ROOT
HETATM    1  C   UNL     1      -2.295  11.479  22.984  0.00  0.00     0.099 A 
HETATM    2  N   UNL     1      -3.022  10.548  23.630  0.00  0.00    -0.173 NA
HETATM    3  N   UNL     1      -2.139   9.697  24.146  0.00  0.00    -0.281 N 
HETATM    4  H   UNL     1      -2.495   8.874  24.625  0.00  0.00     0.189 HD
HETATM    5  C   UNL     1      -0.847  10.074  23.968  0.00  0.00     0.033 A 
HETATM    6  C   UNL     1       0.295   9.319  24.539  0.00  0.00     0.070 C 
HETATM    7  C   UNL     1      -0.886  11.218  23.181  0.00  0.00     0.008 A 
ENDROOT
BRANCH   1   8
HETATM    8  C   UNL     1      -2.988  12.580  22.278  0.00  0.00     0.028 A 
HETATM    9  C   UNL     1      -2.658  12.870  20.943  0.00  0.00     0.019 A 
HETATM   10  C   UNL     1      -3.240  13.939  20.252  0.00  0.00     0.037 A 
HETATM   11  C   UNL     1      -4.144  14.762  20.904  0.00  0.00     0.068 A 
HETATM   12  C   UNL     1      -4.491  14.519  22.226  0.00  0.00     0.074 A 
HETATM   13  C   UNL     1      -3.926  13.430  22.903  0.00  0.00     0.081 A 
BRANCH  11  14
HETATM   14  O   UNL     1      -4.715  15.829  20.278  0.00  0.00    -0.361 OA
HETATM   15  H   UNL     1      -4.039  16.516  20.156  0.00  0.00     0.217 HD
ENDBRANCH  11  14
BRANCH  13  16
HETATM   16  O   UNL     1      -4.340  13.207  24.193  0.00  0.00    -0.360 OA
HETATM   17  H   UNL     1      -5.290  13.007  24.188  0.00  0.00     0.217 HD
ENDBRANCH  13  16
ENDBRANCH   1   8
BRANCH   7  18
HETATM   18  C   UNL     1       0.363  11.908  22.700  0.00  0.00     0.068 C 
HETATM   19  C   UNL     1       0.577  11.849  21.206  0.00  0.00    -0.015 C 
HETATM   20  C   UNL     1       1.213  12.829  20.539  0.00  0.00     0.006 C 
HETATM   21  C   UNL     1       1.700  14.092  21.205  0.00  0.00     0.166 C 
HETATM   22  C   UNL     1       1.193  14.268  22.617  0.00  0.00     0.006 C 
HETATM   23  C   UNL     1       0.565  13.289  23.292  0.00  0.00    -0.015 C 
BRANCH  21  24
HETATM   24  O   UNL     1       3.125  14.202  21.176  0.00  0.00    -0.383 OA
HETATM   25  C   UNL     1       3.729  14.706  22.363  0.00  0.00     0.202 C 
ENDBRANCH  21  24
ENDBRANCH   7  18
TORSDOF 5
ENDMDL
MODEL 7
REMARK VINA RESULT:    -6.349      3.256      6.431
REMARK INTER + INTRA:          -9.148
REMARK INTER:                  -7.834
REMARK INTRA:                  -1.314
REMARK UNBOUND:                -1.314
REMARK  5 active torsions:
REMARK  status: ('A' for Active; 'I' for Inactive)
REMARK    1  A    between atoms: C_3  and  O_4 
REMARK    2  A    between atoms: C_6  and  O_7 
REMARK    3  A    between atoms: C_8  and  C_9 
REMARK    4  A    between atoms: C_15  and  C_16 
REMARK    5  A    between atoms: C_19  and  O_22 
ROOT
HETATM    1  C   UNL     1       0.733  12.679  23.566  0.00  0.00     0.099 A 
HETATM    2  N   UNL     1       1.242  11.730  24.374  0.00  0.00    -0.173 NA
HETATM    3  N   UNL     1       0.194  11.154  24.957  0.00  0.00    -0.281 N 
HETATM    4  H   UNL     1       0.374  10.444  25.663  0.00  0.00     0.189 HD
HETATM    5  C   UNL     1      -1.002  11.598  24.495  0.00  0.00     0.033 A 
HETATM    6  C   UNL     1      -2.297  11.028  24.942  0.00  0.00     0.070 C 
HETATM    7  C   UNL     1      -0.712  12.625  23.605  0.00  0.00     0.008 A 
ENDROOT
BRANCH   1   8
HETATM    8  C   UNL     1       1.650  13.525  22.771  0.00  0.00     0.028 A 
HETATM    9  C   UNL     1       1.560  13.524  21.369  0.00  0.00     0.019 A 
HETATM   10  C   UNL     1       2.443  14.259  20.569  0.00  0.00     0.037 A 
HETATM   11  C   UNL     1       3.461  14.985  21.167  0.00  0.00     0.068 A 
HETATM   12  C   UNL     1       3.595  15.005  22.548  0.00  0.00     0.074 A 
HETATM   13  C   UNL     1       2.689  14.290  23.344  0.00  0.00     0.081 A 
BRANCH  11  14
HETATM   14  O   UNL     1       4.359  15.694  20.427  0.00  0.00    -0.361 OA
HETATM   15  H   UNL     1       5.235  15.286  20.527  0.00  0.00     0.217 HD
ENDBRANCH  11  14
BRANCH  13  16
HETATM   16  O   UNL     1       2.838  14.382  24.705  0.00  0.00    -0.360 OA
HETATM   17  H   UNL     1       2.513  15.248  24.998  0.00  0.00     0.217 HD
ENDBRANCH  13  16
ENDBRANCH   1   8
BRANCH   7  18
HETATM   18  C   UNL     1      -1.789  13.430  22.926  0.00  0.00     0.068 C 
HETATM   19  C   UNL     1      -1.531  14.917  22.889  0.00  0.00    -0.015 C 
HETATM   20  C   UNL     1      -1.983  15.693  21.886  0.00  0.00     0.006 C 
HETATM   21  C   UNL     1      -2.718  15.141  20.690  0.00  0.00     0.166 C 
HETATM   22  C   UNL     1      -2.679  13.634  20.596  0.00  0.00     0.006 C 
HETATM   23  C   UNL     1      -2.237  12.853  21.598  0.00  0.00    -0.015 C 
BRANCH  21  24
HETATM   24  O   UNL     1      -4.069  15.604  20.626  0.00  0.00    -0.383 OA
HETATM   25  C   UNL     1      -4.910  15.200  21.702  0.00  0.00     0.202 C 
ENDBRANCH  21  24
ENDBRANCH   7  18
TORSDOF 5
ENDMDL
MODEL 8
REMARK VINA RESULT:    -6.344      2.884      3.754
REMARK INTER + INTRA:          -9.141
REMARK INTER:                  -7.723
REMARK INTRA:                  -1.418
REMARK UNBOUND:                -1.314
REMARK  5 active torsions:
REMARK  status: ('A' for Active; 'I' for Inactive)
REMARK    1  A    between atoms: C_3  and  O_4 
REMARK    2  A    between atoms: C_6  and  O_7 
REMARK    3  A    between atoms: C_8  and  C_9 
REMARK    4  A    between atoms: C_15  and  C_16 
REMARK    5  A    between atoms: C_19  and  O_22 
ROOT
HETATM    1  C   UNL     1      -1.719  13.292  23.632  0.00  0.00     0.099 A 
HETATM    2  N   UNL     1      -2.054  14.451  23.034  0.00  0.00    -0.173 NA
HETATM    3  N   UNL     1      -1.085  14.697  22.157  0.00  0.00    -0.281 N 
HETATM    4  H   UNL     1      -1.121  15.573  21.642  0.00  0.00     0.189 HD
HETATM    5  C   UNL     1      -0.169  13.701  22.059  0.00  0.00     0.033 A 
HETATM    6  C   UNL     1       0.945  13.727  21.080  0.00  0.00     0.070 C 
HETATM    7  C   UNL     1      -0.513  12.766  23.029  0.00  0.00     0.008 A 
ENDROOT
BRANCH   1   8
HETATM    8  C   UNL     1      -2.597  12.737  24.686  0.00  0.00     0.028 A 
HETATM    9  C   UNL     1      -2.095  12.555  25.986  0.00  0.00     0.019 A 
HETATM   10  C   UNL     1      -2.866  11.977  27.002  0.00  0.00     0.037 A 
HETATM   11  C   UNL     1      -4.150  11.540  26.720  0.00  0.00     0.068 A 
HETATM   12  C   UNL     1      -4.681  11.690  25.447  0.00  0.00     0.074 A 
HETATM   13  C   UNL     1      -3.915  12.295  24.441  0.00  0.00     0.081 A 
BRANCH  11  14
HETATM   14  O   UNL     1      -4.925  10.949  27.672  0.00  0.00    -0.361 OA
HETATM   15  H   UNL     1      -4.477  11.025  28.530  0.00  0.00     0.217 HD
ENDBRANCH  11  14
BRANCH  13  16
HETATM   16  O   UNL     1      -4.505  12.461  23.214  0.00  0.00    -0.360 OA
HETATM   17  H   UNL     1      -3.849  12.277  22.523  0.00  0.00     0.217 HD
ENDBRANCH  13  16
ENDBRANCH   1   8
BRANCH   7  18
HETATM   18  C   UNL     1       0.311  11.533  23.288  0.00  0.00     0.068 C 
HETATM   19  C   UNL     1       1.256  11.645  24.461  0.00  0.00    -0.015 C 
HETATM   20  C   UNL     1       1.597  10.576  25.204  0.00  0.00     0.006 C 
HETATM   21  C   UNL     1       1.018   9.202  24.979  0.00  0.00     0.166 C 
HETATM   22  C   UNL     1      -0.151   9.185  24.022  0.00  0.00     0.006 C 
HETATM   23  C   UNL     1      -0.491  10.246  23.269  0.00  0.00    -0.015 C 
BRANCH  21  24
HETATM   24  O   UNL     1       2.010   8.260  24.561  0.00  0.00    -0.383 OA
HETATM   25  C   UNL     1       1.513   7.032  24.041  0.00  0.00     0.202 C 
ENDBRANCH  21  24
ENDBRANCH   7  18
TORSDOF 5
ENDMDL
MODEL 9
REMARK VINA RESULT:    -6.317      3.060      4.677
REMARK INTER + INTRA:          -9.107
REMARK INTER:                  -7.960
REMARK INTRA:                  -1.147
REMARK UNBOUND:                -1.314
REMARK  5 active torsions:
REMARK  status: ('A' for Active; 'I' for Inactive)
REMARK    1  A    between atoms: C_3  and  O_4 
REMARK    2  A    between atoms: C_6  and  O_7 
REMARK    3  A    between atoms: C_8  and  C_9 
REMARK    4  A    between atoms: C_15  and  C_16 
REMARK    5  A    between atoms: C_19  and  O_22 
ROOT
HETATM    1  C   UNL     1       0.832  13.982  23.699  0.00  0.00     0.099 A 
HETATM    2  N   UNL     1       2.133  13.897  24.032  0.00  0.00    -0.173 NA
HETATM    3  N   UNL     1       2.802  13.947  22.883  0.00  0.00    -0.281 N 
HETATM    4  H   UNL     1       3.812  13.831  22.916  0.00  0.00     0.189 HD
HETATM    5  C   UNL     1       2.015  14.172  21.801  0.00  0.00     0.033 A 
HETATM    6  C   UNL     1       2.562  14.354  20.434  0.00  0.00     0.070 C 
HETATM    7  C   UNL     1       0.707  14.169  22.271  0.00  0.00     0.008 A 
ENDROOT
BRANCH   1   8
HETATM    8  C   UNL     1      -0.195  13.941  24.765  0.00  0.00     0.028 A 
HETATM    9  C   UNL     1      -0.443  15.087  25.539  0.00  0.00     0.019 A 
HETATM   10  C   UNL     1      -1.359  15.082  26.597  0.00  0.00     0.037 A 
HETATM   11  C   UNL     1      -2.021  13.909  26.921  0.00  0.00     0.068 A 
HETATM   12  C   UNL     1      -1.799  12.750  26.190  0.00  0.00     0.074 A 
HETATM   13  C   UNL     1      -0.901  12.769  25.114  0.00  0.00     0.081 A 
BRANCH  11  14
HETATM   14  O   UNL     1      -2.902  13.852  27.959  0.00  0.00    -0.361 OA
HETATM   15  H   UNL     1      -2.776  14.638  28.516  0.00  0.00     0.217 HD
ENDBRANCH  11  14
BRANCH  13  16
HETATM   16  O   UNL     1      -0.754  11.609  24.396  0.00  0.00    -0.360 OA
HETATM   17  H   UNL     1       0.128  11.600  23.992  0.00  0.00     0.217 HD
ENDBRANCH  13  16
ENDBRANCH   1   8
BRANCH   7  18
HETATM   18  C   UNL     1      -0.478  14.318  21.353  0.00  0.00     0.068 C 
HETATM   19  C   UNL     1      -1.332  13.079  21.226  0.00  0.00    -0.015 C 
HETATM   20  C   UNL     1      -2.656  13.148  20.994  0.00  0.00     0.006 C 
HETATM   21  C   UNL     1      -3.408  14.454  20.913  0.00  0.00     0.166 C 
HETATM   22  C   UNL     1      -2.599  15.649  21.360  0.00  0.00     0.006 C 
HETATM   23  C   UNL     1      -1.274  15.588  21.584  0.00  0.00    -0.015 C 
BRANCH  21  24
HETATM   24  O   UNL     1      -3.948  14.685  19.610  0.00  0.00    -0.383 OA
HETATM   25  C   UNL     1      -5.074  13.888  19.259  0.00  0.00     0.202 C 
ENDBRANCH  21  24
ENDBRANCH   7  18
TORSDOF 5
ENDMDL
