MODEL 1
REMARK VINA RESULT:    -6.998      0.000      0.000
REMARK INTER + INTRA:         -10.007
REMARK INTER:                  -9.261
REMARK INTRA:                  -0.746
REMARK UNBOUND:                -0.964
REMARK  5 active torsions:
REMARK  status: ('A' for Active; 'I' for Inactive)
REMARK    1  A    between atoms: N8_1  and  C24_2 
REMARK    2  A    between atoms: N8_1  and  C7_8 
REMARK    3  A    between atoms: C2_13  and  N1_14 
REMARK    4  A    between atoms: N1_14  and  C17_15 
REMARK    5  A    between atoms: C14_16  and  C13_19 
ROOT
ATOM      1  C17 FTA A   1       4.248  14.538  17.976  1.00  0.00     0.142 C 
ATOM      2  C14 FTA A   1       4.711  15.763  17.657  1.00  0.00     0.158 C 
ATOM      3  C18 FTA A   1       4.996  16.097  16.279  1.00  0.00     0.069 C 
ATOM      4  N21 FTA A   1       5.236  16.207  15.136  1.00  0.00    -0.197 NA
ENDROOT
BRANCH   2   5
ATOM      5  C13 FTA A   1       4.910  16.767  18.728  1.00  0.00     0.197 A 
ATOM      6  N15 FTA A   1       5.871  16.715  19.735  1.00  0.00    -0.093 NA
ATOM      7  N19 FTA A   1       5.682  17.823  20.550  1.00  0.00    -0.231 N 
ATOM      8  N20 FTA A   1       4.614  18.566  20.068  1.00  0.00    -0.017 NA
ATOM      9  H15 FTA A   1       6.245  18.057  21.381  1.00  0.00     0.200 HD
ATOM     10  N16 FTA A   1       4.141  17.919  18.931  1.00  0.00    -0.090 NA
ENDBRANCH   2   5
BRANCH   1  11
ATOM     11  N1  FTA A   1       4.887  13.826  18.924  1.00  0.00    -0.389 N 
ATOM     12  H11 FTA A   1       5.757  14.221  19.310  1.00  0.00     0.159 HD
BRANCH  11  13
ATOM     13  C2  FTA A   1       4.452  12.573  19.435  1.00  0.00     0.028 A 
ATOM     14  C4  FTA A   1       3.155  12.103  19.240  1.00  0.00     0.031 A 
ATOM     15  C6  FTA A   1       2.724  10.979  19.957  1.00  0.00     0.031 A 
ATOM     16  C7  FTA A   1       3.551  10.317  20.862  1.00  0.00     0.032 A 
ATOM     17  C5  FTA A   1       4.844  10.781  21.026  1.00  0.00     0.031 A 
ATOM     18  C3  FTA A   1       5.286  11.902  20.334  1.00  0.00     0.031 A 
BRANCH  16  19
ATOM     19  N8  FTA A   1       3.076   9.316  21.748  1.00  0.00    -0.356 N 
ATOM     20  H1  FTA A   1       2.975   8.362  21.372  1.00  0.00     0.166 HD
BRANCH  19  21
ATOM     21  C24 FTA A   1       2.727   9.521  23.117  1.00  0.00     0.032 A 
ATOM     22  C26 FTA A   1       2.030   8.576  23.832  1.00  0.00     0.029 A 
ATOM     23  C28 FTA A   1       1.573   8.905  25.094  1.00  0.00     0.002 A 
ATOM     24  C30 FTA A   1       1.820  10.137  25.676  1.00  0.00     0.000 A 
ATOM     25  C29 FTA A   1       2.546  11.073  24.989  1.00  0.00     0.002 A 
ATOM     26  C27 FTA A   1       3.006  10.745  23.709  1.00  0.00     0.029 A 
ENDBRANCH  19  21
ENDBRANCH  16  19
ENDBRANCH  11  13
ENDBRANCH   1  11
TORSDOF 5
ENDMDL
MODEL 2
REMARK VINA RESULT:    -6.954      1.841      2.056
REMARK INTER + INTRA:          -9.951
REMARK INTER:                  -8.994
REMARK INTRA:                  -0.957
REMARK UNBOUND:                -0.964
REMARK  5 active torsions:
REMARK  status: ('A' for Active; 'I' for Inactive)
REMARK    1  A    between atoms: N8_1  and  C24_2 
REMARK    2  A    between atoms: N8_1  and  C7_8 
REMARK    3  A    between atoms: C2_13  and  N1_14 
REMARK    4  A    between atoms: N1_14  and  C17_15 
REMARK    5  A    between atoms: C14_16  and  C13_19 
ROOT
ATOM      1  C17 FTA A   1       2.414  13.953  17.626  1.00  0.00     0.142 C 
ATOM      2  C14 FTA A   1       2.124  15.214  17.250  1.00  0.00     0.158 C 
ATOM      3  C18 FTA A   1       1.933  15.530  15.851  1.00  0.00     0.069 C 
ATOM      4  N21 FTA A   1       1.863  15.650  14.687  1.00  0.00    -0.197 NA
ENDROOT
BRANCH   2   5
ATOM      5  C13 FTA A   1       1.987  16.268  18.281  1.00  0.00     0.197 A 
ATOM      6  N15 FTA A   1       3.007  17.088  18.760  1.00  0.00    -0.093 NA
ATOM      7  N19 FTA A   1       2.463  17.900  19.746  1.00  0.00    -0.231 N 
ATOM      8  N20 FTA A   1       1.117  17.597  19.893  1.00  0.00    -0.017 NA
ATOM      9  H15 FTA A   1       2.976  18.613  20.284  1.00  0.00     0.200 HD
ATOM     10  N16 FTA A   1       0.817  16.593  18.978  1.00  0.00    -0.090 NA
ENDBRANCH   2   5
BRANCH   1  11
ATOM     11  N1  FTA A   1       3.491  13.737  18.406  1.00  0.00    -0.389 N 
ATOM     12  H11 FTA A   1       4.204  14.480  18.449  1.00  0.00     0.159 HD
BRANCH  11  13
ATOM     13  C2  FTA A   1       3.720  12.562  19.173  1.00  0.00     0.028 A 
ATOM     14  C4  FTA A   1       2.745  11.582  19.336  1.00  0.00     0.031 A 
ATOM     15  C6  FTA A   1       2.950  10.570  20.284  1.00  0.00     0.031 A 
ATOM     16  C7  FTA A   1       4.097  10.514  21.071  1.00  0.00     0.032 A 
ATOM     17  C5  FTA A   1       5.068  11.481  20.879  1.00  0.00     0.031 A 
ATOM     18  C3  FTA A   1       4.878  12.500  19.954  1.00  0.00     0.031 A 
BRANCH  16  19
ATOM     19  N8  FTA A   1       4.233   9.631  22.172  1.00  0.00    -0.356 N 
ATOM     20  H1  FTA A   1       5.022   8.969  22.153  1.00  0.00     0.166 HD
BRANCH  19  21
ATOM     21  C24 FTA A   1       3.366   9.585  23.306  1.00  0.00     0.032 A 
ATOM     22  C26 FTA A   1       2.782   8.410  23.718  1.00  0.00     0.029 A 
ATOM     23  C28 FTA A   1       1.822   8.461  24.711  1.00  0.00     0.002 A 
ATOM     24  C30 FTA A   1       1.450   9.645  25.325  1.00  0.00     0.000 A 
ATOM     25  C29 FTA A   1       2.052  10.817  24.949  1.00  0.00     0.002 A 
ATOM     26  C27 FTA A   1       3.022  10.769  23.942  1.00  0.00     0.029 A 
ENDBRANCH  19  21
ENDBRANCH  16  19
ENDBRANCH  11  13
ENDBRANCH   1  11
TORSDOF 5
ENDMDL
MODEL 3
REMARK VINA RESULT:    -6.826      3.005      7.768
REMARK INTER + INTRA:          -9.785
REMARK INTER:                  -8.857
REMARK INTRA:                  -0.928
REMARK UNBOUND:                -0.964
REMARK  5 active torsions:
REMARK  status: ('A' for Active; 'I' for Inactive)
REMARK    1  A    between atoms: N8_1  and  C24_2 
REMARK    2  A    between atoms: N8_1  and  C7_8 
REMARK    3  A    between atoms: C2_13  and  N1_14 
REMARK    4  A    between atoms: N1_14  and  C17_15 
REMARK    5  A    between atoms: C14_16  and  C13_19 
ROOT
ATOM      1  C17 FTA A   1       4.385   9.206  22.276  1.00  0.00     0.142 C 
ATOM      2  C14 FTA A   1       3.197   8.808  22.772  1.00  0.00     0.158 C 
ATOM      3  C18 FTA A   1       2.443   7.767  22.108  1.00  0.00     0.069 C 
ATOM      4  N21 FTA A   1       1.921   6.960  21.437  1.00  0.00    -0.197 NA
ENDROOT
BRANCH   2   5
ATOM      5  C13 FTA A   1       2.678   9.434  24.010  1.00  0.00     0.197 A 
ATOM      6  N15 FTA A   1       1.720   8.894  24.865  1.00  0.00    -0.093 NA
ATOM      7  N19 FTA A   1       1.490   9.821  25.873  1.00  0.00    -0.231 N 
ATOM      8  N20 FTA A   1       2.289  10.935  25.659  1.00  0.00    -0.017 NA
ATOM      9  H15 FTA A   1       0.831   9.702  26.656  1.00  0.00     0.200 HD
ATOM     10  N16 FTA A   1       3.035  10.692  24.510  1.00  0.00    -0.090 NA
ENDBRANCH   2   5
BRANCH   1  11
ATOM     11  N1  FTA A   1       4.588  10.518  22.044  1.00  0.00    -0.389 N 
ATOM     12  H11 FTA A   1       5.007  11.076  22.802  1.00  0.00     0.159 HD
BRANCH  11  13
ATOM     13  C2  FTA A   1       4.269  11.190  20.833  1.00  0.00     0.028 A 
ATOM     14  C4  FTA A   1       5.032  12.250  20.351  1.00  0.00     0.031 A 
ATOM     15  C6  FTA A   1       4.538  13.014  19.285  1.00  0.00     0.031 A 
ATOM     16  C7  FTA A   1       3.306  12.749  18.693  1.00  0.00     0.032 A 
ATOM     17  C5  FTA A   1       2.571  11.677  19.167  1.00  0.00     0.031 A 
ATOM     18  C3  FTA A   1       3.037  10.916  20.232  1.00  0.00     0.031 A 
BRANCH  16  19
ATOM     19  N8  FTA A   1       2.694  13.627  17.762  1.00  0.00    -0.356 N 
ATOM     20  H1  FTA A   1       3.234  13.874  16.920  1.00  0.00     0.166 HD
BRANCH  19  21
ATOM     21  C24 FTA A   1       1.392  14.196  17.895  1.00  0.00     0.032 A 
ATOM     22  C26 FTA A   1       0.313  13.699  17.202  1.00  0.00     0.029 A 
ATOM     23  C28 FTA A   1      -0.878  14.398  17.240  1.00  0.00     0.002 A 
ATOM     24  C30 FTA A   1      -1.034  15.561  17.975  1.00  0.00     0.000 A 
ATOM     25  C29 FTA A   1       0.022  16.046  18.701  1.00  0.00     0.002 A 
ATOM     26  C27 FTA A   1       1.231  15.342  18.661  1.00  0.00     0.029 A 
ENDBRANCH  19  21
ENDBRANCH  16  19
ENDBRANCH  11  13
ENDBRANCH   1  11
TORSDOF 5
ENDMDL
MODEL 4
REMARK VINA RESULT:    -6.763      1.130      1.407
REMARK INTER + INTRA:          -9.704
REMARK INTER:                  -8.813
REMARK INTRA:                  -0.891
REMARK UNBOUND:                -0.964
REMARK  5 active torsions:
REMARK  status: ('A' for Active; 'I' for Inactive)
REMARK    1  A    between atoms: N8_1  and  C24_2 
REMARK    2  A    between atoms: N8_1  and  C7_8 
REMARK    3  A    between atoms: C2_13  and  N1_14 
REMARK    4  A    between atoms: N1_14  and  C17_15 
REMARK    5  A    between atoms: C14_16  and  C13_19 
ROOT
ATOM      1  C17 FTA A   1       3.499  14.327  18.393  1.00  0.00     0.142 C 
ATOM      2  C14 FTA A   1       3.787  15.379  17.601  1.00  0.00     0.158 C 
ATOM      3  C18 FTA A   1       3.025  15.610  16.393  1.00  0.00     0.069 C 
ATOM      4  N21 FTA A   1       2.367  15.639  15.423  1.00  0.00    -0.197 NA
ENDROOT
BRANCH   2   5
ATOM      5  C13 FTA A   1       4.878  16.303  17.986  1.00  0.00     0.197 A 
ATOM      6  N15 FTA A   1       4.725  17.605  18.459  1.00  0.00    -0.093 NA
ATOM      7  N19 FTA A   1       5.995  18.131  18.655  1.00  0.00    -0.231 N 
ATOM      8  N20 FTA A   1       6.941  17.177  18.308  1.00  0.00    -0.017 NA
ATOM      9  H15 FTA A   1       6.202  19.078  19.002  1.00  0.00     0.200 HD
ATOM     10  N16 FTA A   1       6.250  16.039  17.903  1.00  0.00    -0.090 NA
ENDBRANCH   2   5
BRANCH   1  11
ATOM     11  N1  FTA A   1       4.488  13.480  18.736  1.00  0.00    -0.389 N 
ATOM     12  H11 FTA A   1       5.448  13.733  18.462  1.00  0.00     0.159 HD
BRANCH  11  13
ATOM     13  C2  FTA A   1       4.309  12.263  19.449  1.00  0.00     0.028 A 
ATOM     14  C4  FTA A   1       3.084  11.602  19.490  1.00  0.00     0.031 A 
ATOM     15  C6  FTA A   1       2.913  10.542  20.390  1.00  0.00     0.031 A 
ATOM     16  C7  FTA A   1       3.929  10.129  21.248  1.00  0.00     0.032 A 
ATOM     17  C5  FTA A   1       5.148  10.779  21.178  1.00  0.00     0.031 A 
ATOM     18  C3  FTA A   1       5.333  11.841  20.301  1.00  0.00     0.031 A 
BRANCH  16  19
ATOM     19  N8  FTA A   1       3.716   9.206  22.305  1.00  0.00    -0.356 N 
ATOM     20  H1  FTA A   1       4.071   8.248  22.174  1.00  0.00     0.166 HD
BRANCH  19  21
ATOM     21  C24 FTA A   1       3.050   9.496  23.534  1.00  0.00     0.032 A 
ATOM     22  C26 FTA A   1       2.332   8.537  24.208  1.00  0.00     0.029 A 
ATOM     23  C28 FTA A   1       1.571   8.922  25.296  1.00  0.00     0.002 A 
ATOM     24  C30 FTA A   1       1.532  10.230  25.749  1.00  0.00     0.000 A 
ATOM     25  C29 FTA A   1       2.273  11.187  25.109  1.00  0.00     0.002 A 
ATOM     26  C27 FTA A   1       3.041  10.801  24.005  1.00  0.00     0.029 A 
ENDBRANCH  19  21
ENDBRANCH  16  19
ENDBRANCH  11  13
ENDBRANCH   1  11
TORSDOF 5
ENDMDL
MODEL 5
REMARK VINA RESULT:    -6.690      2.408      3.435
REMARK INTER + INTRA:          -9.610
REMARK INTER:                  -8.552
REMARK INTRA:                  -1.057
REMARK UNBOUND:                -0.964
REMARK  5 active torsions:
REMARK  status: ('A' for Active; 'I' for Inactive)
REMARK    1  A    between atoms: N8_1  and  C24_2 
REMARK    2  A    between atoms: N8_1  and  C7_8 
REMARK    3  A    between atoms: C2_13  and  N1_14 
REMARK    4  A    between atoms: N1_14  and  C17_15 
REMARK    5  A    between atoms: C14_16  and  C13_19 
ROOT
ATOM      1  C17 FTA A   1       2.059  14.433  18.420  1.00  0.00     0.142 C 
ATOM      2  C14 FTA A   1       1.355  14.583  17.281  1.00  0.00     0.158 C 
ATOM      3  C18 FTA A   1      -0.033  14.178  17.224  1.00  0.00     0.069 C 
ATOM      4  N21 FTA A   1      -1.123  13.755  17.307  1.00  0.00    -0.197 NA
ENDROOT
BRANCH   2   5
ATOM      5  C13 FTA A   1       2.010  15.180  16.094  1.00  0.00     0.197 A 
ATOM      6  N15 FTA A   1       3.180  15.936  16.093  1.00  0.00    -0.093 NA
ATOM      7  N19 FTA A   1       3.418  16.338  14.785  1.00  0.00    -0.231 N 
ATOM      8  N20 FTA A   1       2.411  15.845  13.968  1.00  0.00    -0.017 NA
ATOM      9  H15 FTA A   1       4.215  16.910  14.472  1.00  0.00     0.200 HD
ATOM     10  N16 FTA A   1       1.542  15.118  14.776  1.00  0.00    -0.090 NA
ENDBRANCH   2   5
BRANCH   1  11
ATOM     11  N1  FTA A   1       3.235  13.777  18.378  1.00  0.00    -0.389 N 
ATOM     12  H11 FTA A   1       3.963  14.145  17.748  1.00  0.00     0.159 HD
BRANCH  11  13
ATOM     13  C2  FTA A   1       3.549  12.616  19.137  1.00  0.00     0.028 A 
ATOM     14  C4  FTA A   1       2.638  11.577  19.312  1.00  0.00     0.031 A 
ATOM     15  C6  FTA A   1       2.921  10.578  20.253  1.00  0.00     0.031 A 
ATOM     16  C7  FTA A   1       4.083  10.590  21.020  1.00  0.00     0.032 A 
ATOM     17  C5  FTA A   1       4.989  11.615  20.816  1.00  0.00     0.031 A 
ATOM     18  C3  FTA A   1       4.721  12.623  19.898  1.00  0.00     0.031 A 
BRANCH  16  19
ATOM     19  N8  FTA A   1       4.291   9.714  22.116  1.00  0.00    -0.356 N 
ATOM     20  H1  FTA A   1       5.118   9.102  22.080  1.00  0.00     0.166 HD
BRANCH  19  21
ATOM     21  C24 FTA A   1       3.448   9.611  23.263  1.00  0.00     0.032 A 
ATOM     22  C26 FTA A   1       2.933   8.404  23.673  1.00  0.00     0.029 A 
ATOM     23  C28 FTA A   1       1.989   8.395  24.682  1.00  0.00     0.002 A 
ATOM     24  C30 FTA A   1       1.568   9.552  25.316  1.00  0.00     0.000 A 
ATOM     25  C29 FTA A   1       2.101  10.756  24.943  1.00  0.00     0.002 A 
ATOM     26  C27 FTA A   1       3.054  10.769  23.918  1.00  0.00     0.029 A 
ENDBRANCH  19  21
ENDBRANCH  16  19
ENDBRANCH  11  13
ENDBRANCH   1  11
TORSDOF 5
ENDMDL
MODEL 6
REMARK VINA RESULT:    -6.629      2.466      3.861
REMARK INTER + INTRA:          -9.531
REMARK INTER:                  -8.582
REMARK INTRA:                  -0.949
REMARK UNBOUND:                -0.964
REMARK  5 active torsions:
REMARK  status: ('A' for Active; 'I' for Inactive)
REMARK    1  A    between atoms: N8_1  and  C24_2 
REMARK    2  A    between atoms: N8_1  and  C7_8 
REMARK    3  A    between atoms: C2_13  and  N1_14 
REMARK    4  A    between atoms: N1_14  and  C17_15 
REMARK    5  A    between atoms: C14_16  and  C13_19 
ROOT
ATOM      1  C17 FTA A   1       3.401  15.243  17.723  1.00  0.00     0.142 C 
ATOM      2  C14 FTA A   1       2.093  15.350  17.417  1.00  0.00     0.158 C 
ATOM      3  C18 FTA A   1       1.198  16.075  18.293  1.00  0.00     0.069 C 
ATOM      4  N21 FTA A   1       0.585  16.638  19.119  1.00  0.00    -0.197 NA
ENDROOT
BRANCH   2   5
ATOM      5  C13 FTA A   1       1.584  14.734  16.170  1.00  0.00     0.197 A 
ATOM      6  N15 FTA A   1       1.115  13.430  16.029  1.00  0.00    -0.093 NA
ATOM      7  N19 FTA A   1       0.780  13.249  14.694  1.00  0.00    -0.231 N 
ATOM      8  N20 FTA A   1       1.036  14.420  13.997  1.00  0.00    -0.017 NA
ATOM      9  H15 FTA A   1       0.402  12.382  14.285  1.00  0.00     0.200 HD
ATOM     10  N16 FTA A   1       1.524  15.347  14.912  1.00  0.00    -0.090 NA
ENDBRANCH   2   5
BRANCH   1  11
ATOM     11  N1  FTA A   1       3.965  14.020  17.753  1.00  0.00    -0.389 N 
ATOM     12  H11 FTA A   1       4.533  13.737  16.941  1.00  0.00     0.159 HD
BRANCH  11  13
ATOM     13  C2  FTA A   1       3.837  13.090  18.820  1.00  0.00     0.028 A 
ATOM     14  C4  FTA A   1       4.868  12.856  19.727  1.00  0.00     0.031 A 
ATOM     15  C6  FTA A   1       4.765  11.770  20.607  1.00  0.00     0.031 A 
ATOM     16  C7  FTA A   1       3.667  10.915  20.603  1.00  0.00     0.032 A 
ATOM     17  C5  FTA A   1       2.640  11.175  19.713  1.00  0.00     0.031 A 
ATOM     18  C3  FTA A   1       2.728  12.239  18.823  1.00  0.00     0.031 A 
BRANCH  16  19
ATOM     19  N8  FTA A   1       3.636   9.698  21.331  1.00  0.00    -0.356 N 
ATOM     20  H1  FTA A   1       4.119   8.888  20.918  1.00  0.00     0.166 HD
BRANCH  19  21
ATOM     21  C24 FTA A   1       2.990   9.504  22.590  1.00  0.00     0.032 A 
ATOM     22  C26 FTA A   1       2.125   8.457  22.802  1.00  0.00     0.029 A 
ATOM     23  C28 FTA A   1       1.402   8.423  23.979  1.00  0.00     0.002 A 
ATOM     24  C30 FTA A   1       1.540   9.386  24.963  1.00  0.00     0.000 A 
ATOM     25  C29 FTA A   1       2.426  10.414  24.780  1.00  0.00     0.002 A 
ATOM     26  C27 FTA A   1       3.157  10.453  23.588  1.00  0.00     0.029 A 
ENDBRANCH  19  21
ENDBRANCH  16  19
ENDBRANCH  11  13
ENDBRANCH   1  11
TORSDOF 5
ENDMDL
MODEL 7
REMARK VINA RESULT:    -6.577      1.424      2.024
REMARK INTER + INTRA:          -9.463
REMARK INTER:                  -8.408
REMARK INTRA:                  -1.055
REMARK UNBOUND:                -0.964
REMARK  5 active torsions:
REMARK  status: ('A' for Active; 'I' for Inactive)
REMARK    1  A    between atoms: N8_1  and  C24_2 
REMARK    2  A    between atoms: N8_1  and  C7_8 
REMARK    3  A    between atoms: C2_13  and  N1_14 
REMARK    4  A    between atoms: N1_14  and  C17_15 
REMARK    5  A    between atoms: C14_16  and  C13_19 
ROOT
ATOM      1  C17 FTA A   1       4.149  14.506  17.643  1.00  0.00     0.142 C 
ATOM      2  C14 FTA A   1       4.317  15.815  17.917  1.00  0.00     0.158 C 
ATOM      3  C18 FTA A   1       5.644  16.348  18.135  1.00  0.00     0.069 C 
ATOM      4  N21 FTA A   1       6.764  16.627  18.344  1.00  0.00    -0.197 NA
ENDROOT
BRANCH   2   5
ATOM      5  C13 FTA A   1       3.134  16.703  17.977  1.00  0.00     0.197 A 
ATOM      6  N15 FTA A   1       3.069  17.945  18.606  1.00  0.00    -0.093 NA
ATOM      7  N19 FTA A   1       1.771  18.418  18.465  1.00  0.00    -0.231 N 
ATOM      8  N20 FTA A   1       1.022  17.488  17.759  1.00  0.00    -0.017 NA
ATOM      9  H15 FTA A   1       1.420  19.316  18.827  1.00  0.00     0.200 HD
ATOM     10  N16 FTA A   1       1.868  16.429  17.446  1.00  0.00    -0.090 NA
ENDBRANCH   2   5
BRANCH   1  11
ATOM     11  N1  FTA A   1       3.287  13.789  18.389  1.00  0.00    -0.389 N 
ATOM     12  H11 FTA A   1       2.307  14.106  18.420  1.00  0.00     0.159 HD
BRANCH  11  13
ATOM     13  C2  FTA A   1       3.626  12.629  19.137  1.00  0.00     0.028 A 
ATOM     14  C4  FTA A   1       2.730  11.579  19.324  1.00  0.00     0.031 A 
ATOM     15  C6  FTA A   1       3.039  10.579  20.255  1.00  0.00     0.031 A 
ATOM     16  C7  FTA A   1       4.213  10.601  21.003  1.00  0.00     0.032 A 
ATOM     17  C5  FTA A   1       5.105  11.637  20.787  1.00  0.00     0.031 A 
ATOM     18  C3  FTA A   1       4.811  12.645  19.879  1.00  0.00     0.031 A 
BRANCH  16  19
ATOM     19  N8  FTA A   1       4.449   9.722  22.091  1.00  0.00    -0.356 N 
ATOM     20  H1  FTA A   1       5.327   9.184  22.081  1.00  0.00     0.166 HD
BRANCH  19  21
ATOM     21  C24 FTA A   1       3.571   9.524  23.199  1.00  0.00     0.032 A 
ATOM     22  C26 FTA A   1       3.104   8.275  23.533  1.00  0.00     0.029 A 
ATOM     23  C28 FTA A   1       2.125   8.171  24.503  1.00  0.00     0.002 A 
ATOM     24  C30 FTA A   1       1.621   9.275  25.170  1.00  0.00     0.000 A 
ATOM     25  C29 FTA A   1       2.105  10.521  24.873  1.00  0.00     0.002 A 
ATOM     26  C27 FTA A   1       3.094  10.629  23.889  1.00  0.00     0.029 A 
ENDBRANCH  19  21
ENDBRANCH  16  19
ENDBRANCH  11  13
ENDBRANCH   1  11
TORSDOF 5
ENDMDL
MODEL 8
REMARK VINA RESULT:    -6.568      2.866      3.873
REMARK INTER + INTRA:          -9.452
REMARK INTER:                  -8.450
REMARK INTRA:                  -1.002
REMARK UNBOUND:                -0.964
REMARK  5 active torsions:
REMARK  status: ('A' for Active; 'I' for Inactive)
REMARK    1  A    between atoms: N8_1  and  C24_2 
REMARK    2  A    between atoms: N8_1  and  C7_8 
REMARK    3  A    between atoms: C2_13  and  N1_14 
REMARK    4  A    between atoms: N1_14  and  C17_15 
REMARK    5  A    between atoms: C14_16  and  C13_19 
ROOT
ATOM      1  C17 FTA A   1       0.448  16.281  17.318  1.00  0.00     0.142 C 
ATOM      2  C14 FTA A   1       0.459  17.519  17.852  1.00  0.00     0.158 C 
ATOM      3  C18 FTA A   1      -0.418  18.544  17.329  1.00  0.00     0.069 C 
ATOM      4  N21 FTA A   1      -1.135  19.284  16.769  1.00  0.00    -0.197 NA
ENDROOT
BRANCH   2   5
ATOM      5  C13 FTA A   1       1.363  17.814  18.988  1.00  0.00     0.197 A 
ATOM      6  N15 FTA A   1       2.752  17.895  18.933  1.00  0.00    -0.093 NA
ATOM      7  N19 FTA A   1       3.207  18.144  20.221  1.00  0.00    -0.231 N 
ATOM      8  N20 FTA A   1       2.121  18.218  21.081  1.00  0.00    -0.017 NA
ATOM      9  H15 FTA A   1       4.194  18.256  20.495  1.00  0.00     0.200 HD
ATOM     10  N16 FTA A   1       0.976  18.024  20.316  1.00  0.00    -0.090 NA
ENDBRANCH   2   5
BRANCH   1  11
ATOM     11  N1  FTA A   1       1.612  15.738  16.911  1.00  0.00    -0.389 N 
ATOM     12  H11 FTA A   1       2.100  16.192  16.126  1.00  0.00     0.159 HD
BRANCH  11  13
ATOM     13  C2  FTA A   1       2.217  14.585  17.483  1.00  0.00     0.028 A 
ATOM     14  C4  FTA A   1       1.465  13.533  18.000  1.00  0.00     0.031 A 
ATOM     15  C6  FTA A   1       2.110  12.541  18.751  1.00  0.00     0.031 A 
ATOM     16  C7  FTA A   1       3.480  12.575  18.999  1.00  0.00     0.032 A 
ATOM     17  C5  FTA A   1       4.217  13.613  18.457  1.00  0.00     0.031 A 
ATOM     18  C3  FTA A   1       3.594  14.613  17.721  1.00  0.00     0.031 A 
BRANCH  16  19
ATOM     19  N8  FTA A   1       4.117  11.706  19.923  1.00  0.00    -0.356 N 
ATOM     20  H1  FTA A   1       5.145  11.742  19.973  1.00  0.00     0.166 HD
BRANCH  19  21
ATOM     21  C24 FTA A   1       3.449  10.788  20.789  1.00  0.00     0.032 A 
ATOM     22  C26 FTA A   1       3.373  11.002  22.145  1.00  0.00     0.029 A 
ATOM     23  C28 FTA A   1       2.868   9.996  22.947  1.00  0.00     0.002 A 
ATOM     24  C30 FTA A   1       2.408   8.796  22.432  1.00  0.00     0.000 A 
ATOM     25  C29 FTA A   1       2.444   8.586  21.079  1.00  0.00     0.002 A 
ATOM     26  C27 FTA A   1       2.958   9.601  20.265  1.00  0.00     0.029 A 
ENDBRANCH  19  21
ENDBRANCH  16  19
ENDBRANCH  11  13
ENDBRANCH   1  11
TORSDOF 5
ENDMDL
MODEL 9
REMARK VINA RESULT:    -6.445      3.355      4.417
REMARK INTER + INTRA:          -9.292
REMARK INTER:                  -8.328
REMARK INTRA:                  -0.964
REMARK UNBOUND:                -0.964
REMARK  5 active torsions:
REMARK  status: ('A' for Active; 'I' for Inactive)
REMARK    1  A    between atoms: N8_1  and  C24_2 
REMARK    2  A    between atoms: N8_1  and  C7_8 
REMARK    3  A    between atoms: C2_13  and  N1_14 
REMARK    4  A    between atoms: N1_14  and  C17_15 
REMARK    5  A    between atoms: C14_16  and  C13_19 
ROOT
ATOM      1  C17 FTA A   1       2.254  16.466  17.574  1.00  0.00     0.142 C 
ATOM      2  C14 FTA A   1       1.191  16.958  18.241  1.00  0.00     0.158 C 
ATOM      3  C18 FTA A   1       1.360  17.521  19.564  1.00  0.00     0.069 C 
ATOM      4  N21 FTA A   1       1.635  17.890  20.642  1.00  0.00    -0.197 NA
ENDROOT
BRANCH   2   5
ATOM      5  C13 FTA A   1      -0.145  16.932  17.603  1.00  0.00     0.197 A 
ATOM      6  N15 FTA A   1      -0.814  15.800  17.143  1.00  0.00    -0.093 NA
ATOM      7  N19 FTA A   1      -2.009  16.223  16.576  1.00  0.00    -0.231 N 
ATOM      8  N20 FTA A   1      -2.096  17.604  16.674  1.00  0.00    -0.017 NA
ATOM      9  H15 FTA A   1      -2.719  15.609  16.151  1.00  0.00     0.200 HD
ATOM     10  N16 FTA A   1      -0.945  18.044  17.320  1.00  0.00    -0.090 NA
ENDBRANCH   2   5
BRANCH   1  11
ATOM     11  N1  FTA A   1       2.192  15.213  17.084  1.00  0.00    -0.389 N 
ATOM     12  H11 FTA A   1       1.764  15.086  16.155  1.00  0.00     0.159 HD
BRANCH  11  13
ATOM     13  C2  FTA A   1       2.672  14.052  17.750  1.00  0.00     0.028 A 
ATOM     14  C4  FTA A   1       1.820  13.035  18.173  1.00  0.00     0.031 A 
ATOM     15  C6  FTA A   1       2.321  12.038  19.021  1.00  0.00     0.031 A 
ATOM     16  C7  FTA A   1       3.643  12.032  19.456  1.00  0.00     0.032 A 
ATOM     17  C5  FTA A   1       4.483  13.035  19.006  1.00  0.00     0.031 A 
ATOM     18  C3  FTA A   1       4.003  14.040  18.176  1.00  0.00     0.031 A 
BRANCH  16  19
ATOM     19  N8  FTA A   1       4.115  11.161  20.471  1.00  0.00    -0.356 N 
ATOM     20  H1  FTA A   1       5.103  11.252  20.750  1.00  0.00     0.166 HD
BRANCH  19  21
ATOM     21  C24 FTA A   1       3.335  10.170  21.139  1.00  0.00     0.032 A 
ATOM     22  C26 FTA A   1       2.799   9.099  20.463  1.00  0.00     0.029 A 
ATOM     23  C28 FTA A   1       1.914   8.272  21.128  1.00  0.00     0.002 A 
ATOM     24  C30 FTA A   1       1.572   8.464  22.456  1.00  0.00     0.000 A 
ATOM     25  C29 FTA A   1       2.128   9.505  23.151  1.00  0.00     0.002 A 
ATOM     26  C27 FTA A   1       3.022  10.346  22.479  1.00  0.00     0.029 A 
ENDBRANCH  19  21
ENDBRANCH  16  19
ENDBRANCH  11  13
ENDBRANCH   1  11
TORSDOF 5
ENDMDL
