MODEL 1
REMARK VINA RESULT:    -8.832      0.000      0.000
REMARK INTER + INTRA:         -10.600
REMARK INTER:                 -10.728
REMARK INTRA:                   0.129
REMARK UNBOUND:                -0.477
REMARK  3 active torsions:
REMARK  status: ('A' for Active; 'I' for Inactive)
REMARK    1  A    between atoms: O_2  and  C_3 
REMARK       I    between atoms: N_10  and  C_11 
REMARK    2  A    between atoms: C_11  and  C_13 
REMARK    3  A    between atoms: C_15  and  N_16 
ROOT
HETATM    1  C   UNL     1      -2.391  14.228  23.322  0.00  0.00     0.140 A 
HETATM    2  N   UNL     1      -3.043  13.156  23.833  0.00  0.00    -0.212 NA
HETATM    3  C   UNL     1      -4.099  12.724  23.147  0.00  0.00     0.200 A 
HETATM    4  N   UNL     1      -4.548  13.255  22.013  0.00  0.00    -0.218 NA
HETATM    5  C   UNL     1      -3.907  14.315  21.513  0.00  0.00     0.073 A 
HETATM    6  C   UNL     1      -4.325  14.816  20.287  0.00  0.00     0.033 A 
HETATM    7  C   UNL     1      -3.681  15.887  19.662  0.00  0.00     0.009 A 
HETATM    8  C   UNL     1      -2.632  16.528  20.308  0.00  0.00    -0.061 A 
HETATM    9  C   UNL     1      -1.800  17.573  19.631  0.00  0.00     0.048 C 
HETATM   10  C   UNL     1      -2.250  16.069  21.570  0.00  0.00     0.023 A 
HETATM   11  C   UNL     1      -2.819  14.907  22.160  0.00  0.00     0.028 A 
ENDROOT
BRANCH   1  12
HETATM   12  C   UNL     1      -1.078  14.605  23.999  0.00  0.00     0.274 C 
HETATM   13  N   UNL     1       0.128  14.667  23.314  0.00  0.00    -0.338 N 
HETATM   14  C   UNL     1       1.327  15.039  24.067  0.00  0.00     0.165 A 
HETATM   15  C   UNL     1       0.427  14.369  21.911  0.00  0.00     0.165 A 
HETATM   16  C   UNL     1       2.438  14.842  23.095  0.00  0.00    -0.030 A 
HETATM   17  C   UNL     1       1.929  14.427  21.864  0.00  0.00    -0.032 A 
HETATM   18  C   UNL     1       3.800  14.956  23.315  0.00  0.00     0.046 A 
HETATM   19  C   UNL     1       2.777  14.094  20.827  0.00  0.00     0.012 A 
HETATM   20  C   UNL     1       4.164  14.151  21.053  0.00  0.00     0.037 A 
HETATM   21  C   UNL     1       4.671  14.568  22.296  0.00  0.00     0.068 A 
HETATM   22  O   UNL     1      -1.061  14.895  25.199  0.00  0.00    -0.266 OA
BRANCH  21  23
HETATM   23  O   UNL     1       6.004  14.643  22.605  0.00  0.00    -0.356 OA
HETATM   24  C   UNL     1       6.637  15.858  22.216  0.00  0.00     0.210 C 
ENDBRANCH  21  23
ENDBRANCH   1  12
BRANCH   3  25
HETATM   25  N   UNL     1      -4.823  11.667  23.657  0.00  0.00    -0.271 NA
HETATM   26  H   UNL     1      -4.683  11.591  24.653  0.00  0.00     0.127 HD
HETATM   27  H   UNL     1      -5.781  11.736  23.337  0.00  0.00     0.127 HD
ENDBRANCH   3  25
TORSDOF 3
ENDMDL
MODEL 2
REMARK VINA RESULT:    -8.785      3.529      5.720
REMARK INTER + INTRA:         -10.546
REMARK INTER:                 -10.058
REMARK INTRA:                  -0.488
REMARK UNBOUND:                -0.477
REMARK  3 active torsions:
REMARK  status: ('A' for Active; 'I' for Inactive)
REMARK    1  A    between atoms: O_2  and  C_3 
REMARK       I    between atoms: N_10  and  C_11 
REMARK    2  A    between atoms: C_11  and  C_13 
REMARK    3  A    between atoms: C_15  and  N_16 
ROOT
HETATM    1  C   UNL     1      -3.000  13.439  20.769  0.00  0.00     0.140 A 
HETATM    2  N   UNL     1      -4.131  12.958  20.200  0.00  0.00    -0.212 NA
HETATM    3  C   UNL     1      -4.833  13.814  19.461  0.00  0.00     0.200 A 
HETATM    4  N   UNL     1      -4.506  15.084  19.239  0.00  0.00    -0.218 NA
HETATM    5  C   UNL     1      -3.393  15.559  19.805  0.00  0.00     0.073 A 
HETATM    6  C   UNL     1      -3.009  16.860  19.504  0.00  0.00     0.033 A 
HETATM    7  C   UNL     1      -1.832  17.422  20.007  0.00  0.00     0.009 A 
HETATM    8  C   UNL     1      -1.048  16.696  20.892  0.00  0.00    -0.061 A 
HETATM    9  C   UNL     1       0.298  17.174  21.340  0.00  0.00     0.048 C 
HETATM   10  C   UNL     1      -1.464  15.411  21.247  0.00  0.00     0.023 A 
HETATM   11  C   UNL     1      -2.593  14.786  20.651  0.00  0.00     0.028 A 
ENDROOT
BRANCH   1  12
HETATM   12  C   UNL     1      -2.101  12.416  21.454  0.00  0.00     0.274 C 
HETATM   13  N   UNL     1      -2.345  11.943  22.736  0.00  0.00    -0.338 N 
HETATM   14  C   UNL     1      -1.413  10.961  23.294  0.00  0.00     0.165 A 
HETATM   15  C   UNL     1      -3.401  12.305  23.685  0.00  0.00     0.165 A 
HETATM   16  C   UNL     1      -1.860  10.806  24.707  0.00  0.00    -0.030 A 
HETATM   17  C   UNL     1      -2.982  11.598  24.945  0.00  0.00    -0.032 A 
HETATM   18  C   UNL     1      -1.266  10.067  25.717  0.00  0.00     0.046 A 
HETATM   19  C   UNL     1      -3.525  11.689  26.211  0.00  0.00     0.012 A 
HETATM   20  C   UNL     1      -2.899  10.990  27.258  0.00  0.00     0.037 A 
HETATM   21  C   UNL     1      -1.767  10.195  27.013  0.00  0.00     0.068 A 
HETATM   22  O   UNL     1      -1.122  11.955  20.859  0.00  0.00    -0.266 OA
BRANCH  21  23
HETATM   23  O   UNL     1      -1.091   9.489  27.974  0.00  0.00    -0.356 OA
HETATM   24  C   UNL     1       0.238   9.123  27.617  0.00  0.00     0.210 C 
ENDBRANCH  21  23
ENDBRANCH   1  12
BRANCH   3  25
HETATM   25  N   UNL     1      -6.018  13.380  18.905  0.00  0.00    -0.271 NA
HETATM   26  H   UNL     1      -5.902  13.206  17.918  0.00  0.00     0.127 HD
HETATM   27  H   UNL     1      -6.386  12.618  19.461  0.00  0.00     0.127 HD
ENDBRANCH   3  25
TORSDOF 3
ENDMDL
MODEL 3
REMARK VINA RESULT:    -8.547      2.722      6.637
REMARK INTER + INTRA:         -10.273
REMARK INTER:                  -9.832
REMARK INTRA:                  -0.440
REMARK UNBOUND:                -0.477
REMARK  3 active torsions:
REMARK  status: ('A' for Active; 'I' for Inactive)
REMARK    1  A    between atoms: O_2  and  C_3 
REMARK       I    between atoms: N_10  and  C_11 
REMARK    2  A    between atoms: C_11  and  C_13 
REMARK    3  A    between atoms: C_15  and  N_16 
ROOT
HETATM    1  C   UNL     1       0.243  15.814  22.840  0.00  0.00     0.140 A 
HETATM    2  N   UNL     1       1.584  15.818  23.028  0.00  0.00    -0.212 NA
HETATM    3  C   UNL     1       2.320  16.306  22.032  0.00  0.00     0.200 A 
HETATM    4  N   UNL     1       1.842  16.788  20.888  0.00  0.00    -0.218 NA
HETATM    5  C   UNL     1       0.519  16.779  20.702  0.00  0.00     0.073 A 
HETATM    6  C   UNL     1       0.017  17.358  19.543  0.00  0.00     0.033 A 
HETATM    7  C   UNL     1      -1.355  17.442  19.289  0.00  0.00     0.009 A 
HETATM    8  C   UNL     1      -2.254  16.869  20.178  0.00  0.00    -0.061 A 
HETATM    9  C   UNL     1      -3.734  17.060  20.048  0.00  0.00     0.048 C 
HETATM   10  C   UNL     1      -1.750  16.229  21.312  0.00  0.00     0.023 A 
HETATM   11  C   UNL     1      -0.367  16.242  21.640  0.00  0.00     0.028 A 
ENDROOT
BRANCH   1  12
HETATM   12  C   UNL     1      -0.607  15.434  24.047  0.00  0.00     0.274 C 
HETATM   13  N   UNL     1      -1.302  14.235  24.128  0.00  0.00    -0.338 N 
HETATM   14  C   UNL     1      -2.087  13.977  25.336  0.00  0.00     0.165 A 
HETATM   15  C   UNL     1      -1.422  13.152  23.149  0.00  0.00     0.165 A 
HETATM   16  C   UNL     1      -2.822  12.719  25.025  0.00  0.00    -0.030 A 
HETATM   17  C   UNL     1      -2.467  12.257  23.757  0.00  0.00    -0.032 A 
HETATM   18  C   UNL     1      -3.784  12.077  25.787  0.00  0.00     0.046 A 
HETATM   19  C   UNL     1      -3.086  11.152  23.211  0.00  0.00     0.012 A 
HETATM   20  C   UNL     1      -4.104  10.523  23.949  0.00  0.00     0.037 A 
HETATM   21  C   UNL     1      -4.459  10.993  25.225  0.00  0.00     0.068 A 
HETATM   22  O   UNL     1      -0.679  16.194  25.017  0.00  0.00    -0.266 OA
BRANCH  21  23
HETATM   23  O   UNL     1      -5.444  10.449  26.007  0.00  0.00    -0.356 OA
HETATM   24  C   UNL     1      -6.409   9.678  25.297  0.00  0.00     0.210 C 
ENDBRANCH  21  23
ENDBRANCH   1  12
BRANCH   3  25
HETATM   25  N   UNL     1       3.693  16.283  22.160  0.00  0.00    -0.271 NA
HETATM   26  H   UNL     1       4.112  15.786  21.388  0.00  0.00     0.127 HD
HETATM   27  H   UNL     1       4.026  17.224  22.329  0.00  0.00     0.127 HD
ENDBRANCH   3  25
TORSDOF 3
ENDMDL
MODEL 4
REMARK VINA RESULT:    -8.241      3.629      6.067
REMARK INTER + INTRA:          -9.922
REMARK INTER:                  -9.421
REMARK INTRA:                  -0.501
REMARK UNBOUND:                -0.477
REMARK  3 active torsions:
REMARK  status: ('A' for Active; 'I' for Inactive)
REMARK    1  A    between atoms: O_2  and  C_3 
REMARK       I    between atoms: N_10  and  C_11 
REMARK    2  A    between atoms: C_11  and  C_13 
REMARK    3  A    between atoms: C_15  and  N_16 
ROOT
HETATM    1  C   UNL     1      -3.404  11.542  24.950  0.00  0.00     0.140 A 
HETATM    2  N   UNL     1      -4.388  11.948  25.789  0.00  0.00    -0.212 NA
HETATM    3  C   UNL     1      -4.293  11.542  27.053  0.00  0.00     0.200 A 
HETATM    4  N   UNL     1      -3.317  10.785  27.545  0.00  0.00    -0.218 NA
HETATM    5  C   UNL     1      -2.350  10.381  26.717  0.00  0.00     0.073 A 
HETATM    6  C   UNL     1      -1.287   9.662  27.250  0.00  0.00     0.033 A 
HETATM    7  C   UNL     1      -0.206   9.245  26.469  0.00  0.00     0.009 A 
HETATM    8  C   UNL     1      -0.213   9.487  25.102  0.00  0.00    -0.061 A 
HETATM    9  C   UNL     1       0.980   9.210  24.239  0.00  0.00     0.048 C 
HETATM   10  C   UNL     1      -1.309  10.153  24.551  0.00  0.00     0.023 A 
HETATM   11  C   UNL     1      -2.355  10.686  25.353  0.00  0.00     0.028 A 
ENDROOT
BRANCH   1  12
HETATM   12  C   UNL     1      -3.408  12.158  23.556  0.00  0.00     0.274 C 
HETATM   13  N   UNL     1      -2.575  13.210  23.199  0.00  0.00    -0.338 N 
HETATM   14  C   UNL     1      -2.666  13.723  21.831  0.00  0.00     0.165 A 
HETATM   15  C   UNL     1      -1.606  13.956  24.005  0.00  0.00     0.165 A 
HETATM   16  C   UNL     1      -1.787  14.925  21.839  0.00  0.00    -0.030 A 
HETATM   17  C   UNL     1      -1.200  15.081  23.095  0.00  0.00    -0.032 A 
HETATM   18  C   UNL     1      -1.585  15.847  20.825  0.00  0.00     0.046 A 
HETATM   19  C   UNL     1      -0.412  16.179  23.372  0.00  0.00     0.012 A 
HETATM   20  C   UNL     1      -0.243  17.152  22.371  0.00  0.00     0.037 A 
HETATM   21  C   UNL     1      -0.838  16.991  21.109  0.00  0.00     0.068 A 
HETATM   22  O   UNL     1      -4.155  11.708  22.683  0.00  0.00    -0.266 OA
BRANCH  21  23
HETATM   23  O   UNL     1      -0.735  17.891  20.081  0.00  0.00    -0.356 OA
HETATM   24  C   UNL     1       0.477  17.808  19.337  0.00  0.00     0.210 C 
ENDBRANCH  21  23
ENDBRANCH   1  12
BRANCH   3  25
HETATM   25  N   UNL     1      -5.300  11.889  27.929  0.00  0.00    -0.271 NA
HETATM   26  H   UNL     1      -6.192  11.563  27.590  0.00  0.00     0.127 HD
HETATM   27  H   UNL     1      -5.037  11.606  28.865  0.00  0.00     0.127 HD
ENDBRANCH   3  25
TORSDOF 3
ENDMDL
MODEL 5
REMARK VINA RESULT:    -8.172      3.439      5.621
REMARK INTER + INTRA:          -9.843
REMARK INTER:                  -9.355
REMARK INTRA:                  -0.488
REMARK UNBOUND:                -0.477
REMARK  3 active torsions:
REMARK  status: ('A' for Active; 'I' for Inactive)
REMARK    1  A    between atoms: O_2  and  C_3 
REMARK       I    between atoms: N_10  and  C_11 
REMARK    2  A    between atoms: C_11  and  C_13 
REMARK    3  A    between atoms: C_15  and  N_16 
ROOT
HETATM    1  C   UNL     1      -0.001  15.745  22.779  0.00  0.00     0.140 A 
HETATM    2  N   UNL     1       1.266  16.215  22.868  0.00  0.00    -0.212 NA
HETATM    3  C   UNL     1       1.657  17.053  21.910  0.00  0.00     0.200 A 
HETATM    4  N   UNL     1       0.903  17.460  20.893  0.00  0.00    -0.218 NA
HETATM    5  C   UNL     1      -0.345  16.993  20.803  0.00  0.00     0.073 A 
HETATM    6  C   UNL     1      -1.158  17.484  19.788  0.00  0.00     0.033 A 
HETATM    7  C   UNL     1      -2.492  17.093  19.649  0.00  0.00     0.009 A 
HETATM    8  C   UNL     1      -3.017  16.130  20.501  0.00  0.00    -0.061 A 
HETATM    9  C   UNL     1      -4.474  15.784  20.509  0.00  0.00     0.048 C 
HETATM   10  C   UNL     1      -2.186  15.586  21.481  0.00  0.00     0.023 A 
HETATM   11  C   UNL     1      -0.865  16.063  21.707  0.00  0.00     0.028 A 
ENDROOT
BRANCH   1  12
HETATM   12  C   UNL     1      -0.509  14.941  23.970  0.00  0.00     0.274 C 
HETATM   13  N   UNL     1      -0.209  13.598  24.150  0.00  0.00    -0.338 N 
HETATM   14  C   UNL     1      -0.752  12.926  25.332  0.00  0.00     0.165 A 
HETATM   15  C   UNL     1       0.559  12.685  23.301  0.00  0.00     0.165 A 
HETATM   16  C   UNL     1      -0.393  11.495  25.129  0.00  0.00    -0.030 A 
HETATM   17  C   UNL     1       0.334  11.346  23.948  0.00  0.00    -0.032 A 
HETATM   18  C   UNL     1      -0.749  10.403  25.903  0.00  0.00     0.046 A 
HETATM   19  C   UNL     1       0.703  10.094  23.500  0.00  0.00     0.012 A 
HETATM   20  C   UNL     1       0.300   8.972  24.246  0.00  0.00     0.037 A 
HETATM   21  C   UNL     1      -0.434   9.128  25.434  0.00  0.00     0.068 A 
HETATM   22  O   UNL     1      -1.197  15.487  24.837  0.00  0.00    -0.266 OA
BRANCH  21  23
HETATM   23  O   UNL     1      -0.875   8.092  26.215  0.00  0.00    -0.356 OA
HETATM   24  C   UNL     1      -0.818   8.338  27.617  0.00  0.00     0.210 C 
ENDBRANCH  21  23
ENDBRANCH   1  12
BRANCH   3  25
HETATM   25  N   UNL     1       2.955  17.515  21.934  0.00  0.00    -0.271 NA
HETATM   26  H   UNL     1       3.197  17.841  22.857  0.00  0.00     0.127 HD
HETATM   27  H   UNL     1       3.563  16.817  21.524  0.00  0.00     0.127 HD
ENDBRANCH   3  25
TORSDOF 3
ENDMDL
MODEL 6
REMARK VINA RESULT:    -8.131      3.599      6.322
REMARK INTER + INTRA:          -9.796
REMARK INTER:                  -9.420
REMARK INTRA:                  -0.376
REMARK UNBOUND:                -0.477
REMARK  3 active torsions:
REMARK  status: ('A' for Active; 'I' for Inactive)
REMARK    1  A    between atoms: O_2  and  C_3 
REMARK       I    between atoms: N_10  and  C_11 
REMARK    2  A    between atoms: C_11  and  C_13 
REMARK    3  A    between atoms: C_15  and  N_16 
ROOT
HETATM    1  C   UNL     1      -2.167  12.510  26.042  0.00  0.00     0.140 A 
HETATM    2  N   UNL     1      -3.404  12.704  26.559  0.00  0.00    -0.212 NA
HETATM    3  C   UNL     1      -3.927  11.689  27.242  0.00  0.00     0.200 A 
HETATM    4  N   UNL     1      -3.330  10.520  27.458  0.00  0.00    -0.218 NA
HETATM    5  C   UNL     1      -2.113  10.327  26.945  0.00  0.00     0.073 A 
HETATM    6  C   UNL     1      -1.457   9.139  27.241  0.00  0.00     0.033 A 
HETATM    7  C   UNL     1      -0.160   8.873  26.792  0.00  0.00     0.009 A 
HETATM    8  C   UNL     1       0.479   9.785  25.964  0.00  0.00    -0.061 A 
HETATM    9  C   UNL     1       1.920   9.638  25.580  0.00  0.00     0.048 C 
HETATM   10  C   UNL     1      -0.200  10.952  25.611  0.00  0.00     0.023 A 
HETATM   11  C   UNL     1      -1.470  11.286  26.157  0.00  0.00     0.028 A 
ENDROOT
BRANCH   1  12
HETATM   12  C   UNL     1      -1.492  13.730  25.426  0.00  0.00     0.274 C 
HETATM   13  N   UNL     1      -1.909  14.290  24.226  0.00  0.00    -0.338 N 
HETATM   14  C   UNL     1      -1.186  15.462  23.728  0.00  0.00     0.165 A 
HETATM   15  C   UNL     1      -2.970  13.866  23.310  0.00  0.00     0.165 A 
HETATM   16  C   UNL     1      -1.764  15.692  22.375  0.00  0.00    -0.030 A 
HETATM   17  C   UNL     1      -2.768  14.759  22.117  0.00  0.00    -0.032 A 
HETATM   18  C   UNL     1      -1.373  16.618  21.422  0.00  0.00     0.046 A 
HETATM   19  C   UNL     1      -3.391  14.716  20.886  0.00  0.00     0.012 A 
HETATM   20  C   UNL     1      -2.966  15.613  19.891  0.00  0.00     0.037 A 
HETATM   21  C   UNL     1      -1.952  16.549  20.155  0.00  0.00     0.068 A 
HETATM   22  O   UNL     1      -0.551  14.277  26.007  0.00  0.00    -0.266 OA
BRANCH  21  23
HETATM   23  O   UNL     1      -1.471  17.451  19.242  0.00  0.00    -0.356 OA
HETATM   24  C   UNL     1      -0.085  17.750  19.375  0.00  0.00     0.210 C 
ENDBRANCH  21  23
ENDBRANCH   1  12
BRANCH   3  25
HETATM   25  N   UNL     1      -5.205  11.826  27.742  0.00  0.00    -0.271 NA
HETATM   26  H   UNL     1      -5.727  10.972  27.615  0.00  0.00     0.127 HD
HETATM   27  H   UNL     1      -5.155  12.192  28.684  0.00  0.00     0.127 HD
ENDBRANCH   3  25
TORSDOF 3
ENDMDL
MODEL 7
REMARK VINA RESULT:    -8.029      3.553      5.137
REMARK INTER + INTRA:          -9.680
REMARK INTER:                  -9.135
REMARK INTRA:                  -0.544
REMARK UNBOUND:                -0.477
REMARK  3 active torsions:
REMARK  status: ('A' for Active; 'I' for Inactive)
REMARK    1  A    between atoms: O_2  and  C_3 
REMARK       I    between atoms: N_10  and  C_11 
REMARK    2  A    between atoms: C_11  and  C_13 
REMARK    3  A    between atoms: C_15  and  N_16 
ROOT
HETATM    1  C   UNL     1      -3.534  14.186  22.256  0.00  0.00     0.140 A 
HETATM    2  N   UNL     1      -4.522  13.665  21.490  0.00  0.00    -0.212 NA
HETATM    3  C   UNL     1      -4.607  14.121  20.242  0.00  0.00     0.200 A 
HETATM    4  N   UNL     1      -3.800  15.029  19.701  0.00  0.00    -0.218 NA
HETATM    5  C   UNL     1      -2.829  15.546  20.458  0.00  0.00     0.073 A 
HETATM    6  C   UNL     1      -1.937  16.431  19.866  0.00  0.00     0.033 A 
HETATM    7  C   UNL     1      -0.859  16.980  20.567  0.00  0.00     0.009 A 
HETATM    8  C   UNL     1      -0.702  16.696  21.917  0.00  0.00    -0.061 A 
HETATM    9  C   UNL     1       0.513  17.119  22.683  0.00  0.00     0.048 C 
HETATM   10  C   UNL     1      -1.634  15.857  22.531  0.00  0.00     0.023 A 
HETATM   11  C   UNL     1      -2.663  15.201  21.802  0.00  0.00     0.028 A 
ENDROOT
BRANCH   1  12
HETATM   12  C   UNL     1      -3.317  13.531  23.616  0.00  0.00     0.274 C 
HETATM   13  N   UNL     1      -2.354  12.556  23.834  0.00  0.00    -0.338 N 
HETATM   14  C   UNL     1      -2.236  11.997  25.181  0.00  0.00     0.165 A 
HETATM   15  C   UNL     1      -1.420  11.931  22.893  0.00  0.00     0.165 A 
HETATM   16  C   UNL     1      -1.256  10.886  25.025  0.00  0.00    -0.030 A 
HETATM   17  C   UNL     1      -0.808  10.824  23.706  0.00  0.00    -0.032 A 
HETATM   18  C   UNL     1      -0.852   9.959  25.972  0.00  0.00     0.046 A 
HETATM   19  C   UNL     1       0.041   9.816  23.297  0.00  0.00     0.012 A 
HETATM   20  C   UNL     1       0.415   8.836  24.233  0.00  0.00     0.037 A 
HETATM   21  C   UNL     1      -0.041   8.902  25.560  0.00  0.00     0.068 A 
HETATM   22  O   UNL     1      -3.996  13.881  24.586  0.00  0.00    -0.266 OA
BRANCH  21  23
HETATM   23  O   UNL     1       0.265   7.986  26.533  0.00  0.00    -0.356 OA
HETATM   24  C   UNL     1      -0.794   7.710  27.444  0.00  0.00     0.210 C 
ENDBRANCH  21  23
ENDBRANCH   1  12
BRANCH   3  25
HETATM   25  N   UNL     1      -5.629  13.655  19.443  0.00  0.00    -0.271 NA
HETATM   26  H   UNL     1      -5.828  12.688  19.651  0.00  0.00     0.127 HD
HETATM   27  H   UNL     1      -6.409  14.300  19.492  0.00  0.00     0.127 HD
ENDBRANCH   3  25
TORSDOF 3
ENDMDL
MODEL 8
REMARK VINA RESULT:    -8.023      3.893      5.396
REMARK INTER + INTRA:          -9.672
REMARK INTER:                  -9.135
REMARK INTRA:                  -0.537
REMARK UNBOUND:                -0.477
REMARK  3 active torsions:
REMARK  status: ('A' for Active; 'I' for Inactive)
REMARK    1  A    between atoms: O_2  and  C_3 
REMARK       I    between atoms: N_10  and  C_11 
REMARK    2  A    between atoms: C_11  and  C_13 
REMARK    3  A    between atoms: C_15  and  N_16 
ROOT
HETATM    1  C   UNL     1      -3.142  14.101  23.531  0.00  0.00     0.140 A 
HETATM    2  N   UNL     1      -4.307  13.658  23.000  0.00  0.00    -0.212 NA
HETATM    3  C   UNL     1      -4.611  14.103  21.783  0.00  0.00     0.200 A 
HETATM    4  N   UNL     1      -3.863  14.931  21.060  0.00  0.00    -0.218 NA
HETATM    5  C   UNL     1      -2.717  15.371  21.585  0.00  0.00     0.073 A 
HETATM    6  C   UNL     1      -1.897  16.169  20.796  0.00  0.00     0.033 A 
HETATM    7  C   UNL     1      -0.656  16.631  21.243  0.00  0.00     0.009 A 
HETATM    8  C   UNL     1      -0.247  16.353  22.540  0.00  0.00    -0.061 A 
HETATM    9  C   UNL     1       1.131  16.679  23.028  0.00  0.00     0.048 C 
HETATM   10  C   UNL     1      -1.096  15.606  23.359  0.00  0.00     0.023 A 
HETATM   11  C   UNL     1      -2.304  15.031  22.876  0.00  0.00     0.028 A 
ENDROOT
BRANCH   1  12
HETATM   12  C   UNL     1      -2.703  13.449  24.837  0.00  0.00     0.274 C 
HETATM   13  N   UNL     1      -1.907  12.312  24.876  0.00  0.00    -0.338 N 
HETATM   14  C   UNL     1      -1.547  11.772  26.188  0.00  0.00     0.165 A 
HETATM   15  C   UNL     1      -1.375  11.500  23.780  0.00  0.00     0.165 A 
HETATM   16  C   UNL     1      -0.856  10.491  25.872  0.00  0.00    -0.030 A 
HETATM   17  C   UNL     1      -0.782  10.315  24.490  0.00  0.00    -0.032 A 
HETATM   18  C   UNL     1      -0.394   9.526  26.752  0.00  0.00     0.046 A 
HETATM   19  C   UNL     1      -0.262   9.154  23.955  0.00  0.00     0.012 A 
HETATM   20  C   UNL     1       0.159   8.142  24.836  0.00  0.00     0.037 A 
HETATM   21  C   UNL     1       0.080   8.324  26.227  0.00  0.00     0.068 A 
HETATM   22  O   UNL     1      -3.034  13.944  25.918  0.00  0.00    -0.266 OA
BRANCH  21  23
HETATM   23  O   UNL     1       0.458   7.389  27.155  0.00  0.00    -0.356 OA
HETATM   24  C   UNL     1      -0.592   6.537  27.603  0.00  0.00     0.210 C 
ENDBRANCH  21  23
ENDBRANCH   1  12
BRANCH   3  25
HETATM   25  N   UNL     1      -5.812  13.717  21.226  0.00  0.00    -0.271 NA
HETATM   26  H   UNL     1      -6.259  13.018  21.800  0.00  0.00     0.127 HD
HETATM   27  H   UNL     1      -6.356  14.542  21.007  0.00  0.00     0.127 HD
ENDBRANCH   3  25
TORSDOF 3
ENDMDL
MODEL 9
REMARK VINA RESULT:    -7.777      3.731      5.567
REMARK INTER + INTRA:          -9.391
REMARK INTER:                  -8.914
REMARK INTRA:                  -0.477
REMARK UNBOUND:                -0.477
REMARK  3 active torsions:
REMARK  status: ('A' for Active; 'I' for Inactive)
REMARK    1  A    between atoms: O_2  and  C_3 
REMARK       I    between atoms: N_10  and  C_11 
REMARK    2  A    between atoms: C_11  and  C_13 
REMARK    3  A    between atoms: C_15  and  N_16 
ROOT
HETATM    1  C   UNL     1      -1.002  15.061  23.034  0.00  0.00     0.140 A 
HETATM    2  N   UNL     1       0.092  15.803  23.333  0.00  0.00    -0.212 NA
HETATM    3  C   UNL     1       0.383  16.794  22.494  0.00  0.00     0.200 A 
HETATM    4  N   UNL     1      -0.314  17.108  21.405  0.00  0.00    -0.218 NA
HETATM    5  C   UNL     1      -1.389  16.373  21.108  0.00  0.00     0.073 A 
HETATM    6  C   UNL     1      -2.162  16.754  20.018  0.00  0.00     0.033 A 
HETATM    7  C   UNL     1      -3.333  16.077  19.665  0.00  0.00     0.009 A 
HETATM    8  C   UNL     1      -3.710  14.943  20.372  0.00  0.00    -0.061 A 
HETATM    9  C   UNL     1      -5.028  14.267  20.149  0.00  0.00     0.048 C 
HETATM   10  C   UNL     1      -2.900  14.519  21.427  0.00  0.00     0.023 A 
HETATM   11  C   UNL     1      -1.775  15.267  21.870  0.00  0.00     0.028 A 
ENDROOT
BRANCH   1  12
HETATM   12  C   UNL     1      -1.443  14.053  24.088  0.00  0.00     0.274 C 
HETATM   13  N   UNL     1      -0.859  12.800  24.219  0.00  0.00    -0.338 N 
HETATM   14  C   UNL     1      -1.365  11.914  25.268  0.00  0.00     0.165 A 
HETATM   15  C   UNL     1       0.198  12.169  23.425  0.00  0.00     0.165 A 
HETATM   16  C   UNL     1      -0.657  10.626  25.023  0.00  0.00    -0.030 A 
HETATM   17  C   UNL     1       0.219  10.759  23.945  0.00  0.00    -0.032 A 
HETATM   18  C   UNL     1      -0.835   9.413  25.667  0.00  0.00     0.046 A 
HETATM   19  C   UNL     1       0.923   9.670  23.472  0.00  0.00     0.012 A 
HETATM   20  C   UNL     1       0.710   8.420  24.079  0.00  0.00     0.037 A 
HETATM   21  C   UNL     1      -0.175   8.292  25.163  0.00  0.00     0.068 A 
HETATM   22  O   UNL     1      -2.338  14.344  24.887  0.00  0.00    -0.266 OA
BRANCH  21  23
HETATM   23  O   UNL     1      -0.450   7.113  25.806  0.00  0.00    -0.356 OA
HETATM   24  C   UNL     1      -0.268   5.946  25.011  0.00  0.00     0.210 C 
ENDBRANCH  21  23
ENDBRANCH   1  12
BRANCH   3  25
HETATM   25  N   UNL     1       1.516  17.543  22.733  0.00  0.00    -0.271 NA
HETATM   26  H   UNL     1       2.084  17.107  23.444  0.00  0.00     0.127 HD
HETATM   27  H   UNL     1       1.970  17.748  21.851  0.00  0.00     0.127 HD
ENDBRANCH   3  25
TORSDOF 3
ENDMDL
