REMARK  3 active torsions:
REMARK  status: ('A' for Active; 'I' for Inactive)
REMARK    1  A    between atoms: O_2  and  C_3 
REMARK       I    between atoms: N_10  and  C_11 
REMARK    2  A    between atoms: C_11  and  C_13 
REMARK    3  A    between atoms: C_15  and  N_16 
ROOT
HETATM    1  C   UNL     1       7.180  -0.580  -5.950  0.00  0.00     0.140 A 
HETATM    2  N   UNL     1       6.956   0.521  -5.193  0.00  0.00    -0.212 NA
HETATM    3  C   UNL     1       7.281   1.691  -5.738  0.00  0.00     0.200 A 
HETATM    4  N   UNL     1       7.794   1.855  -6.954  0.00  0.00    -0.218 NA
HETATM    5  C   UNL     1       8.019   0.769  -7.698  0.00  0.00     0.073 A 
HETATM    6  C   UNL     1       8.476   0.948  -8.998  0.00  0.00     0.033 A 
HETATM    7  C   UNL     1       8.688  -0.127  -9.866  0.00  0.00     0.009 A 
HETATM    8  C   UNL     1       8.509  -1.425  -9.407  0.00  0.00    -0.061 A 
HETATM    9  C   UNL     1       8.564  -2.608 -10.324  0.00  0.00     0.048 C 
HETATM   10  C   UNL     1       8.112  -1.612  -8.082  0.00  0.00     0.023 A 
HETATM   11  C   UNL     1       7.779  -0.525  -7.228  0.00  0.00     0.028 A 
ENDROOT
BRANCH   1  12
HETATM   12  C   UNL     1       6.636  -1.896  -5.406  0.00  0.00     0.274 C 
HETATM   13  N   UNL     1       5.971  -1.987  -4.191  0.00  0.00    -0.338 N 
HETATM   14  C   UNL     1       5.492  -3.304  -3.768  0.00  0.00     0.165 A 
HETATM   15  C   UNL     1       5.690  -0.951  -3.194  0.00  0.00     0.165 A 
HETATM   16  C   UNL     1       4.996  -3.078  -2.382  0.00  0.00    -0.030 A 
HETATM   17  C   UNL     1       5.136  -1.734  -2.036  0.00  0.00    -0.032 A 
HETATM   18  C   UNL     1       4.523  -4.014  -1.477  0.00  0.00     0.046 A 
HETATM   19  C   UNL     1       4.826  -1.298  -0.764  0.00  0.00     0.012 A 
HETATM   20  C   UNL     1       4.398  -2.246   0.182  0.00  0.00     0.037 A 
HETATM   21  C   UNL     1       4.261  -3.599  -0.171  0.00  0.00     0.068 A 
HETATM   22  O   UNL     1       6.756  -2.934  -6.063  0.00  0.00    -0.266 OA
BRANCH  21  23
HETATM   23  O   UNL     1       3.861  -4.589   0.688  0.00  0.00    -0.356 OA
HETATM   24  C   UNL     1       4.339  -4.448   2.022  0.00  0.00     0.210 C 
ENDBRANCH  21  23
ENDBRANCH   1  12
BRANCH   3  25
HETATM   25  N   UNL     1       7.117   2.833  -4.983  0.00  0.00    -0.271 NA
HETATM   26  H   UNL     1       7.218   2.625  -4.001  0.00  0.00     0.127 HD
HETATM   27  H   UNL     1       7.709   3.565  -5.356  0.00  0.00     0.127 HD
ENDBRANCH   3  25
TORSDOF 3
