MODEL 1
REMARK VINA RESULT:    -8.884      0.000      0.000
REMARK INTER + INTRA:         -12.598
REMARK INTER:                 -11.601
REMARK INTRA:                  -0.997
REMARK UNBOUND:                -1.377
REMARK  5 active torsions:
REMARK  status: ('A' for Active; 'I' for Inactive)
REMARK       I    between atoms: C_2  and  N_3 
REMARK    1  A    between atoms: C_2  and  C_17 
REMARK    2  A    between atoms: N_3  and  C_5 
REMARK    3  A    between atoms: C_8  and  N_9 
REMARK    4  A    between atoms: C_18  and  O_19 
REMARK    5  A    between atoms: C_25  and  C_26 
REMARK       I    between atoms: C_26  and  N_28 
ROOT
HETATM    1  C   UNL     1      -2.306  13.714  21.742  0.00  0.00     0.066 A 
HETATM    2  C   UNL     1      -3.243  13.936  20.713  0.00  0.00     0.083 A 
HETATM    3  C   UNL     1      -3.214  15.079  19.911  0.00  0.00     0.069 A 
HETATM    4  C   UNL     1      -2.199  15.999  20.162  0.00  0.00     0.065 A 
HETATM    5  N   UNL     1      -1.884  17.183  19.560  0.00  0.00    -0.277 N 
HETATM    6  H   UNL     1      -2.358  17.622  18.778  0.00  0.00     0.189 HD
HETATM    7  N   UNL     1      -0.805  17.790  20.073  0.00  0.00    -0.168 NA
HETATM    8  C   UNL     1      -0.351  16.932  21.008  0.00  0.00     0.157 C 
HETATM    9  C   UNL     1      -1.259  15.838  21.171  0.00  0.00     0.029 A 
HETATM   10  C   UNL     1      -1.351  14.711  22.014  0.00  0.00     0.036 A 
ENDROOT
BRANCH   1  11
HETATM   11  C   UNL     1      -2.401  12.457  22.555  0.00  0.00     0.260 C 
HETATM   12  O   UNL     1      -3.551  12.164  22.899  0.00  0.00    -0.267 OA
HETATM   13  N   UNL     1      -1.258  11.685  22.857  0.00  0.00    -0.318 N 
HETATM   14  C   UNL     1      -0.053  11.721  22.021  0.00  0.00     0.159 C 
BRANCH  13  15
HETATM   15  C   UNL     1      -1.235  10.765  23.980  0.00  0.00     0.037 A 
HETATM   16  C   UNL     1      -1.780  11.085  25.226  0.00  0.00     0.032 A 
HETATM   17  C   UNL     1      -1.628  10.236  26.333  0.00  0.00     0.031 A 
HETATM   18  C   UNL     1      -0.924   9.032  26.261  0.00  0.00     0.030 A 
HETATM   19  C   UNL     1      -0.440   8.673  25.005  0.00  0.00     0.031 A 
HETATM   20  C   UNL     1      -0.586   9.521  23.894  0.00  0.00     0.032 A 
BRANCH  18  21
HETATM   21  N   UNL     1      -0.744   8.266  27.397  0.00  0.00    -0.377 N 
HETATM   22  C   UNL     1      -0.824   6.798  27.391  0.00  0.00     0.149 C 
HETATM   23  C   UNL     1       0.561   6.160  27.563  0.00  0.00     0.187 C 
HETATM   24  O   UNL     1       1.239   6.669  28.723  0.00  0.00    -0.388 OA
HETATM   25  C   UNL     1       1.420   8.089  28.600  0.00  0.00     0.187 C 
HETATM   26  C   UNL     1       0.076   8.828  28.490  0.00  0.00     0.149 C 
ENDBRANCH  18  21
ENDBRANCH  13  15
ENDBRANCH   1  11
BRANCH   2  27
HETATM   27  O   UNL     1      -4.264  13.062  20.429  0.00  0.00    -0.360 OA
HETATM   28  H   UNL     1      -4.983  13.580  19.998  0.00  0.00     0.217 HD
ENDBRANCH   2  27
BRANCH   8  29
HETATM   29  C   UNL     1       0.925  17.117  21.731  0.00  0.00     0.275 C 
HETATM   30  O   UNL     1       0.977  17.883  22.697  0.00  0.00    -0.266 OA
HETATM   31  N   UNL     1       2.039  16.355  21.345  0.00  0.00    -0.347 N 
HETATM   32  C   UNL     1       3.351  16.672  21.905  0.00  0.00     0.126 C 
HETATM   33  C   UNL     1       2.031  15.304  20.323  0.00  0.00     0.126 C 
HETATM   34  C   UNL     1       4.065  15.417  22.411  0.00  0.00     0.020 C 
HETATM   35  C   UNL     1       4.128  14.343  21.327  0.00  0.00     0.003 C 
HETATM   36  C   UNL     1       2.729  14.039  20.812  0.00  0.00     0.020 C 
ENDBRANCH   8  29
TORSDOF 5
ENDMDL
MODEL 2
REMARK VINA RESULT:    -8.345      1.364      1.794
REMARK INTER + INTRA:         -11.917
REMARK INTER:                 -10.953
REMARK INTRA:                  -0.963
REMARK UNBOUND:                -1.377
REMARK  5 active torsions:
REMARK  status: ('A' for Active; 'I' for Inactive)
REMARK       I    between atoms: C_2  and  N_3 
REMARK    1  A    between atoms: C_2  and  C_17 
REMARK    2  A    between atoms: N_3  and  C_5 
REMARK    3  A    between atoms: C_8  and  N_9 
REMARK    4  A    between atoms: C_18  and  O_19 
REMARK    5  A    between atoms: C_25  and  C_26 
REMARK       I    between atoms: C_26  and  N_28 
ROOT
HETATM    1  C   UNL     1      -2.627  13.880  23.365  0.00  0.00     0.066 A 
HETATM    2  C   UNL     1      -3.743  13.850  22.505  0.00  0.00     0.083 A 
HETATM    3  C   UNL     1      -3.874  14.724  21.423  0.00  0.00     0.069 A 
HETATM    4  C   UNL     1      -2.838  15.632  21.217  0.00  0.00     0.065 A 
HETATM    5  N   UNL     1      -2.651  16.587  20.260  0.00  0.00    -0.277 N 
HETATM    6  H   UNL     1      -3.267  16.813  19.486  0.00  0.00     0.189 HD
HETATM    7  N   UNL     1      -1.501  17.264  20.377  0.00  0.00    -0.168 NA
HETATM    8  C   UNL     1      -0.872  16.679  21.416  0.00  0.00     0.157 C 
HETATM    9  C   UNL     1      -1.724  15.715  22.041  0.00  0.00     0.029 A 
HETATM   10  C   UNL     1      -1.647  14.870  23.169  0.00  0.00     0.036 A 
ENDROOT
BRANCH   1  11
HETATM   11  C   UNL     1      -2.557  12.903  24.501  0.00  0.00     0.260 C 
HETATM   12  O   UNL     1      -3.178  13.256  25.510  0.00  0.00    -0.267 OA
HETATM   13  N   UNL     1      -1.857  11.683  24.383  0.00  0.00    -0.318 N 
HETATM   14  C   UNL     1      -1.617  11.047  23.083  0.00  0.00     0.159 C 
BRANCH  13  15
HETATM   15  C   UNL     1      -1.388  10.957  25.551  0.00  0.00     0.037 A 
HETATM   16  C   UNL     1      -0.110  10.399  25.626  0.00  0.00     0.032 A 
HETATM   17  C   UNL     1       0.275   9.589  26.706  0.00  0.00     0.031 A 
HETATM   18  C   UNL     1      -0.590   9.289  27.761  0.00  0.00     0.030 A 
HETATM   19  C   UNL     1      -1.841   9.900  27.727  0.00  0.00     0.031 A 
HETATM   20  C   UNL     1      -2.233  10.709  26.646  0.00  0.00     0.032 A 
BRANCH  18  21
HETATM   21  N   UNL     1      -0.185   8.430  28.765  0.00  0.00    -0.377 N 
HETATM   22  C   UNL     1       0.901   7.456  28.593  0.00  0.00     0.149 C 
HETATM   23  C   UNL     1       2.157   7.872  29.370  0.00  0.00     0.187 C 
HETATM   24  O   UNL     1       1.864   8.130  30.753  0.00  0.00    -0.388 OA
HETATM   25  C   UNL     1       0.906   9.195  30.860  0.00  0.00     0.187 C 
HETATM   26  C   UNL     1      -0.420   8.842  30.164  0.00  0.00     0.149 C 
ENDBRANCH  18  21
ENDBRANCH  13  15
ENDBRANCH   1  11
BRANCH   2  27
HETATM   27  O   UNL     1      -4.791  12.978  22.668  0.00  0.00    -0.360 OA
HETATM   28  H   UNL     1      -4.458  12.213  23.190  0.00  0.00     0.217 HD
ENDBRANCH   2  27
BRANCH   8  29
HETATM   29  C   UNL     1       0.515  17.000  21.813  0.00  0.00     0.275 C 
HETATM   30  O   UNL     1       0.729  17.922  22.605  0.00  0.00    -0.266 OA
HETATM   31  N   UNL     1       1.561  16.195  21.332  0.00  0.00    -0.347 N 
HETATM   32  C   UNL     1       2.943  16.619  21.543  0.00  0.00     0.126 C 
HETATM   33  C   UNL     1       1.392  14.984  20.525  0.00  0.00     0.126 C 
HETATM   34  C   UNL     1       3.804  15.477  22.088  0.00  0.00     0.020 C 
HETATM   35  C   UNL     1       3.694  14.234  21.209  0.00  0.00     0.003 C 
HETATM   36  C   UNL     1       2.234  13.830  21.058  0.00  0.00     0.020 C 
ENDBRANCH   8  29
TORSDOF 5
ENDMDL
MODEL 3
REMARK VINA RESULT:    -8.014      4.292      7.166
REMARK INTER + INTRA:         -11.498
REMARK INTER:                 -10.190
REMARK INTRA:                  -1.308
REMARK UNBOUND:                -1.377
REMARK  5 active torsions:
REMARK  status: ('A' for Active; 'I' for Inactive)
REMARK       I    between atoms: C_2  and  N_3 
REMARK    1  A    between atoms: C_2  and  C_17 
REMARK    2  A    between atoms: N_3  and  C_5 
REMARK    3  A    between atoms: C_8  and  N_9 
REMARK    4  A    between atoms: C_18  and  O_19 
REMARK    5  A    between atoms: C_25  and  C_26 
REMARK       I    between atoms: C_26  and  N_28 
ROOT
HETATM    1  C   UNL     1      -0.366   9.717  26.395  0.00  0.00     0.066 A 
HETATM    2  C   UNL     1      -1.011   9.653  27.646  0.00  0.00     0.083 A 
HETATM    3  C   UNL     1      -2.157  10.398  27.935  0.00  0.00     0.069 A 
HETATM    4  C   UNL     1      -2.653  11.210  26.917  0.00  0.00     0.065 A 
HETATM    5  N   UNL     1      -3.742  12.031  26.867  0.00  0.00    -0.277 N 
HETATM    6  H   UNL     1      -4.421  12.200  27.602  0.00  0.00     0.189 HD
HETATM    7  N   UNL     1      -3.913  12.646  25.689  0.00  0.00    -0.168 NA
HETATM    8  C   UNL     1      -2.932  12.152  24.908  0.00  0.00     0.157 C 
HETATM    9  C   UNL     1      -2.050  11.323  25.671  0.00  0.00     0.029 A 
HETATM   10  C   UNL     1      -0.854  10.615  25.427  0.00  0.00     0.036 A 
ENDROOT
BRANCH   1  11
HETATM   11  C   UNL     1       0.856   8.881  26.161  0.00  0.00     0.260 C 
HETATM   12  O   UNL     1       1.863   9.281  26.755  0.00  0.00    -0.267 OA
HETATM   13  N   UNL     1       0.816   7.725  25.351  0.00  0.00    -0.318 N 
HETATM   14  C   UNL     1      -0.426   6.977  25.125  0.00  0.00     0.159 C 
BRANCH  13  15
HETATM   15  C   UNL     1       2.017   7.178  24.744  0.00  0.00     0.037 A 
HETATM   16  C   UNL     1       2.639   7.768  23.642  0.00  0.00     0.032 A 
HETATM   17  C   UNL     1       3.718   7.151  22.990  0.00  0.00     0.031 A 
HETATM   18  C   UNL     1       4.228   5.915  23.395  0.00  0.00     0.030 A 
HETATM   19  C   UNL     1       3.659   5.356  24.537  0.00  0.00     0.031 A 
HETATM   20  C   UNL     1       2.576   5.969  25.192  0.00  0.00     0.032 A 
BRANCH  18  21
HETATM   21  N   UNL     1       5.246   5.318  22.677  0.00  0.00    -0.377 N 
HETATM   22  C   UNL     1       5.002   4.439  21.525  0.00  0.00     0.149 C 
HETATM   23  C   UNL     1       5.388   5.122  20.206  0.00  0.00     0.187 C 
HETATM   24  O   UNL     1       6.735   5.620  20.241  0.00  0.00    -0.388 OA
HETATM   25  C   UNL     1       6.872   6.587  21.295  0.00  0.00     0.187 C 
HETATM   26  C   UNL     1       6.570   5.975  22.674  0.00  0.00     0.149 C 
ENDBRANCH  18  21
ENDBRANCH  13  15
ENDBRANCH   1  11
BRANCH   2  27
HETATM   27  O   UNL     1      -0.559   8.872  28.682  0.00  0.00    -0.360 OA
HETATM   28  H   UNL     1      -1.074   8.033  28.663  0.00  0.00     0.217 HD
ENDBRANCH   2  27
BRANCH   8  29
HETATM   29  C   UNL     1      -2.824  12.433  23.461  0.00  0.00     0.275 C 
HETATM   30  O   UNL     1      -3.575  11.859  22.667  0.00  0.00    -0.266 OA
HETATM   31  N   UNL     1      -1.913  13.409  23.026  0.00  0.00    -0.347 N 
HETATM   32  C   UNL     1      -1.646  13.551  21.596  0.00  0.00     0.126 C 
HETATM   33  C   UNL     1      -1.101  14.258  23.903  0.00  0.00     0.126 C 
HETATM   34  C   UNL     1      -1.715  15.014  21.154  0.00  0.00     0.020 C 
HETATM   35  C   UNL     1      -0.813  15.895  22.015  0.00  0.00     0.003 C 
HETATM   36  C   UNL     1      -1.165  15.722  23.485  0.00  0.00     0.020 C 
ENDBRANCH   8  29
TORSDOF 5
ENDMDL
MODEL 4
REMARK VINA RESULT:    -7.932      1.879      2.620
REMARK INTER + INTRA:         -11.396
REMARK INTER:                 -10.582
REMARK INTRA:                  -0.814
REMARK UNBOUND:                -1.377
REMARK  5 active torsions:
REMARK  status: ('A' for Active; 'I' for Inactive)
REMARK       I    between atoms: C_2  and  N_3 
REMARK    1  A    between atoms: C_2  and  C_17 
REMARK    2  A    between atoms: N_3  and  C_5 
REMARK    3  A    between atoms: C_8  and  N_9 
REMARK    4  A    between atoms: C_18  and  O_19 
REMARK    5  A    between atoms: C_25  and  C_26 
REMARK       I    between atoms: C_26  and  N_28 
ROOT
HETATM    1  C   UNL     1      -2.652  12.423  24.234  0.00  0.00     0.066 A 
HETATM    2  C   UNL     1      -3.786  12.561  23.408  0.00  0.00     0.083 A 
HETATM    3  C   UNL     1      -3.923  13.612  22.497  0.00  0.00     0.069 A 
HETATM    4  C   UNL     1      -2.873  14.524  22.426  0.00  0.00     0.065 A 
HETATM    5  N   UNL     1      -2.687  15.628  21.645  0.00  0.00    -0.277 N 
HETATM    6  H   UNL     1      -3.315  15.995  20.937  0.00  0.00     0.189 HD
HETATM    7  N   UNL     1      -1.521  16.256  21.849  0.00  0.00    -0.168 NA
HETATM    8  C   UNL     1      -0.882  15.490  22.756  0.00  0.00     0.157 C 
HETATM    9  C   UNL     1      -1.740  14.446  23.226  0.00  0.00     0.029 A 
HETATM   10  C   UNL     1      -1.657  13.417  24.188  0.00  0.00     0.036 A 
ENDROOT
BRANCH   1  11
HETATM   11  C   UNL     1      -2.578  11.264  25.181  0.00  0.00     0.260 C 
HETATM   12  O   UNL     1      -3.512  11.210  25.988  0.00  0.00    -0.267 OA
HETATM   13  N   UNL     1      -1.532  10.317  25.110  0.00  0.00    -0.318 N 
HETATM   14  C   UNL     1      -0.787  10.075  23.869  0.00  0.00     0.159 C 
BRANCH  13  15
HETATM   15  C   UNL     1      -1.177   9.487  26.247  0.00  0.00     0.037 A 
HETATM   16  C   UNL     1      -1.281   9.933  27.566  0.00  0.00     0.032 A 
HETATM   17  C   UNL     1      -0.807   9.165  28.641  0.00  0.00     0.031 A 
HETATM   18  C   UNL     1      -0.201   7.919  28.459  0.00  0.00     0.030 A 
HETATM   19  C   UNL     1      -0.160   7.437  27.153  0.00  0.00     0.031 A 
HETATM   20  C   UNL     1      -0.630   8.203  26.073  0.00  0.00     0.032 A 
BRANCH  18  21
HETATM   21  N   UNL     1       0.311   7.233  29.544  0.00  0.00    -0.377 N 
HETATM   22  C   UNL     1       1.744   6.952  29.707  0.00  0.00     0.149 C 
HETATM   23  C   UNL     1       2.361   7.812  30.818  0.00  0.00     0.187 C 
HETATM   24  O   UNL     1       1.633   7.689  32.051  0.00  0.00    -0.388 OA
HETATM   25  C   UNL     1       0.276   8.120  31.863  0.00  0.00     0.187 C 
HETATM   26  C   UNL     1      -0.452   7.268  30.808  0.00  0.00     0.149 C 
ENDBRANCH  18  21
ENDBRANCH  13  15
ENDBRANCH   1  11
BRANCH   2  27
HETATM   27  O   UNL     1      -4.848  11.691  23.442  0.00  0.00    -0.360 OA
HETATM   28  H   UNL     1      -4.548  10.881  23.916  0.00  0.00     0.217 HD
ENDBRANCH   2  27
BRANCH   8  29
HETATM   29  C   UNL     1       0.518  15.715  23.169  0.00  0.00     0.275 C 
HETATM   30  O   UNL     1       0.769  16.051  24.330  0.00  0.00    -0.266 OA
HETATM   31  N   UNL     1       1.546  15.469  22.244  0.00  0.00    -0.347 N 
HETATM   32  C   UNL     1       2.910  15.882  22.564  0.00  0.00     0.126 C 
HETATM   33  C   UNL     1       1.358  14.912  20.901  0.00  0.00     0.126 C 
HETATM   34  C   UNL     1       3.915  14.759  22.295  0.00  0.00     0.020 C 
HETATM   35  C   UNL     1       3.777  14.224  20.872  0.00  0.00     0.003 C 
HETATM   36  C   UNL     1       2.343  13.784  20.617  0.00  0.00     0.020 C 
ENDBRANCH   8  29
TORSDOF 5
ENDMDL
MODEL 5
REMARK VINA RESULT:    -7.817      5.006      7.874
REMARK INTER + INTRA:         -11.250
REMARK INTER:                 -10.082
REMARK INTRA:                  -1.168
REMARK UNBOUND:                -1.377
REMARK  5 active torsions:
REMARK  status: ('A' for Active; 'I' for Inactive)
REMARK       I    between atoms: C_2  and  N_3 
REMARK    1  A    between atoms: C_2  and  C_17 
REMARK    2  A    between atoms: N_3  and  C_5 
REMARK    3  A    between atoms: C_8  and  N_9 
REMARK    4  A    between atoms: C_18  and  O_19 
REMARK    5  A    between atoms: C_25  and  C_26 
REMARK       I    between atoms: C_26  and  N_28 
ROOT
HETATM    1  C   UNL     1       0.783   9.427  25.888  0.00  0.00     0.066 A 
HETATM    2  C   UNL     1       0.254   9.196  27.173  0.00  0.00     0.083 A 
HETATM    3  C   UNL     1      -1.015   9.644  27.550  0.00  0.00     0.069 A 
HETATM    4  C   UNL     1      -1.752  10.328  26.587  0.00  0.00     0.065 A 
HETATM    5  N   UNL     1      -3.005  10.868  26.625  0.00  0.00    -0.277 N 
HETATM    6  H   UNL     1      -3.656  10.861  27.404  0.00  0.00     0.189 HD
HETATM    7  N   UNL     1      -3.392  11.439  25.476  0.00  0.00    -0.168 NA
HETATM    8  C   UNL     1      -2.375  11.203  24.625  0.00  0.00     0.157 C 
HETATM    9  C   UNL     1      -1.275  10.596  25.311  0.00  0.00     0.029 A 
HETATM   10  C   UNL     1       0.036  10.196  24.977  0.00  0.00     0.036 A 
ENDROOT
BRANCH   1  11
HETATM   11  C   UNL     1       2.151   8.908  25.559  0.00  0.00     0.260 C 
HETATM   12  O   UNL     1       3.074   9.622  25.964  0.00  0.00    -0.267 OA
HETATM   13  N   UNL     1       2.331   7.689  24.870  0.00  0.00    -0.318 N 
HETATM   14  C   UNL     1       1.320   6.626  24.891  0.00  0.00     0.159 C 
BRANCH  13  15
HETATM   15  C   UNL     1       3.558   7.394  24.150  0.00  0.00     0.037 A 
HETATM   16  C   UNL     1       3.629   7.390  22.754  0.00  0.00     0.032 A 
HETATM   17  C   UNL     1       4.786   6.973  22.080  0.00  0.00     0.031 A 
HETATM   18  C   UNL     1       5.928   6.534  22.755  0.00  0.00     0.030 A 
HETATM   19  C   UNL     1       5.889   6.604  24.145  0.00  0.00     0.031 A 
HETATM   20  C   UNL     1       4.731   7.018  24.826  0.00  0.00     0.032 A 
BRANCH  18  21
HETATM   21  N   UNL     1       7.017   6.069  22.043  0.00  0.00    -0.377 N 
HETATM   22  C   UNL     1       7.949   5.065  22.575  0.00  0.00     0.149 C 
HETATM   23  C   UNL     1       7.771   3.709  21.880  0.00  0.00     0.187 C 
HETATM   24  O   UNL     1       7.852   3.831  20.450  0.00  0.00    -0.388 OA
HETATM   25  C   UNL     1       6.820   4.709  19.975  0.00  0.00     0.187 C 
HETATM   26  C   UNL     1       6.955   6.123  20.568  0.00  0.00     0.149 C 
ENDBRANCH  18  21
ENDBRANCH  13  15
ENDBRANCH   1  11
BRANCH   2  27
HETATM   27  O   UNL     1       0.943   8.531  28.158  0.00  0.00    -0.360 OA
HETATM   28  H   UNL     1       1.781   9.024  28.314  0.00  0.00     0.217 HD
ENDBRANCH   2  27
BRANCH   8  29
HETATM   29  C   UNL     1      -2.430  11.520  23.183  0.00  0.00     0.275 C 
HETATM   30  O   UNL     1      -3.029  10.766  22.411  0.00  0.00    -0.266 OA
HETATM   31  N   UNL     1      -1.859  12.720  22.730  0.00  0.00    -0.347 N 
HETATM   32  C   UNL     1      -1.721  12.949  21.294  0.00  0.00     0.126 C 
HETATM   33  C   UNL     1      -1.274  13.754  23.589  0.00  0.00     0.126 C 
HETATM   34  C   UNL     1      -2.226  14.337  20.895  0.00  0.00     0.020 C 
HETATM   35  C   UNL     1      -1.566  15.428  21.734  0.00  0.00     0.003 C 
HETATM   36  C   UNL     1      -1.774  15.145  23.215  0.00  0.00     0.020 C 
ENDBRANCH   8  29
TORSDOF 5
ENDMDL
MODEL 6
REMARK VINA RESULT:    -7.705      2.440      3.714
REMARK INTER + INTRA:         -11.108
REMARK INTER:                 -10.679
REMARK INTRA:                  -0.429
REMARK UNBOUND:                -1.377
REMARK  5 active torsions:
REMARK  status: ('A' for Active; 'I' for Inactive)
REMARK       I    between atoms: C_2  and  N_3 
REMARK    1  A    between atoms: C_2  and  C_17 
REMARK    2  A    between atoms: N_3  and  C_5 
REMARK    3  A    between atoms: C_8  and  N_9 
REMARK    4  A    between atoms: C_18  and  O_19 
REMARK    5  A    between atoms: C_25  and  C_26 
REMARK       I    between atoms: C_26  and  N_28 
ROOT
HETATM    1  C   UNL     1      -2.484  12.594  25.047  0.00  0.00     0.066 A 
HETATM    2  C   UNL     1      -3.829  12.968  24.859  0.00  0.00     0.083 A 
HETATM    3  C   UNL     1      -4.235  13.791  23.805  0.00  0.00     0.069 A 
HETATM    4  C   UNL     1      -3.245  14.223  22.927  0.00  0.00     0.065 A 
HETATM    5  N   UNL     1      -3.307  15.002  21.808  0.00  0.00    -0.277 N 
HETATM    6  H   UNL     1      -4.134  15.423  21.395  0.00  0.00     0.189 HD
HETATM    7  N   UNL     1      -2.128  15.188  21.200  0.00  0.00    -0.168 NA
HETATM    8  C   UNL     1      -1.262  14.439  21.913  0.00  0.00     0.157 C 
HETATM    9  C   UNL     1      -1.903  13.897  23.072  0.00  0.00     0.029 A 
HETATM   10  C   UNL     1      -1.507  13.124  24.184  0.00  0.00     0.036 A 
ENDROOT
BRANCH   1  11
HETATM   11  C   UNL     1      -2.130  11.702  26.199  0.00  0.00     0.260 C 
HETATM   12  O   UNL     1      -2.483  12.136  27.301  0.00  0.00    -0.267 OA
HETATM   13  N   UNL     1      -1.476  10.466  26.003  0.00  0.00    -0.318 N 
HETATM   14  C   UNL     1      -1.564   9.733  24.735  0.00  0.00     0.159 C 
BRANCH  13  15
HETATM   15  C   UNL     1      -0.729   9.821  27.068  0.00  0.00     0.037 A 
HETATM   16  C   UNL     1       0.531   9.253  26.866  0.00  0.00     0.032 A 
HETATM   17  C   UNL     1       1.176   8.519  27.874  0.00  0.00     0.031 A 
HETATM   18  C   UNL     1       0.599   8.306  29.129  0.00  0.00     0.030 A 
HETATM   19  C   UNL     1      -0.624   8.930  29.360  0.00  0.00     0.031 A 
HETATM   20  C   UNL     1      -1.276   9.664  28.354  0.00  0.00     0.032 A 
BRANCH  18  21
HETATM   21  N   UNL     1       1.245   7.518  30.062  0.00  0.00    -0.377 N 
HETATM   22  C   UNL     1       2.215   8.055  31.027  0.00  0.00     0.149 C 
HETATM   23  C   UNL     1       1.638   8.083  32.448  0.00  0.00     0.187 C 
HETATM   24  O   UNL     1       1.128   6.798  32.839  0.00  0.00    -0.388 OA
HETATM   25  C   UNL     1       0.079   6.395  31.944  0.00  0.00     0.187 C 
HETATM   26  C   UNL     1       0.580   6.272  30.495  0.00  0.00     0.149 C 
ENDBRANCH  18  21
ENDBRANCH  13  15
ENDBRANCH   1  11
BRANCH   2  27
HETATM   27  O   UNL     1      -4.841  12.572  25.699  0.00  0.00    -0.360 OA
HETATM   28  H   UNL     1      -5.657  13.048  25.421  0.00  0.00     0.217 HD
ENDBRANCH   2  27
BRANCH   8  29
HETATM   29  C   UNL     1       0.142  14.215  21.511  0.00  0.00     0.275 C 
HETATM   30  O   UNL     1       0.541  13.068  21.292  0.00  0.00    -0.266 OA
HETATM   31  N   UNL     1       0.976  15.327  21.315  0.00  0.00    -0.347 N 
HETATM   32  C   UNL     1       2.410  15.119  21.123  0.00  0.00     0.126 C 
HETATM   33  C   UNL     1       0.550  16.727  21.389  0.00  0.00     0.126 C 
HETATM   34  C   UNL     1       2.937  15.912  19.925  0.00  0.00     0.020 C 
HETATM   35  C   UNL     1       2.562  17.389  20.032  0.00  0.00     0.003 C 
HETATM   36  C   UNL     1       1.057  17.533  20.198  0.00  0.00     0.020 C 
ENDBRANCH   8  29
TORSDOF 5
ENDMDL
MODEL 7
REMARK VINA RESULT:    -7.547      5.304     10.163
REMARK INTER + INTRA:         -10.910
REMARK INTER:                  -9.523
REMARK INTRA:                  -1.386
REMARK UNBOUND:                -1.377
REMARK  5 active torsions:
REMARK  status: ('A' for Active; 'I' for Inactive)
REMARK       I    between atoms: C_2  and  N_3 
REMARK    1  A    between atoms: C_2  and  C_17 
REMARK    2  A    between atoms: N_3  and  C_5 
REMARK    3  A    between atoms: C_8  and  N_9 
REMARK    4  A    between atoms: C_18  and  O_19 
REMARK    5  A    between atoms: C_25  and  C_26 
REMARK       I    between atoms: C_26  and  N_28 
ROOT
HETATM    1  C   UNL     1       1.871   4.939  25.031  0.00  0.00     0.066 A 
HETATM    2  C   UNL     1       2.218   4.153  26.148  0.00  0.00     0.083 A 
HETATM    3  C   UNL     1       3.159   3.123  26.072  0.00  0.00     0.069 A 
HETATM    4  C   UNL     1       3.759   2.908  24.834  0.00  0.00     0.065 A 
HETATM    5  N   UNL     1       4.712   2.016  24.435  0.00  0.00    -0.277 N 
HETATM    6  H   UNL     1       5.178   1.316  25.003  0.00  0.00     0.189 HD
HETATM    7  N   UNL     1       5.062   2.125  23.146  0.00  0.00    -0.168 NA
HETATM    8  C   UNL     1       4.357   3.183  22.696  0.00  0.00     0.157 C 
HETATM    9  C   UNL     1       3.445   3.642  23.698  0.00  0.00     0.029 A 
HETATM   10  C   UNL     1       2.440   4.630  23.782  0.00  0.00     0.036 A 
ENDROOT
BRANCH   1  11
HETATM   11  C   UNL     1       0.856   6.030  25.196  0.00  0.00     0.260 C 
HETATM   12  O   UNL     1      -0.316   5.643  25.139  0.00  0.00    -0.267 OA
HETATM   13  N   UNL     1       1.242   7.369  25.423  0.00  0.00    -0.318 N 
HETATM   14  C   UNL     1       2.536   7.714  26.022  0.00  0.00     0.159 C 
BRANCH  13  15
HETATM   15  C   UNL     1       0.351   8.480  25.133  0.00  0.00     0.037 A 
HETATM   16  C   UNL     1      -0.527   9.007  26.082  0.00  0.00     0.032 A 
HETATM   17  C   UNL     1      -1.471   9.989  25.742  0.00  0.00     0.031 A 
HETATM   18  C   UNL     1      -1.594  10.490  24.444  0.00  0.00     0.030 A 
HETATM   19  C   UNL     1      -0.674  10.020  23.510  0.00  0.00     0.031 A 
HETATM   20  C   UNL     1       0.272   9.035  23.844  0.00  0.00     0.032 A 
BRANCH  18  21
HETATM   21  N   UNL     1      -2.586  11.405  24.147  0.00  0.00    -0.377 N 
HETATM   22  C   UNL     1      -4.018  11.109  24.297  0.00  0.00     0.149 C 
HETATM   23  C   UNL     1      -4.624  11.858  25.491  0.00  0.00     0.187 C 
HETATM   24  O   UNL     1      -4.359  13.269  25.422  0.00  0.00    -0.388 OA
HETATM   25  C   UNL     1      -2.941  13.502  25.429  0.00  0.00     0.187 C 
HETATM   26  C   UNL     1      -2.249  12.842  24.224  0.00  0.00     0.149 C 
ENDBRANCH  18  21
ENDBRANCH  13  15
ENDBRANCH   1  11
BRANCH   2  27
HETATM   27  O   UNL     1       1.652   4.322  27.388  0.00  0.00    -0.360 OA
HETATM   28  H   UNL     1       2.359   4.649  27.991  0.00  0.00     0.217 HD
ENDBRANCH   2  27
BRANCH   8  29
HETATM   29  C   UNL     1       4.544   3.773  21.354  0.00  0.00     0.275 C 
HETATM   30  O   UNL     1       3.844   3.389  20.413  0.00  0.00    -0.266 OA
HETATM   31  N   UNL     1       5.468   4.818  21.196  0.00  0.00    -0.347 N 
HETATM   32  C   UNL     1       5.814   5.268  19.849  0.00  0.00     0.126 C 
HETATM   33  C   UNL     1       6.221   5.452  22.282  0.00  0.00     0.126 C 
HETATM   34  C   UNL     1       5.756   6.793  19.734  0.00  0.00     0.020 C 
HETATM   35  C   UNL     1       6.600   7.462  20.817  0.00  0.00     0.003 C 
HETATM   36  C   UNL     1       6.167   6.973  22.191  0.00  0.00     0.020 C 
ENDBRANCH   8  29
TORSDOF 5
ENDMDL
MODEL 8
REMARK VINA RESULT:    -7.486      5.016      8.007
REMARK INTER + INTRA:         -10.832
REMARK INTER:                  -9.455
REMARK INTRA:                  -1.377
REMARK UNBOUND:                -1.377
REMARK  5 active torsions:
REMARK  status: ('A' for Active; 'I' for Inactive)
REMARK       I    between atoms: C_2  and  N_3 
REMARK    1  A    between atoms: C_2  and  C_17 
REMARK    2  A    between atoms: N_3  and  C_5 
REMARK    3  A    between atoms: C_8  and  N_9 
REMARK    4  A    between atoms: C_18  and  O_19 
REMARK    5  A    between atoms: C_25  and  C_26 
REMARK       I    between atoms: C_26  and  N_28 
ROOT
HETATM    1  C   UNL     1       0.690   8.435  26.164  0.00  0.00     0.066 A 
HETATM    2  C   UNL     1      -0.204   7.901  27.115  0.00  0.00     0.083 A 
HETATM    3  C   UNL     1      -1.276   8.638  27.627  0.00  0.00     0.069 A 
HETATM    4  C   UNL     1      -1.436   9.934  27.146  0.00  0.00     0.065 A 
HETATM    5  N   UNL     1      -2.371  10.890  27.420  0.00  0.00    -0.277 N 
HETATM    6  H   UNL     1      -3.159  10.817  28.055  0.00  0.00     0.189 HD
HETATM    7  N   UNL     1      -2.209  12.030  26.734  0.00  0.00    -0.168 NA
HETATM    8  C   UNL     1      -1.162  11.786  25.921  0.00  0.00     0.157 C 
HETATM    9  C   UNL     1      -0.577  10.515  26.222  0.00  0.00     0.029 A 
HETATM   10  C   UNL     1       0.538   9.777  25.772  0.00  0.00     0.036 A 
ENDROOT
BRANCH   1  11
HETATM   11  C   UNL     1       1.811   7.578  25.658  0.00  0.00     0.260 C 
HETATM   12  O   UNL     1       2.772   7.494  26.430  0.00  0.00    -0.267 OA
HETATM   13  N   UNL     1       1.730   6.915  24.414  0.00  0.00    -0.318 N 
HETATM   14  C   UNL     1       0.443   6.574  23.797  0.00  0.00     0.159 C 
BRANCH  13  15
HETATM   15  C   UNL     1       2.919   6.479  23.703  0.00  0.00     0.037 A 
HETATM   16  C   UNL     1       3.788   7.372  23.071  0.00  0.00     0.032 A 
HETATM   17  C   UNL     1       4.855   6.921  22.279  0.00  0.00     0.031 A 
HETATM   18  C   UNL     1       5.109   5.563  22.070  0.00  0.00     0.030 A 
HETATM   19  C   UNL     1       4.291   4.668  22.755  0.00  0.00     0.031 A 
HETATM   20  C   UNL     1       3.219   5.114  23.548  0.00  0.00     0.032 A 
BRANCH  18  21
HETATM   21  N   UNL     1       6.131   5.172  21.225  0.00  0.00    -0.377 N 
HETATM   22  C   UNL     1       6.722   6.067  20.220  0.00  0.00     0.149 C 
HETATM   23  C   UNL     1       8.136   6.508  20.622  0.00  0.00     0.187 C 
HETATM   24  O   UNL     1       8.978   5.382  20.920  0.00  0.00    -0.388 OA
HETATM   25  C   UNL     1       8.423   4.630  22.011  0.00  0.00     0.187 C 
HETATM   26  C   UNL     1       7.024   4.085  21.675  0.00  0.00     0.149 C 
ENDBRANCH  18  21
ENDBRANCH  13  15
ENDBRANCH   1  11
BRANCH   2  27
HETATM   27  O   UNL     1      -0.087   6.631  27.623  0.00  0.00    -0.360 OA
HETATM   28  H   UNL     1       0.873   6.455  27.754  0.00  0.00     0.217 HD
ENDBRANCH   2  27
BRANCH   8  29
HETATM   29  C   UNL     1      -0.719  12.718  24.863  0.00  0.00     0.275 C 
HETATM   30  O   UNL     1       0.277  13.424  25.045  0.00  0.00    -0.266 OA
HETATM   31  N   UNL     1      -1.403  12.725  23.637  0.00  0.00    -0.347 N 
HETATM   32  C   UNL     1      -1.114  13.776  22.664  0.00  0.00     0.126 C 
HETATM   33  C   UNL     1      -2.487  11.810  23.269  0.00  0.00     0.126 C 
HETATM   34  C   UNL     1      -0.888  13.199  21.264  0.00  0.00     0.020 C 
HETATM   35  C   UNL     1      -2.050  12.304  20.841  0.00  0.00     0.003 C 
HETATM   36  C   UNL     1      -2.275  11.216  21.881  0.00  0.00     0.020 C 
ENDBRANCH   8  29
TORSDOF 5
ENDMDL
MODEL 9
REMARK VINA RESULT:    -7.427      4.009      6.662
REMARK INTER + INTRA:         -10.758
REMARK INTER:                  -9.679
REMARK INTRA:                  -1.079
REMARK UNBOUND:                -1.377
REMARK  5 active torsions:
REMARK  status: ('A' for Active; 'I' for Inactive)
REMARK       I    between atoms: C_2  and  N_3 
REMARK    1  A    between atoms: C_2  and  C_17 
REMARK    2  A    between atoms: N_3  and  C_5 
REMARK    3  A    between atoms: C_8  and  N_9 
REMARK    4  A    between atoms: C_18  and  O_19 
REMARK    5  A    between atoms: C_25  and  C_26 
REMARK       I    between atoms: C_26  and  N_28 
ROOT
HETATM    1  C   UNL     1      -0.852   9.728  25.406  0.00  0.00     0.066 A 
HETATM    2  C   UNL     1      -1.244   9.593  26.753  0.00  0.00     0.083 A 
HETATM    3  C   UNL     1      -2.173  10.450  27.350  0.00  0.00     0.069 A 
HETATM    4  C   UNL     1      -2.713  11.450  26.546  0.00  0.00     0.065 A 
HETATM    5  N   UNL     1      -3.639  12.418  26.809  0.00  0.00    -0.277 N 
HETATM    6  H   UNL     1      -4.125  12.584  27.684  0.00  0.00     0.189 HD
HETATM    7  N   UNL     1      -3.929  13.200  25.761  0.00  0.00    -0.168 NA
HETATM    8  C   UNL     1      -3.213  12.678  24.745  0.00  0.00     0.157 C 
HETATM    9  C   UNL     1      -2.352  11.639  25.219  0.00  0.00     0.029 A 
HETATM   10  C   UNL     1      -1.360  10.806  24.658  0.00  0.00     0.036 A 
ENDROOT
BRANCH   1  11
HETATM   11  C   UNL     1       0.146   8.763  24.838  0.00  0.00     0.260 C 
HETATM   12  O   UNL     1      -0.351   7.882  24.128  0.00  0.00    -0.267 OA
HETATM   13  N   UNL     1       1.529   8.897  25.089  0.00  0.00    -0.318 N 
HETATM   14  C   UNL     1       2.134  10.188  25.436  0.00  0.00     0.159 C 
BRANCH  13  15
HETATM   15  C   UNL     1       2.440   7.774  24.957  0.00  0.00     0.037 A 
HETATM   16  C   UNL     1       2.807   6.972  26.041  0.00  0.00     0.032 A 
HETATM   17  C   UNL     1       3.790   5.978  25.918  0.00  0.00     0.031 A 
HETATM   18  C   UNL     1       4.460   5.734  24.717  0.00  0.00     0.030 A 
HETATM   19  C   UNL     1       4.048   6.480  23.616  0.00  0.00     0.031 A 
HETATM   20  C   UNL     1       3.066   7.480  23.734  0.00  0.00     0.032 A 
BRANCH  18  21
HETATM   21  N   UNL     1       5.468   4.790  24.667  0.00  0.00    -0.377 N 
HETATM   22  C   UNL     1       5.373   3.483  25.333  0.00  0.00     0.149 C 
HETATM   23  C   UNL     1       5.184   2.348  24.318  0.00  0.00     0.187 C 
HETATM   24  O   UNL     1       6.197   2.373  23.299  0.00  0.00    -0.388 OA
HETATM   25  C   UNL     1       6.142   3.617  22.584  0.00  0.00     0.187 C 
HETATM   26  C   UNL     1       6.389   4.820  23.512  0.00  0.00     0.149 C 
ENDBRANCH  18  21
ENDBRANCH  13  15
ENDBRANCH   1  11
BRANCH   2  27
HETATM   27  O   UNL     1      -0.738   8.626  27.587  0.00  0.00    -0.360 OA
HETATM   28  H   UNL     1       0.120   8.960  27.938  0.00  0.00     0.217 HD
ENDBRANCH   2  27
BRANCH   8  29
HETATM   29  C   UNL     1      -3.342  13.129  23.343  0.00  0.00     0.275 C 
HETATM   30  O   UNL     1      -4.335  12.808  22.685  0.00  0.00    -0.266 OA
HETATM   31  N   UNL     1      -2.359  13.980  22.812  0.00  0.00    -0.347 N 
HETATM   32  C   UNL     1      -2.359  14.264  21.379  0.00  0.00     0.126 C 
HETATM   33  C   UNL     1      -1.236  14.547  23.565  0.00  0.00     0.126 C 
HETATM   34  C   UNL     1      -2.221  15.763  21.104  0.00  0.00     0.020 C 
HETATM   35  C   UNL     1      -1.008  16.348  21.823  0.00  0.00     0.003 C 
HETATM   36  C   UNL     1      -1.088  16.043  23.312  0.00  0.00     0.020 C 
ENDBRANCH   8  29
TORSDOF 5
ENDMDL
