MODEL 1
REMARK VINA RESULT:    -8.737      0.000      0.000
REMARK INTER + INTRA:         -14.526
REMARK INTER:                 -13.033
REMARK INTRA:                  -1.493
REMARK UNBOUND:                -1.447
REMARK  9 active torsions:
REMARK  status: ('A' for Active; 'I' for Inactive)
REMARK       I    between atoms: C_2  and  N_3 
REMARK    1  A    between atoms: C_2  and  C_17 
REMARK    2  A    between atoms: N_3  and  C_5 
REMARK    3  A    between atoms: C_8  and  O_9 
REMARK    4  A    between atoms: O_9  and  C_10 
REMARK    5  A    between atoms: C_10  and  C_11 
REMARK    6  A    between atoms: C_11  and  C_12 
REMARK    7  A    between atoms: C_18  and  O_19 
REMARK    8  A    between atoms: C_25  and  C_26 
REMARK    9  A    between atoms: C_26  and  C_27 
ROOT
HETATM    1  C   UNL     1       6.186   7.178  21.134  0.00  0.00     0.110 C 
HETATM    2  C   UNL     1       7.500   6.478  20.830  0.00  0.00    -0.021 C 
HETATM    3  N   UNL     1       8.590   5.897  20.576  0.00  0.00    -0.102 N 
ENDROOT
BRANCH   1   4
HETATM    4  C   UNL     1       5.978   7.219  22.642  0.00  0.00     0.040 C 
BRANCH   4   5
HETATM    5  C   UNL     1       4.904   6.238  23.086  0.00  0.00     0.176 C 
BRANCH   5   6
HETATM    6  O   UNL     1       4.513   6.501  24.438  0.00  0.00    -0.351 OA
BRANCH   6   7
HETATM    7  C   UNL     1       3.565   7.481  24.581  0.00  0.00     0.068 A 
HETATM    8  C   UNL     1       3.496   8.375  25.641  0.00  0.00     0.039 A 
HETATM    9  C   UNL     1       2.514   9.372  25.675  0.00  0.00     0.032 A 
HETATM   10  C   UNL     1       1.574   9.532  24.646  0.00  0.00     0.037 A 
HETATM   11  C   UNL     1       1.617   8.573  23.617  0.00  0.00     0.032 A 
HETATM   12  C   UNL     1       2.605   7.570  23.577  0.00  0.00     0.039 A 
BRANCH  10  13
HETATM   13  N   UNL     1       0.616  10.623  24.667  0.00  0.00    -0.318 N 
HETATM   14  C   UNL     1      -0.760  10.375  24.930  0.00  0.00     0.260 C 
HETATM   15  O   UNL     1      -1.190   9.314  25.393  0.00  0.00    -0.267 OA
HETATM   16  C   UNL     1       1.144  11.983  24.553  0.00  0.00     0.159 C 
BRANCH  14  17
HETATM   17  C   UNL     1      -1.814  11.420  24.734  0.00  0.00     0.066 A 
HETATM   18  C   UNL     1      -2.527  11.869  25.866  0.00  0.00     0.083 A 
HETATM   19  C   UNL     1      -3.532  12.834  25.783  0.00  0.00     0.069 A 
HETATM   20  C   UNL     1      -3.822  13.335  24.515  0.00  0.00     0.065 A 
HETATM   21  N   UNL     1      -4.735  14.266  24.106  0.00  0.00    -0.277 N 
HETATM   22  C   UNL     1      -3.184  12.904  23.359  0.00  0.00     0.020 A 
HETATM   23  H   UNL     1      -5.385  14.786  24.683  0.00  0.00     0.189 HD
HETATM   24  N   UNL     1      -4.744  14.483  22.782  0.00  0.00    -0.178 NA
HETATM   25  C   UNL     1      -3.813  13.642  22.303  0.00  0.00     0.071 A 
HETATM   26  C   UNL     1      -2.185  11.907  23.465  0.00  0.00     0.035 A 
BRANCH  18  27
HETATM   27  O   UNL     1      -2.307  11.380  27.133  0.00  0.00    -0.360 OA
HETATM   28  H   UNL     1      -1.412  10.969  27.137  0.00  0.00     0.217 HD
ENDBRANCH  18  27
BRANCH  25  29
HETATM   29  C   UNL     1      -3.581  13.585  20.820  0.00  0.00     0.100 C 
BRANCH  29  30
HETATM   30  C   UNL     1      -2.956  14.898  20.406  0.00  0.00    -0.052 A 
HETATM   31  C   UNL     1      -1.662  15.250  20.823  0.00  0.00     0.014 A 
HETATM   32  C   UNL     1      -1.154  16.530  20.590  0.00  0.00    -0.061 A 
HETATM   33  C   UNL     1       0.112  16.967  21.264  0.00  0.00     0.048 C 
HETATM   34  C   UNL     1      -1.902  17.432  19.828  0.00  0.00     0.007 A 
HETATM   35  C   UNL     1      -3.145  17.060  19.317  0.00  0.00     0.001 A 
HETATM   36  C   UNL     1      -3.677  15.804  19.613  0.00  0.00     0.007 A 
ENDBRANCH  29  30
ENDBRANCH  25  29
ENDBRANCH  14  17
ENDBRANCH  10  13
ENDBRANCH   6   7
ENDBRANCH   5   6
ENDBRANCH   4   5
ENDBRANCH   1   4
TORSDOF 9
ENDMDL
MODEL 2
REMARK VINA RESULT:    -8.658      3.720      5.311
REMARK INTER + INTRA:         -14.407
REMARK INTER:                 -12.811
REMARK INTRA:                  -1.596
REMARK UNBOUND:                -1.447
REMARK  9 active torsions:
REMARK  status: ('A' for Active; 'I' for Inactive)
REMARK       I    between atoms: C_2  and  N_3 
REMARK    1  A    between atoms: C_2  and  C_17 
REMARK    2  A    between atoms: N_3  and  C_5 
REMARK    3  A    between atoms: C_8  and  O_9 
REMARK    4  A    between atoms: O_9  and  C_10 
REMARK    5  A    between atoms: C_10  and  C_11 
REMARK    6  A    between atoms: C_11  and  C_12 
REMARK    7  A    between atoms: C_18  and  O_19 
REMARK    8  A    between atoms: C_25  and  C_26 
REMARK    9  A    between atoms: C_26  and  C_27 
ROOT
HETATM    1  C   UNL     1      -0.913   6.372  27.668  0.00  0.00     0.110 C 
HETATM    2  C   UNL     1       0.086   6.419  28.812  0.00  0.00    -0.021 C 
HETATM    3  N   UNL     1       0.914   6.458  29.762  0.00  0.00    -0.102 N 
ENDROOT
BRANCH   1   4
HETATM    4  C   UNL     1      -0.344   5.523  26.540  0.00  0.00     0.040 C 
BRANCH   4   5
HETATM    5  C   UNL     1      -0.244   6.308  25.242  0.00  0.00     0.176 C 
BRANCH   5   6
HETATM    6  O   UNL     1       0.703   7.372  25.369  0.00  0.00    -0.351 OA
BRANCH   6   7
HETATM    7  C   UNL     1       0.254   8.596  24.942  0.00  0.00     0.068 A 
HETATM    8  C   UNL     1       0.681   9.245  23.791  0.00  0.00     0.039 A 
HETATM    9  C   UNL     1       0.129  10.473  23.414  0.00  0.00     0.032 A 
HETATM   10  C   UNL     1      -0.886  11.096  24.155  0.00  0.00     0.037 A 
HETATM   11  C   UNL     1      -1.256  10.457  25.353  0.00  0.00     0.032 A 
HETATM   12  C   UNL     1      -0.704   9.219  25.735  0.00  0.00     0.039 A 
BRANCH  10  13
HETATM   13  N   UNL     1      -1.499  12.332  23.700  0.00  0.00    -0.318 N 
HETATM   14  C   UNL     1      -2.313  12.352  22.534  0.00  0.00     0.260 C 
HETATM   15  O   UNL     1      -2.755  11.336  21.988  0.00  0.00    -0.267 OA
HETATM   16  C   UNL     1      -1.365  13.506  24.564  0.00  0.00     0.159 C 
BRANCH  14  17
HETATM   17  C   UNL     1      -2.770  13.628  21.898  0.00  0.00     0.066 A 
HETATM   18  C   UNL     1      -4.151  13.922  21.911  0.00  0.00     0.083 A 
HETATM   19  C   UNL     1      -4.674  15.082  21.337  0.00  0.00     0.069 A 
HETATM   20  C   UNL     1      -3.767  15.946  20.726  0.00  0.00     0.065 A 
HETATM   21  N   UNL     1      -3.958  17.138  20.083  0.00  0.00    -0.277 N 
HETATM   22  C   UNL     1      -2.404  15.693  20.644  0.00  0.00     0.020 A 
HETATM   23  H   UNL     1      -4.834  17.627  19.941  0.00  0.00     0.189 HD
HETATM   24  N   UNL     1      -2.836  17.685  19.594  0.00  0.00    -0.178 NA
HETATM   25  C   UNL     1      -1.874  16.803  19.909  0.00  0.00     0.071 A 
HETATM   26  C   UNL     1      -1.900  14.498  21.212  0.00  0.00     0.035 A 
BRANCH  18  27
HETATM   27  O   UNL     1      -5.090  13.085  22.467  0.00  0.00    -0.360 OA
HETATM   28  H   UNL     1      -4.621  12.504  23.109  0.00  0.00     0.217 HD
ENDBRANCH  18  27
BRANCH  25  29
HETATM   29  C   UNL     1      -0.464  17.078  19.468  0.00  0.00     0.100 C 
BRANCH  29  30
HETATM   30  C   UNL     1       0.448  16.751  20.629  0.00  0.00    -0.052 A 
HETATM   31  C   UNL     1       1.533  15.872  20.474  0.00  0.00     0.014 A 
HETATM   32  C   UNL     1       2.266  15.432  21.580  0.00  0.00    -0.061 A 
HETATM   33  C   UNL     1       3.242  14.304  21.430  0.00  0.00     0.048 C 
HETATM   34  C   UNL     1       1.989  15.970  22.840  0.00  0.00     0.007 A 
HETATM   35  C   UNL     1       0.983  16.924  22.991  0.00  0.00     0.001 A 
HETATM   36  C   UNL     1       0.208  17.305  21.895  0.00  0.00     0.007 A 
ENDBRANCH  29  30
ENDBRANCH  25  29
ENDBRANCH  14  17
ENDBRANCH  10  13
ENDBRANCH   6   7
ENDBRANCH   5   6
ENDBRANCH   4   5
ENDBRANCH   1   4
TORSDOF 9
ENDMDL
MODEL 3
REMARK VINA RESULT:    -8.521      2.419      4.118
REMARK INTER + INTRA:         -14.203
REMARK INTER:                 -12.300
REMARK INTRA:                  -1.904
REMARK UNBOUND:                -1.447
REMARK  9 active torsions:
REMARK  status: ('A' for Active; 'I' for Inactive)
REMARK       I    between atoms: C_2  and  N_3 
REMARK    1  A    between atoms: C_2  and  C_17 
REMARK    2  A    between atoms: N_3  and  C_5 
REMARK    3  A    between atoms: C_8  and  O_9 
REMARK    4  A    between atoms: O_9  and  C_10 
REMARK    5  A    between atoms: C_10  and  C_11 
REMARK    6  A    between atoms: C_11  and  C_12 
REMARK    7  A    between atoms: C_18  and  O_19 
REMARK    8  A    between atoms: C_25  and  C_26 
REMARK    9  A    between atoms: C_26  and  C_27 
ROOT
HETATM    1  C   UNL     1       4.145   7.227  25.355  0.00  0.00     0.110 C 
HETATM    2  C   UNL     1       4.228   7.030  23.851  0.00  0.00    -0.021 C 
HETATM    3  N   UNL     1       4.299   6.868  22.602  0.00  0.00    -0.102 N 
ENDROOT
BRANCH   1   4
HETATM    4  C   UNL     1       3.088   6.291  25.925  0.00  0.00     0.040 C 
BRANCH   4   5
HETATM    5  C   UNL     1       1.758   7.001  26.125  0.00  0.00     0.176 C 
BRANCH   5   6
HETATM    6  O   UNL     1       1.035   7.069  24.892  0.00  0.00    -0.351 OA
BRANCH   6   7
HETATM    7  C   UNL     1       0.520   8.305  24.595  0.00  0.00     0.068 A 
HETATM    8  C   UNL     1       1.132   9.249  23.781  0.00  0.00     0.039 A 
HETATM    9  C   UNL     1       0.504  10.468  23.500  0.00  0.00     0.032 A 
HETATM   10  C   UNL     1      -0.766  10.788  24.002  0.00  0.00     0.037 A 
HETATM   11  C   UNL     1      -1.337   9.849  24.880  0.00  0.00     0.032 A 
HETATM   12  C   UNL     1      -0.710   8.619  25.163  0.00  0.00     0.039 A 
BRANCH  10  13
HETATM   13  N   UNL     1      -1.429  12.026  23.633  0.00  0.00    -0.318 N 
HETATM   14  C   UNL     1      -2.204  12.106  22.442  0.00  0.00     0.260 C 
HETATM   15  O   UNL     1      -2.572  11.121  21.795  0.00  0.00    -0.267 OA
HETATM   16  C   UNL     1      -1.388  13.125  24.598  0.00  0.00     0.159 C 
BRANCH  14  17
HETATM   17  C   UNL     1      -2.710  13.408  21.901  0.00  0.00     0.066 A 
HETATM   18  C   UNL     1      -4.089  13.686  22.012  0.00  0.00     0.083 A 
HETATM   19  C   UNL     1      -4.655  14.867  21.532  0.00  0.00     0.069 A 
HETATM   20  C   UNL     1      -3.794  15.772  20.913  0.00  0.00     0.065 A 
HETATM   21  N   UNL     1      -4.033  16.992  20.345  0.00  0.00    -0.277 N 
HETATM   22  C   UNL     1      -2.436  15.538  20.737  0.00  0.00     0.020 A 
HETATM   23  H   UNL     1      -4.920  17.479  20.281  0.00  0.00     0.189 HD
HETATM   24  N   UNL     1      -2.947  17.577  19.819  0.00  0.00    -0.178 NA
HETATM   25  C   UNL     1      -1.960  16.690  20.031  0.00  0.00     0.071 A 
HETATM   26  C   UNL     1      -1.890  14.321  21.211  0.00  0.00     0.035 A 
BRANCH  18  27
HETATM   27  O   UNL     1      -4.987  12.811  22.579  0.00  0.00    -0.360 OA
HETATM   28  H   UNL     1      -5.190  12.122  21.906  0.00  0.00     0.217 HD
ENDBRANCH  18  27
BRANCH  25  29
HETATM   29  C   UNL     1      -0.581  17.004  19.521  0.00  0.00     0.100 C 
BRANCH  29  30
HETATM   30  C   UNL     1       0.393  16.721  20.642  0.00  0.00    -0.052 A 
HETATM   31  C   UNL     1       1.480  15.851  20.457  0.00  0.00     0.014 A 
HETATM   32  C   UNL     1       2.275  15.453  21.535  0.00  0.00    -0.061 A 
HETATM   33  C   UNL     1       3.257  14.332  21.367  0.00  0.00     0.048 C 
HETATM   34  C   UNL     1       2.055  16.024  22.792  0.00  0.00     0.007 A 
HETATM   35  C   UNL     1       1.045  16.970  22.968  0.00  0.00     0.001 A 
HETATM   36  C   UNL     1       0.210  17.310  21.902  0.00  0.00     0.007 A 
ENDBRANCH  29  30
ENDBRANCH  25  29
ENDBRANCH  14  17
ENDBRANCH  10  13
ENDBRANCH   6   7
ENDBRANCH   5   6
ENDBRANCH   4   5
ENDBRANCH   1   4
TORSDOF 9
ENDMDL
MODEL 4
REMARK VINA RESULT:    -8.295      3.505      5.024
REMARK INTER + INTRA:         -13.864
REMARK INTER:                 -12.137
REMARK INTRA:                  -1.727
REMARK UNBOUND:                -1.447
REMARK  9 active torsions:
REMARK  status: ('A' for Active; 'I' for Inactive)
REMARK       I    between atoms: C_2  and  N_3 
REMARK    1  A    between atoms: C_2  and  C_17 
REMARK    2  A    between atoms: N_3  and  C_5 
REMARK    3  A    between atoms: C_8  and  O_9 
REMARK    4  A    between atoms: O_9  and  C_10 
REMARK    5  A    between atoms: C_10  and  C_11 
REMARK    6  A    between atoms: C_11  and  C_12 
REMARK    7  A    between atoms: C_18  and  O_19 
REMARK    8  A    between atoms: C_25  and  C_26 
REMARK    9  A    between atoms: C_26  and  C_27 
ROOT
HETATM    1  C   UNL     1      -0.365   5.608  26.059  0.00  0.00     0.110 C 
HETATM    2  C   UNL     1       0.110   6.171  24.730  0.00  0.00    -0.021 C 
HETATM    3  N   UNL     1       0.504   6.638  23.627  0.00  0.00    -0.102 N 
ENDROOT
BRANCH   1   4
HETATM    4  C   UNL     1       0.521   6.142  27.175  0.00  0.00     0.040 C 
BRANCH   4   5
HETATM    5  C   UNL     1       0.052   7.505  27.661  0.00  0.00     0.176 C 
BRANCH   5   6
HETATM    6  O   UNL     1       0.853   8.544  27.090  0.00  0.00    -0.351 OA
BRANCH   6   7
HETATM    7  C   UNL     1       0.146   9.519  26.432  0.00  0.00     0.068 A 
HETATM    8  C   UNL     1      -1.134   9.938  26.766  0.00  0.00     0.039 A 
HETATM    9  C   UNL     1      -1.757  10.974  26.061  0.00  0.00     0.032 A 
HETATM   10  C   UNL     1      -1.121  11.649  25.008  0.00  0.00     0.037 A 
HETATM   11  C   UNL     1       0.147  11.163  24.641  0.00  0.00     0.032 A 
HETATM   12  C   UNL     1       0.778  10.122  25.350  0.00  0.00     0.039 A 
BRANCH  10  13
HETATM   13  N   UNL     1      -1.757  12.773  24.344  0.00  0.00    -0.318 N 
HETATM   14  C   UNL     1      -2.334  12.621  23.052  0.00  0.00     0.260 C 
HETATM   15  O   UNL     1      -2.562  11.527  22.526  0.00  0.00    -0.267 OA
HETATM   16  C   UNL     1      -1.906  14.010  25.111  0.00  0.00     0.159 C 
BRANCH  14  17
HETATM   17  C   UNL     1      -2.789  13.790  22.235  0.00  0.00     0.066 A 
HETATM   18  C   UNL     1      -4.176  13.976  22.050  0.00  0.00     0.083 A 
HETATM   19  C   UNL     1      -4.696  15.031  21.299  0.00  0.00     0.069 A 
HETATM   20  C   UNL     1      -3.777  15.901  20.715  0.00  0.00     0.065 A 
HETATM   21  N   UNL     1      -3.961  17.007  19.932  0.00  0.00    -0.277 N 
HETATM   22  C   UNL     1      -2.401  15.748  20.827  0.00  0.00     0.020 A 
HETATM   23  H   UNL     1      -4.841  17.411  19.634  0.00  0.00     0.189 HD
HETATM   24  N   UNL     1      -2.824  17.591  19.528  0.00  0.00    -0.178 NA
HETATM   25  C   UNL     1      -1.854  16.821  20.049  0.00  0.00     0.071 A 
HETATM   26  C   UNL     1      -1.897  14.656  21.573  0.00  0.00     0.035 A 
BRANCH  18  27
HETATM   27  O   UNL     1      -5.122  13.125  22.573  0.00  0.00    -0.360 OA
HETATM   28  H   UNL     1      -5.791  13.679  23.036  0.00  0.00     0.217 HD
ENDBRANCH  18  27
BRANCH  25  29
HETATM   29  C   UNL     1      -0.420  17.163  19.756  0.00  0.00     0.100 C 
BRANCH  29  30
HETATM   30  C   UNL     1       0.403  16.730  20.949  0.00  0.00    -0.052 A 
HETATM   31  C   UNL     1       1.376  15.724  20.832  0.00  0.00     0.014 A 
HETATM   32  C   UNL     1       2.011  15.202  21.962  0.00  0.00    -0.061 A 
HETATM   33  C   UNL     1       2.846  13.962  21.846  0.00  0.00     0.048 C 
HETATM   34  C   UNL     1       1.757  15.774  23.212  0.00  0.00     0.007 A 
HETATM   35  C   UNL     1       0.871  16.845  23.328  0.00  0.00     0.001 A 
HETATM   36  C   UNL     1       0.188  17.314  22.205  0.00  0.00     0.007 A 
ENDBRANCH  29  30
ENDBRANCH  25  29
ENDBRANCH  14  17
ENDBRANCH  10  13
ENDBRANCH   6   7
ENDBRANCH   5   6
ENDBRANCH   4   5
ENDBRANCH   1   4
TORSDOF 9
ENDMDL
MODEL 5
REMARK VINA RESULT:    -8.153      3.446      4.778
REMARK INTER + INTRA:         -13.652
REMARK INTER:                 -11.622
REMARK INTRA:                  -2.029
REMARK UNBOUND:                -1.447
REMARK  9 active torsions:
REMARK  status: ('A' for Active; 'I' for Inactive)
REMARK       I    between atoms: C_2  and  N_3 
REMARK    1  A    between atoms: C_2  and  C_17 
REMARK    2  A    between atoms: N_3  and  C_5 
REMARK    3  A    between atoms: C_8  and  O_9 
REMARK    4  A    between atoms: O_9  and  C_10 
REMARK    5  A    between atoms: C_10  and  C_11 
REMARK    6  A    between atoms: C_11  and  C_12 
REMARK    7  A    between atoms: C_18  and  O_19 
REMARK    8  A    between atoms: C_25  and  C_26 
REMARK    9  A    between atoms: C_26  and  C_27 
ROOT
HETATM    1  C   UNL     1       1.679   4.618  25.361  0.00  0.00     0.110 C 
HETATM    2  C   UNL     1       0.841   5.520  24.470  0.00  0.00    -0.021 C 
HETATM    3  N   UNL     1       0.146   6.268  23.730  0.00  0.00    -0.102 N 
ENDROOT
BRANCH   1   4
HETATM    4  C   UNL     1       1.585   5.107  26.799  0.00  0.00     0.040 C 
BRANCH   4   5
HETATM    5  C   UNL     1       2.493   6.301  27.046  0.00  0.00     0.176 C 
BRANCH   5   6
HETATM    6  O   UNL     1       1.796   7.321  27.769  0.00  0.00    -0.351 OA
BRANCH   6   7
HETATM    7  C   UNL     1       1.087   8.196  26.988  0.00  0.00     0.068 A 
HETATM    8  C   UNL     1      -0.297   8.232  26.886  0.00  0.00     0.039 A 
HETATM    9  C   UNL     1      -0.933   9.195  26.094  0.00  0.00     0.032 A 
HETATM   10  C   UNL     1      -0.218  10.174  25.389  0.00  0.00     0.037 A 
HETATM   11  C   UNL     1       1.184  10.078  25.450  0.00  0.00     0.032 A 
HETATM   12  C   UNL     1       1.828   9.112  26.248  0.00  0.00     0.039 A 
BRANCH  10  13
HETATM   13  N   UNL     1      -0.904  11.211  24.638  0.00  0.00    -0.318 N 
HETATM   14  C   UNL     1      -0.724  11.328  23.231  0.00  0.00     0.260 C 
HETATM   15  O   UNL     1      -0.206  10.453  22.530  0.00  0.00    -0.267 OA
HETATM   16  C   UNL     1      -1.886  12.023  25.357  0.00  0.00     0.159 C 
BRANCH  14  17
HETATM   17  C   UNL     1      -1.218  12.510  22.456  0.00  0.00     0.066 A 
HETATM   18  C   UNL     1      -2.318  12.327  21.590  0.00  0.00     0.083 A 
HETATM   19  C   UNL     1      -2.845  13.365  20.821  0.00  0.00     0.069 A 
HETATM   20  C   UNL     1      -2.224  14.608  20.929  0.00  0.00     0.065 A 
HETATM   21  N   UNL     1      -2.491  15.801  20.318  0.00  0.00    -0.277 N 
HETATM   22  C   UNL     1      -1.114  14.841  21.732  0.00  0.00     0.020 A 
HETATM   23  H   UNL     1      -3.230  16.000  19.654  0.00  0.00     0.189 HD
HETATM   24  N   UNL     1      -1.655  16.793  20.657  0.00  0.00    -0.178 NA
HETATM   25  C   UNL     1      -0.789  16.219  21.508  0.00  0.00     0.071 A 
HETATM   26  C   UNL     1      -0.582  13.766  22.484  0.00  0.00     0.035 A 
BRANCH  18  27
HETATM   27  O   UNL     1      -2.942  11.113  21.418  0.00  0.00    -0.360 OA
HETATM   28  H   UNL     1      -2.690  10.778  20.527  0.00  0.00     0.217 HD
ENDBRANCH  18  27
BRANCH  25  29
HETATM   29  C   UNL     1       0.336  17.044  22.066  0.00  0.00     0.100 C 
BRANCH  29  30
HETATM   30  C   UNL     1       1.631  16.450  21.560  0.00  0.00    -0.052 A 
HETATM   31  C   UNL     1       2.461  15.693  22.404  0.00  0.00     0.014 A 
HETATM   32  C   UNL     1       3.735  15.295  21.991  0.00  0.00    -0.061 A 
HETATM   33  C   UNL     1       4.698  14.721  22.986  0.00  0.00     0.048 C 
HETATM   34  C   UNL     1       4.138  15.552  20.678  0.00  0.00     0.007 A 
HETATM   35  C   UNL     1       3.281  16.210  19.795  0.00  0.00     0.001 A 
HETATM   36  C   UNL     1       2.038  16.668  20.236  0.00  0.00     0.007 A 
ENDBRANCH  29  30
ENDBRANCH  25  29
ENDBRANCH  14  17
ENDBRANCH  10  13
ENDBRANCH   6   7
ENDBRANCH   5   6
ENDBRANCH   4   5
ENDBRANCH   1   4
TORSDOF 9
ENDMDL
MODEL 6
REMARK VINA RESULT:    -8.070      3.693      5.787
REMARK INTER + INTRA:         -13.527
REMARK INTER:                 -11.936
REMARK INTRA:                  -1.591
REMARK UNBOUND:                -1.447
REMARK  9 active torsions:
REMARK  status: ('A' for Active; 'I' for Inactive)
REMARK       I    between atoms: C_2  and  N_3 
REMARK    1  A    between atoms: C_2  and  C_17 
REMARK    2  A    between atoms: N_3  and  C_5 
REMARK    3  A    between atoms: C_8  and  O_9 
REMARK    4  A    between atoms: O_9  and  C_10 
REMARK    5  A    between atoms: C_10  and  C_11 
REMARK    6  A    between atoms: C_11  and  C_12 
REMARK    7  A    between atoms: C_18  and  O_19 
REMARK    8  A    between atoms: C_25  and  C_26 
REMARK    9  A    between atoms: C_26  and  C_27 
ROOT
HETATM    1  C   UNL     1       1.111   8.941  30.664  0.00  0.00     0.110 C 
HETATM    2  C   UNL     1       1.278   8.598  32.135  0.00  0.00    -0.021 C 
HETATM    3  N   UNL     1       1.416   8.314  33.356  0.00  0.00    -0.102 N 
ENDROOT
BRANCH   1   4
HETATM    4  C   UNL     1       2.213   8.263  29.863  0.00  0.00     0.040 C 
BRANCH   4   5
HETATM    5  C   UNL     1       1.646   7.335  28.802  0.00  0.00     0.176 C 
BRANCH   5   6
HETATM    6  O   UNL     1       2.182   7.656  27.514  0.00  0.00    -0.351 OA
BRANCH   6   7
HETATM    7  C   UNL     1       1.422   8.528  26.777  0.00  0.00     0.068 A 
HETATM    8  C   UNL     1       0.038   8.618  26.826  0.00  0.00     0.039 A 
HETATM    9  C   UNL     1      -0.646   9.573  26.067  0.00  0.00     0.032 A 
HETATM   10  C   UNL     1       0.022  10.491  25.243  0.00  0.00     0.037 A 
HETATM   11  C   UNL     1       1.417  10.338  25.154  0.00  0.00     0.032 A 
HETATM   12  C   UNL     1       2.110   9.380  25.919  0.00  0.00     0.039 A 
BRANCH  10  13
HETATM   13  N   UNL     1      -0.705  11.524  24.526  0.00  0.00    -0.318 N 
HETATM   14  C   UNL     1      -0.747  11.528  23.104  0.00  0.00     0.260 C 
HETATM   15  O   UNL     1      -0.410  10.567  22.405  0.00  0.00    -0.267 OA
HETATM   16  C   UNL     1      -1.501  12.460  25.320  0.00  0.00     0.159 C 
BRANCH  14  17
HETATM   17  C   UNL     1      -1.279  12.688  22.321  0.00  0.00     0.066 A 
HETATM   18  C   UNL     1      -2.392  12.471  21.480  0.00  0.00     0.083 A 
HETATM   19  C   UNL     1      -2.954  13.487  20.706  0.00  0.00     0.069 A 
HETATM   20  C   UNL     1      -2.355  14.743  20.783  0.00  0.00     0.065 A 
HETATM   21  N   UNL     1      -2.657  15.921  20.160  0.00  0.00    -0.277 N 
HETATM   22  C   UNL     1      -1.235  15.009  21.560  0.00  0.00     0.020 A 
HETATM   23  H   UNL     1      -3.413  16.096  19.508  0.00  0.00     0.189 HD
HETATM   24  N   UNL     1      -1.834  16.934  20.467  0.00  0.00    -0.178 NA
HETATM   25  C   UNL     1      -0.941  16.389  21.309  0.00  0.00     0.071 A 
HETATM   26  C   UNL     1      -0.667  13.956  22.318  0.00  0.00     0.035 A 
BRANCH  18  27
HETATM   27  O   UNL     1      -2.996  11.243  21.338  0.00  0.00    -0.360 OA
HETATM   28  H   UNL     1      -2.291  10.595  21.109  0.00  0.00     0.217 HD
ENDBRANCH  18  27
BRANCH  25  29
HETATM   29  C   UNL     1       0.179  17.244  21.832  0.00  0.00     0.100 C 
BRANCH  29  30
HETATM   30  C   UNL     1       1.480  16.576  21.447  0.00  0.00    -0.052 A 
HETATM   31  C   UNL     1       2.193  15.792  22.369  0.00  0.00     0.014 A 
HETATM   32  C   UNL     1       3.475  15.322  22.073  0.00  0.00    -0.061 A 
HETATM   33  C   UNL     1       4.318  14.716  23.155  0.00  0.00     0.048 C 
HETATM   34  C   UNL     1       4.003  15.537  20.797  0.00  0.00     0.007 A 
HETATM   35  C   UNL     1       3.261  16.225  19.836  0.00  0.00     0.001 A 
HETATM   36  C   UNL     1       2.011  16.752  20.161  0.00  0.00     0.007 A 
ENDBRANCH  29  30
ENDBRANCH  25  29
ENDBRANCH  14  17
ENDBRANCH  10  13
ENDBRANCH   6   7
ENDBRANCH   5   6
ENDBRANCH   4   5
ENDBRANCH   1   4
TORSDOF 9
ENDMDL
MODEL 7
REMARK VINA RESULT:    -8.021      2.785      9.508
REMARK INTER + INTRA:         -13.455
REMARK INTER:                 -12.066
REMARK INTRA:                  -1.388
REMARK UNBOUND:                -1.447
REMARK  9 active torsions:
REMARK  status: ('A' for Active; 'I' for Inactive)
REMARK       I    between atoms: C_2  and  N_3 
REMARK    1  A    between atoms: C_2  and  C_17 
REMARK    2  A    between atoms: N_3  and  C_5 
REMARK    3  A    between atoms: C_8  and  O_9 
REMARK    4  A    between atoms: O_9  and  C_10 
REMARK    5  A    between atoms: C_10  and  C_11 
REMARK    6  A    between atoms: C_11  and  C_12 
REMARK    7  A    between atoms: C_18  and  O_19 
REMARK    8  A    between atoms: C_25  and  C_26 
REMARK    9  A    between atoms: C_26  and  C_27 
ROOT
HETATM    1  C   UNL     1      -1.152  17.491  20.256  0.00  0.00     0.110 C 
HETATM    2  C   UNL     1      -0.888  16.578  21.442  0.00  0.00    -0.021 C 
HETATM    3  N   UNL     1      -0.669  15.821  22.426  0.00  0.00    -0.102 N 
ENDROOT
BRANCH   1   4
HETATM    4  C   UNL     1      -2.298  16.923  19.431  0.00  0.00     0.040 C 
BRANCH   4   5
HETATM    5  C   UNL     1      -3.604  16.926  20.209  0.00  0.00     0.176 C 
BRANCH   5   6
HETATM    6  O   UNL     1      -4.268  15.665  20.081  0.00  0.00    -0.351 OA
BRANCH   6   7
HETATM    7  C   UNL     1      -3.913  14.731  21.020  0.00  0.00     0.068 A 
HETATM    8  C   UNL     1      -4.322  14.739  22.347  0.00  0.00     0.039 A 
HETATM    9  C   UNL     1      -3.942  13.713  23.220  0.00  0.00     0.032 A 
HETATM   10  C   UNL     1      -3.157  12.629  22.803  0.00  0.00     0.037 A 
HETATM   11  C   UNL     1      -2.696  12.675  21.475  0.00  0.00     0.032 A 
HETATM   12  C   UNL     1      -3.078  13.704  20.591  0.00  0.00     0.039 A 
BRANCH  10  13
HETATM   13  N   UNL     1      -2.842  11.537  23.708  0.00  0.00    -0.318 N 
HETATM   14  C   UNL     1      -1.611  11.518  24.422  0.00  0.00     0.260 C 
HETATM   15  O   UNL     1      -0.864  12.496  24.527  0.00  0.00    -0.267 OA
HETATM   16  C   UNL     1      -3.892  10.550  23.961  0.00  0.00     0.159 C 
BRANCH  14  17
HETATM   17  C   UNL     1      -1.142  10.315  25.178  0.00  0.00     0.066 A 
HETATM   18  C   UNL     1      -1.403  10.255  26.564  0.00  0.00     0.083 A 
HETATM   19  C   UNL     1      -0.999   9.179  27.356  0.00  0.00     0.069 A 
HETATM   20  C   UNL     1      -0.302   8.154  26.718  0.00  0.00     0.065 A 
HETATM   21  N   UNL     1       0.223   6.989  27.203  0.00  0.00    -0.277 N 
HETATM   22  C   UNL     1       0.020   8.174  25.367  0.00  0.00     0.020 A 
HETATM   23  H   UNL     1       0.187   6.647  28.156  0.00  0.00     0.189 HD
HETATM   24  N   UNL     1       0.855   6.245  26.284  0.00  0.00    -0.178 NA
HETATM   25  C   UNL     1       0.760   6.965  25.154  0.00  0.00     0.071 A 
HETATM   26  C   UNL     1      -0.379   9.288  24.589  0.00  0.00     0.035 A 
BRANCH  18  27
HETATM   27  O   UNL     1      -2.052  11.256  27.249  0.00  0.00    -0.360 OA
HETATM   28  H   UNL     1      -2.639  10.825  27.912  0.00  0.00     0.217 HD
ENDBRANCH  18  27
BRANCH  25  29
HETATM   29  C   UNL     1       1.409   6.443  23.904  0.00  0.00     0.100 C 
BRANCH  29  30
HETATM   30  C   UNL     1       2.883   6.771  23.985  0.00  0.00    -0.052 A 
HETATM   31  C   UNL     1       3.614   7.116  22.837  0.00  0.00     0.014 A 
HETATM   32  C   UNL     1       5.005   7.246  22.881  0.00  0.00    -0.061 A 
HETATM   33  C   UNL     1       5.788   7.356  21.607  0.00  0.00     0.048 C 
HETATM   34  C   UNL     1       5.660   7.147  24.112  0.00  0.00     0.007 A 
HETATM   35  C   UNL     1       4.933   6.908  25.279  0.00  0.00     0.001 A 
HETATM   36  C   UNL     1       3.553   6.710  25.216  0.00  0.00     0.007 A 
ENDBRANCH  29  30
ENDBRANCH  25  29
ENDBRANCH  14  17
ENDBRANCH  10  13
ENDBRANCH   6   7
ENDBRANCH   5   6
ENDBRANCH   4   5
ENDBRANCH   1   4
TORSDOF 9
ENDMDL
MODEL 8
REMARK VINA RESULT:    -7.969      1.588      2.344
REMARK INTER + INTRA:         -13.377
REMARK INTER:                 -11.828
REMARK INTRA:                  -1.549
REMARK UNBOUND:                -1.447
REMARK  9 active torsions:
REMARK  status: ('A' for Active; 'I' for Inactive)
REMARK       I    between atoms: C_2  and  N_3 
REMARK    1  A    between atoms: C_2  and  C_17 
REMARK    2  A    between atoms: N_3  and  C_5 
REMARK    3  A    between atoms: C_8  and  O_9 
REMARK    4  A    between atoms: O_9  and  C_10 
REMARK    5  A    between atoms: C_10  and  C_11 
REMARK    6  A    between atoms: C_11  and  C_12 
REMARK    7  A    between atoms: C_18  and  O_19 
REMARK    8  A    between atoms: C_25  and  C_26 
REMARK    9  A    between atoms: C_26  and  C_27 
ROOT
HETATM    1  C   UNL     1       6.754   7.196  20.984  0.00  0.00     0.110 C 
HETATM    2  C   UNL     1       5.684   7.031  19.919  0.00  0.00    -0.021 C 
HETATM    3  N   UNL     1       4.795   6.895  19.034  0.00  0.00    -0.102 N 
ENDROOT
BRANCH   1   4
HETATM    4  C   UNL     1       6.908   5.888  21.747  0.00  0.00     0.040 C 
BRANCH   4   5
HETATM    5  C   UNL     1       6.582   6.056  23.222  0.00  0.00     0.176 C 
BRANCH   5   6
HETATM    6  O   UNL     1       5.303   5.488  23.522  0.00  0.00    -0.351 OA
BRANCH   6   7
HETATM    7  C   UNL     1       4.380   6.377  24.010  0.00  0.00     0.068 A 
HETATM    8  C   UNL     1       4.508   7.092  25.193  0.00  0.00     0.039 A 
HETATM    9  C   UNL     1       3.529   8.012  25.584  0.00  0.00     0.032 A 
HETATM   10  C   UNL     1       2.393   8.272  24.804  0.00  0.00     0.037 A 
HETATM   11  C   UNL     1       2.247   7.488  23.646  0.00  0.00     0.032 A 
HETATM   12  C   UNL     1       3.231   6.563  23.246  0.00  0.00     0.039 A 
BRANCH  10  13
HETATM   13  N   UNL     1       1.432   9.289  25.193  0.00  0.00    -0.318 N 
HETATM   14  C   UNL     1       0.124   8.926  25.620  0.00  0.00     0.260 C 
HETATM   15  O   UNL     1      -0.203   7.775  25.928  0.00  0.00    -0.267 OA
HETATM   16  C   UNL     1       1.907  10.671  25.267  0.00  0.00     0.159 C 
BRANCH  14  17
HETATM   17  C   UNL     1      -0.967   9.934  25.806  0.00  0.00     0.066 A 
HETATM   18  C   UNL     1      -1.421  10.192  27.117  0.00  0.00     0.083 A 
HETATM   19  C   UNL     1      -2.438  11.107  27.391  0.00  0.00     0.069 A 
HETATM   20  C   UNL     1      -3.010  11.758  26.299  0.00  0.00     0.065 A 
HETATM   21  N   UNL     1      -4.009  12.688  26.232  0.00  0.00    -0.277 N 
HETATM   22  C   UNL     1      -2.636  11.517  24.983  0.00  0.00     0.020 A 
HETATM   23  H   UNL     1      -4.526  13.094  27.003  0.00  0.00     0.189 HD
HETATM   24  N   UNL     1      -4.315  13.079  24.986  0.00  0.00    -0.178 NA
HETATM   25  C   UNL     1      -3.497  12.356  24.203  0.00  0.00     0.071 A 
HETATM   26  C   UNL     1      -1.619  10.566  24.729  0.00  0.00     0.035 A 
BRANCH  18  27
HETATM   27  O   UNL     1      -0.917   9.550  28.225  0.00  0.00    -0.360 OA
HETATM   28  H   UNL     1      -0.488  10.233  28.789  0.00  0.00     0.217 HD
ENDBRANCH  18  27
BRANCH  25  29
HETATM   29  C   UNL     1      -3.598  12.508  22.712  0.00  0.00     0.100 C 
BRANCH  29  30
HETATM   30  C   UNL     1      -2.974  13.836  22.346  0.00  0.00    -0.052 A 
HETATM   31  C   UNL     1      -3.628  14.735  21.488  0.00  0.00     0.014 A 
HETATM   32  C   UNL     1      -2.979  15.877  21.011  0.00  0.00    -0.061 A 
HETATM   33  C   UNL     1      -3.593  16.678  19.902  0.00  0.00     0.048 C 
HETATM   34  C   UNL     1      -1.704  16.187  21.492  0.00  0.00     0.007 A 
HETATM   35  C   UNL     1      -1.084  15.358  22.426  0.00  0.00     0.001 A 
HETATM   36  C   UNL     1      -1.709  14.182  22.844  0.00  0.00     0.007 A 
ENDBRANCH  29  30
ENDBRANCH  25  29
ENDBRANCH  14  17
ENDBRANCH  10  13
ENDBRANCH   6   7
ENDBRANCH   5   6
ENDBRANCH   4   5
ENDBRANCH   1   4
TORSDOF 9
ENDMDL
MODEL 9
REMARK VINA RESULT:    -7.950      4.341      6.245
REMARK INTER + INTRA:         -13.347
REMARK INTER:                 -11.900
REMARK INTRA:                  -1.447
REMARK UNBOUND:                -1.447
REMARK  9 active torsions:
REMARK  status: ('A' for Active; 'I' for Inactive)
REMARK       I    between atoms: C_2  and  N_3 
REMARK    1  A    between atoms: C_2  and  C_17 
REMARK    2  A    between atoms: N_3  and  C_5 
REMARK    3  A    between atoms: C_8  and  O_9 
REMARK    4  A    between atoms: O_9  and  C_10 
REMARK    5  A    between atoms: C_10  and  C_11 
REMARK    6  A    between atoms: C_11  and  C_12 
REMARK    7  A    between atoms: C_18  and  O_19 
REMARK    8  A    between atoms: C_25  and  C_26 
REMARK    9  A    between atoms: C_26  and  C_27 
ROOT
HETATM    1  C   UNL     1      -0.403   7.004  29.885  0.00  0.00     0.110 C 
HETATM    2  C   UNL     1       0.726   7.657  30.665  0.00  0.00    -0.021 C 
HETATM    3  N   UNL     1       1.663   8.199  31.313  0.00  0.00    -0.102 N 
ENDROOT
BRANCH   1   4
HETATM    4  C   UNL     1       0.084   6.670  28.482  0.00  0.00     0.040 C 
BRANCH   4   5
HETATM    5  C   UNL     1      -0.586   7.541  27.433  0.00  0.00     0.176 C 
BRANCH   5   6
HETATM    6  O   UNL     1      -1.259   8.643  28.049  0.00  0.00    -0.351 OA
BRANCH   6   7
HETATM    7  C   UNL     1      -1.397   9.751  27.253  0.00  0.00     0.068 A 
HETATM    8  C   UNL     1      -0.531  10.110  26.229  0.00  0.00     0.039 A 
HETATM    9  C   UNL     1      -0.782  11.237  25.440  0.00  0.00     0.032 A 
HETATM   10  C   UNL     1      -1.917  12.041  25.624  0.00  0.00     0.037 A 
HETATM   11  C   UNL     1      -2.744  11.701  26.709  0.00  0.00     0.032 A 
HETATM   12  C   UNL     1      -2.497  10.565  27.504  0.00  0.00     0.039 A 
BRANCH  10  13
HETATM   13  N   UNL     1      -2.196  13.160  24.741  0.00  0.00    -0.318 N 
HETATM   14  C   UNL     1      -2.436  12.948  23.354  0.00  0.00     0.260 C 
HETATM   15  O   UNL     1      -2.672  11.841  22.860  0.00  0.00    -0.267 OA
HETATM   16  C   UNL     1      -2.362  14.477  25.356  0.00  0.00     0.159 C 
BRANCH  14  17
HETATM   17  C   UNL     1      -2.496  14.074  22.370  0.00  0.00     0.066 A 
HETATM   18  C   UNL     1      -3.621  14.159  21.520  0.00  0.00     0.083 A 
HETATM   19  C   UNL     1      -3.763  15.167  20.566  0.00  0.00     0.069 A 
HETATM   20  C   UNL     1      -2.728  16.095  20.471  0.00  0.00     0.065 A 
HETATM   21  N   UNL     1      -2.566  17.178  19.652  0.00  0.00    -0.277 N 
HETATM   22  C   UNL     1      -1.579  16.042  21.250  0.00  0.00     0.020 A 
HETATM   23  H   UNL     1      -3.208  17.515  18.943  0.00  0.00     0.189 HD
HETATM   24  N   UNL     1      -1.413  17.838  19.833  0.00  0.00    -0.178 NA
HETATM   25  C   UNL     1      -0.783  17.144  20.795  0.00  0.00     0.071 A 
HETATM   26  C   UNL     1      -1.446  14.996  22.194  0.00  0.00     0.035 A 
BRANCH  18  27
HETATM   27  O   UNL     1      -4.651  13.247  21.548  0.00  0.00    -0.360 OA
HETATM   28  H   UNL     1      -4.845  13.053  22.493  0.00  0.00     0.217 HD
ENDBRANCH  18  27
BRANCH  25  29
HETATM   29  C   UNL     1       0.586  17.584  21.229  0.00  0.00     0.100 C 
BRANCH  29  30
HETATM   30  C   UNL     1       1.495  16.378  21.161  0.00  0.00    -0.052 A 
HETATM   31  C   UNL     1       1.996  15.780  22.328  0.00  0.00     0.014 A 
HETATM   32  C   UNL     1       2.971  14.780  22.264  0.00  0.00    -0.061 A 
HETATM   33  C   UNL     1       3.677  14.342  23.512  0.00  0.00     0.048 C 
HETATM   34  C   UNL     1       3.364  14.290  21.015  0.00  0.00     0.007 A 
HETATM   35  C   UNL     1       2.796  14.803  19.848  0.00  0.00     0.001 A 
HETATM   36  C   UNL     1       1.875  15.849  19.918  0.00  0.00     0.007 A 
ENDBRANCH  29  30
ENDBRANCH  25  29
ENDBRANCH  14  17
ENDBRANCH  10  13
ENDBRANCH   6   7
ENDBRANCH   5   6
ENDBRANCH   4   5
ENDBRANCH   1   4
TORSDOF 9
ENDMDL
