MODEL 1
REMARK minimizedAffinity -9.49170494
REMARK minimizedRMSD -1
REMARK  8 active torsions:
REMARK  status: ('A' for Active; 'I' for Inactive)
REMARK    1  A    between atoms: C_2  and  C_3 
REMARK    2  A    between atoms: C_3  and  C_4 
REMARK    3  A    between atoms: C_4  and  N_5 
REMARK       I    between atoms: N_5  and  C_7 
REMARK    4  A    between atoms: C_7  and  C_9 
REMARK    5  A    between atoms: C_16  and  C_20 
REMARK    6  A    between atoms: C_17  and  O_19 
REMARK       I    between atoms: C_20  and  N_22 
REMARK    7  A    between atoms: N_22  and  C_24 
REMARK    8  A    between atoms: C_27  and  N_30 
ROOT
HETATM    1  C   UNL     1       1.434  12.274  23.164  0.00  0.00     0.157 A 
HETATM    2  N   UNL     1       0.968  12.932  22.081  0.00  0.00    -0.168 NA
HETATM    3  N   UNL     1      -0.367  12.868  22.196  0.00  0.00    -0.277 N 
HETATM    4  H   UNL     1      -0.931  13.291  21.466  0.00  0.00     0.189 HD
HETATM    5  C   UNL     1       0.347  11.826  23.975  0.00  0.00     0.029 A 
HETATM    6  C   UNL     1      -0.808  12.216  23.310  0.00  0.00     0.065 A 
HETATM    7  C   UNL     1       0.222  11.122  25.185  0.00  0.00     0.036 C 
HETATM    8  C   UNL     1      -1.044  10.914  25.753  0.00  0.00     0.066 C 
HETATM    9  C   UNL     1      -2.181  11.235  24.995  0.00  0.00     0.083 C 
HETATM   10  C   UNL     1      -2.090  11.914  23.772  0.00  0.00     0.069 C 
ENDROOT
BRANCH   8  11
HETATM   11  C   UNL     1      -1.184  10.315  27.129  0.00  0.00     0.260 C 
HETATM   12  O   UNL     1      -1.800  10.998  27.951  0.00  0.00    -0.267 OA
HETATM   13  N   UNL     1      -0.642   9.048  27.415  0.00  0.00    -0.318 N 
HETATM   14  C   UNL     1      -0.913   8.412  28.695  0.00  0.00     0.159 C 
BRANCH  13  15
HETATM   15  C   UNL     1       0.307   8.393  26.594  0.00  0.00     0.037 A 
HETATM   16  C   UNL     1       1.668   8.604  26.797  0.00  0.00     0.032 A 
HETATM   17  C   UNL     1       2.595   8.141  25.858  0.00  0.00     0.031 A 
HETATM   18  C   UNL     1       2.195   7.483  24.685  0.00  0.00     0.030 A 
HETATM   19  C   UNL     1       0.822   7.216  24.551  0.00  0.00     0.031 A 
HETATM   20  C   UNL     1      -0.115   7.633  25.505  0.00  0.00     0.032 A 
BRANCH  18  21
HETATM   21  N   UNL     1       3.096   7.084  23.722  0.00  0.00    -0.377 N 
HETATM   22  C   UNL     1       3.145   5.721  23.180  0.00  0.00     0.149 C 
HETATM   23  C   UNL     1       3.328   5.834  21.659  0.00  0.00     0.187 C 
HETATM   24  O   UNL     1       4.532   6.548  21.325  0.00  0.00    -0.388 OA
HETATM   25  C   UNL     1       4.495   7.882  21.875  0.00  0.00     0.187 C 
HETATM   26  C   UNL     1       4.303   7.866  23.401  0.00  0.00     0.149 C 
ENDBRANCH  18  21
ENDBRANCH  13  15
ENDBRANCH   8  11
BRANCH   9  27
HETATM   27  O   UNL     1      -3.447  10.869  25.374  0.00  0.00    -0.360 OA
HETATM   28  H   UNL     1      -3.351  10.144  26.031  0.00  0.00     0.217 HD
ENDBRANCH   9  27
BRANCH   1  29
HETATM   29  C   UNL     1       2.874  12.086  23.475  0.00  0.00     0.274 C 
HETATM   30  N   UNL     1       3.480  12.888  24.460  0.00  0.00    -0.351 N 
HETATM   31  C   UNL     1       2.903  14.163  24.856  0.00  0.00     0.152 C 
HETATM   32  O   UNL     1       3.542  11.253  22.859  0.00  0.00    -0.266 OA
BRANCH  30  33
HETATM   33  C   UNL     1       4.881  12.633  24.799  0.00  0.00     0.125 C 
BRANCH  33  34
HETATM   34  C   UNL     1       5.876  13.564  24.101  0.00  0.00     0.020 C 
BRANCH  34  35
HETATM   35  C   UNL     1       7.173  12.857  23.705  0.00  0.00    -0.003 C 
HETATM   36  C   UNL     1       6.900  11.461  23.171  0.00  0.00     0.005 C 
ENDBRANCH  34  35
ENDBRANCH  33  34
ENDBRANCH  30  33
ENDBRANCH   1  29
TORSDOF 8
ENDMDL
MODEL 2
REMARK minimizedAffinity -8.75456047
REMARK minimizedRMSD -1
REMARK  8 active torsions:
REMARK  status: ('A' for Active; 'I' for Inactive)
REMARK    1  A    between atoms: C_2  and  C_3 
REMARK    2  A    between atoms: C_3  and  C_4 
REMARK    3  A    between atoms: C_4  and  N_5 
REMARK       I    between atoms: N_5  and  C_7 
REMARK    4  A    between atoms: C_7  and  C_9 
REMARK    5  A    between atoms: C_16  and  C_20 
REMARK    6  A    between atoms: C_17  and  O_19 
REMARK       I    between atoms: C_20  and  N_22 
REMARK    7  A    between atoms: N_22  and  C_24 
REMARK    8  A    between atoms: C_27  and  N_30 
ROOT
HETATM    1  C   UNL     1       1.207  12.422  23.048  0.00  0.00     0.157 A 
HETATM    2  N   UNL     1       0.675  13.007  21.954  0.00  0.00    -0.168 NA
HETATM    3  N   UNL     1      -0.648  12.827  22.085  0.00  0.00    -0.277 N 
HETATM    4  H   UNL     1      -1.255  13.178  21.351  0.00  0.00     0.189 HD
HETATM    5  C   UNL     1       0.171  11.900  23.882  0.00  0.00     0.029 A 
HETATM    6  C   UNL     1      -1.019  12.167  23.220  0.00  0.00     0.065 A 
HETATM    7  C   UNL     1       0.121  11.219  25.111  0.00  0.00     0.036 C 
HETATM    8  C   UNL     1      -1.116  10.913  25.698  0.00  0.00     0.066 C 
HETATM    9  C   UNL     1      -2.284  11.111  24.944  0.00  0.00     0.083 C 
HETATM   10  C   UNL     1      -2.265  11.763  23.704  0.00  0.00     0.069 C 
ENDROOT
BRANCH   8  11
HETATM   11  C   UNL     1      -1.189  10.340  27.089  0.00  0.00     0.260 C 
HETATM   12  O   UNL     1      -1.817  11.011  27.914  0.00  0.00    -0.267 OA
HETATM   13  N   UNL     1      -0.579   9.108  27.388  0.00  0.00    -0.318 N 
HETATM   14  C   UNL     1      -0.784   8.489  28.688  0.00  0.00     0.159 C 
BRANCH  13  15
HETATM   15  C   UNL     1       0.379   8.480  26.555  0.00  0.00     0.037 A 
HETATM   16  C   UNL     1       1.735   8.743  26.732  0.00  0.00     0.032 A 
HETATM   17  C   UNL     1       2.661   8.305  25.780  0.00  0.00     0.031 A 
HETATM   18  C   UNL     1       2.265   7.623  24.620  0.00  0.00     0.030 A 
HETATM   19  C   UNL     1       0.901   7.306  24.513  0.00  0.00     0.031 A 
HETATM   20  C   UNL     1      -0.034   7.697  25.480  0.00  0.00     0.032 A 
BRANCH  18  21
HETATM   21  N   UNL     1       3.163   7.250  23.644  0.00  0.00    -0.377 N 
HETATM   22  C   UNL     1       3.262   5.882  23.122  0.00  0.00     0.149 C 
HETATM   23  C   UNL     1       3.408   5.978  21.596  0.00  0.00     0.187 C 
HETATM   24  O   UNL     1       4.572   6.739  21.226  0.00  0.00    -0.388 OA
HETATM   25  C   UNL     1       4.487   8.079  21.756  0.00  0.00     0.187 C 
HETATM   26  C   UNL     1       4.327   8.079  23.286  0.00  0.00     0.149 C 
ENDBRANCH  18  21
ENDBRANCH  13  15
ENDBRANCH   8  11
BRANCH   9  27
HETATM   27  O   UNL     1      -3.508  10.644  25.346  0.00  0.00    -0.360 OA
HETATM   28  H   UNL     1      -3.342   9.947  26.020  0.00  0.00     0.217 HD
ENDBRANCH   9  27
BRANCH   1  29
HETATM   29  C   UNL     1       2.661  12.371  23.348  0.00  0.00     0.274 C 
HETATM   30  N   UNL     1       3.206  13.268  24.285  0.00  0.00    -0.351 N 
HETATM   31  C   UNL     1       2.526  14.507  24.629  0.00  0.00     0.152 C 
HETATM   32  O   UNL     1       3.391  11.569  22.762  0.00  0.00    -0.266 OA
BRANCH  30  33
HETATM   33  C   UNL     1       4.627  13.150  24.617  0.00  0.00     0.125 C 
BRANCH  33  34
HETATM   34  C   UNL     1       4.984  13.628  26.026  0.00  0.00     0.020 C 
BRANCH  34  35
HETATM   35  C   UNL     1       5.338  15.115  26.077  0.00  0.00    -0.003 C 
HETATM   36  C   UNL     1       5.780  15.623  24.715  0.00  0.00     0.005 C 
ENDBRANCH  34  35
ENDBRANCH  33  34
ENDBRANCH  30  33
ENDBRANCH   1  29
TORSDOF 8
ENDMDL
MODEL 3
REMARK minimizedAffinity -8.55714226
REMARK minimizedRMSD -1
REMARK  8 active torsions:
REMARK  status: ('A' for Active; 'I' for Inactive)
REMARK    1  A    between atoms: C_2  and  C_3 
REMARK    2  A    between atoms: C_3  and  C_4 
REMARK    3  A    between atoms: C_4  and  N_5 
REMARK       I    between atoms: N_5  and  C_7 
REMARK    4  A    between atoms: C_7  and  C_9 
REMARK    5  A    between atoms: C_16  and  C_20 
REMARK    6  A    between atoms: C_17  and  O_19 
REMARK       I    between atoms: C_20  and  N_22 
REMARK    7  A    between atoms: N_22  and  C_24 
REMARK    8  A    between atoms: C_27  and  N_30 
ROOT
HETATM    1  C   UNL     1       1.722  12.327  23.264  0.00  0.00     0.157 A 
HETATM    2  N   UNL     1       1.301  12.964  22.151  0.00  0.00    -0.168 NA
HETATM    3  N   UNL     1      -0.037  12.874  22.197  0.00  0.00    -0.277 N 
HETATM    4  H   UNL     1      -0.571  13.278  21.435  0.00  0.00     0.189 HD
HETATM    5  C   UNL     1       0.603  11.866  24.023  0.00  0.00     0.029 A 
HETATM    6  C   UNL     1      -0.523  12.225  23.295  0.00  0.00     0.065 A 
HETATM    7  C   UNL     1       0.429  11.172  25.234  0.00  0.00     0.036 C 
HETATM    8  C   UNL     1      -0.860  10.945  25.738  0.00  0.00     0.066 C 
HETATM    9  C   UNL     1      -1.962  11.235  24.918  0.00  0.00     0.083 C 
HETATM   10  C   UNL     1      -1.821  11.902  23.694  0.00  0.00     0.069 C 
ENDROOT
BRANCH   8  11
HETATM   11  C   UNL     1      -1.059  10.358  27.111  0.00  0.00     0.260 C 
HETATM   12  O   UNL     1      -1.632  11.084  27.927  0.00  0.00    -0.267 OA
HETATM   13  N   UNL     1      -0.617   9.054  27.402  0.00  0.00    -0.318 N 
HETATM   14  C   UNL     1      -0.948   8.440  28.678  0.00  0.00     0.159 C 
BRANCH  13  15
HETATM   15  C   UNL     1       0.290   8.330  26.591  0.00  0.00     0.037 A 
HETATM   16  C   UNL     1      -0.186   7.535  25.552  0.00  0.00     0.032 A 
HETATM   17  C   UNL     1       0.677   6.652  24.895  0.00  0.00     0.031 A 
HETATM   18  C   UNL     1       2.022   6.516  25.270  0.00  0.00     0.030 A 
HETATM   19  C   UNL     1       2.488   7.388  26.268  0.00  0.00     0.031 A 
HETATM   20  C   UNL     1       1.648   8.311  26.904  0.00  0.00     0.032 A 
BRANCH  18  21
HETATM   21  N   UNL     1       2.861   5.599  24.676  0.00  0.00    -0.377 N 
HETATM   22  C   UNL     1       4.087   5.974  23.960  0.00  0.00     0.149 C 
HETATM   23  C   UNL     1       5.186   4.985  24.373  0.00  0.00     0.187 C 
HETATM   24  O   UNL     1       4.819   3.629  24.058  0.00  0.00    -0.388 OA
HETATM   25  C   UNL     1       3.603   3.264  24.744  0.00  0.00     0.187 C 
HETATM   26  C   UNL     1       2.444   4.214  24.396  0.00  0.00     0.149 C 
ENDBRANCH  18  21
ENDBRANCH  13  15
ENDBRANCH   8  11
BRANCH   9  27
HETATM   27  O   UNL     1      -3.238  10.848  25.235  0.00  0.00    -0.360 OA
HETATM   28  H   UNL     1      -3.163  10.132  25.905  0.00  0.00     0.217 HD
ENDBRANCH   9  27
BRANCH   1  29
HETATM   29  C   UNL     1       3.148  12.170  23.652  0.00  0.00     0.274 C 
HETATM   30  N   UNL     1       3.725  13.085  24.552  0.00  0.00    -0.351 N 
HETATM   31  C   UNL     1       3.146  14.402  24.765  0.00  0.00     0.152 C 
HETATM   32  O   UNL     1       3.829  11.263  23.169  0.00  0.00    -0.266 OA
BRANCH  30  33
HETATM   33  C   UNL     1       5.109  12.867  24.974  0.00  0.00     0.125 C 
BRANCH  33  34
HETATM   34  C   UNL     1       6.154  13.257  23.926  0.00  0.00     0.020 C 
BRANCH  34  35
HETATM   35  C   UNL     1       7.346  12.300  23.891  0.00  0.00    -0.003 C 
HETATM   36  C   UNL     1       7.181  11.253  22.802  0.00  0.00     0.005 C 
ENDBRANCH  34  35
ENDBRANCH  33  34
ENDBRANCH  30  33
ENDBRANCH   1  29
TORSDOF 8
ENDMDL
MODEL 4
REMARK minimizedAffinity -7.85822916
REMARK minimizedRMSD -1
REMARK  8 active torsions:
REMARK  status: ('A' for Active; 'I' for Inactive)
REMARK    1  A    between atoms: C_2  and  C_3 
REMARK    2  A    between atoms: C_3  and  C_4 
REMARK    3  A    between atoms: C_4  and  N_5 
REMARK       I    between atoms: N_5  and  C_7 
REMARK    4  A    between atoms: C_7  and  C_9 
REMARK    5  A    between atoms: C_16  and  C_20 
REMARK    6  A    between atoms: C_17  and  O_19 
REMARK       I    between atoms: C_20  and  N_22 
REMARK    7  A    between atoms: N_22  and  C_24 
REMARK    8  A    between atoms: C_27  and  N_30 
ROOT
HETATM    1  C   UNL     1       5.103   9.060  22.655  0.00  0.00     0.157 A 
HETATM    2  N   UNL     1       4.968   8.895  21.322  0.00  0.00    -0.168 NA
HETATM    3  N   UNL     1       4.086   7.892  21.194  0.00  0.00    -0.277 N 
HETATM    4  H   UNL     1       3.845   7.583  20.258  0.00  0.00     0.189 HD
HETATM    5  C   UNL     1       4.253   8.149  23.354  0.00  0.00     0.029 A 
HETATM    6  C   UNL     1       3.617   7.397  22.376  0.00  0.00     0.065 A 
HETATM    7  C   UNL     1       3.970   7.875  24.703  0.00  0.00     0.036 C 
HETATM    8  C   UNL     1       2.988   6.931  25.041  0.00  0.00     0.066 C 
HETATM    9  C   UNL     1       2.450   6.128  24.023  0.00  0.00     0.083 C 
HETATM   10  C   UNL     1       2.732   6.358  22.670  0.00  0.00     0.069 C 
ENDROOT
BRANCH   8  11
HETATM   11  C   UNL     1       2.552   6.751  26.472  0.00  0.00     0.260 C 
HETATM   12  O   UNL     1       2.863   5.678  26.997  0.00  0.00    -0.267 OA
HETATM   13  N   UNL     1       1.846   7.770  27.139  0.00  0.00    -0.318 N 
HETATM   14  C   UNL     1       1.565   7.652  28.561  0.00  0.00     0.159 C 
BRANCH  13  15
HETATM   15  C   UNL     1       1.229   8.861  26.481  0.00  0.00     0.037 A 
HETATM   16  C   UNL     1      -0.034   8.710  25.915  0.00  0.00     0.032 A 
HETATM   17  C   UNL     1      -0.549   9.706  25.079  0.00  0.00     0.031 A 
HETATM   18  C   UNL     1       0.185  10.860  24.762  0.00  0.00     0.030 A 
HETATM   19  C   UNL     1       1.419  11.017  25.412  0.00  0.00     0.031 A 
HETATM   20  C   UNL     1       1.930  10.051  26.289  0.00  0.00     0.032 A 
BRANCH  18  21
HETATM   21  N   UNL     1      -0.286  11.812  23.886  0.00  0.00    -0.377 N 
HETATM   22  C   UNL     1       0.551  12.884  23.334  0.00  0.00     0.149 C 
HETATM   23  C   UNL     1       0.220  13.008  21.839  0.00  0.00     0.187 C 
HETATM   24  O   UNL     1      -1.172  13.305  21.632  0.00  0.00    -0.388 OA
HETATM   25  C   UNL     1      -1.999  12.263  22.192  0.00  0.00     0.187 C 
HETATM   26  C   UNL     1      -1.726  12.062  23.692  0.00  0.00     0.149 C 
ENDBRANCH  18  21
ENDBRANCH  13  15
ENDBRANCH   8  11
BRANCH   9  27
HETATM   27  O   UNL     1       1.654   5.043  24.284  0.00  0.00    -0.360 OA
HETATM   28  H   UNL     1       1.804   4.797  25.224  0.00  0.00     0.217 HD
ENDBRANCH   9  27
BRANCH   1  29
HETATM   29  C   UNL     1       5.984  10.073  23.290  0.00  0.00     0.274 C 
HETATM   30  N   UNL     1       5.420  11.252  23.810  0.00  0.00    -0.351 N 
HETATM   31  C   UNL     1       4.118  11.726  23.367  0.00  0.00     0.152 C 
HETATM   32  O   UNL     1       7.204   9.897  23.337  0.00  0.00    -0.266 OA
BRANCH  30  33
HETATM   33  C   UNL     1       6.299  12.201  24.495  0.00  0.00     0.125 C 
BRANCH  33  34
HETATM   34  C   UNL     1       5.888  13.666  24.334  0.00  0.00     0.020 C 
BRANCH  34  35
HETATM   35  C   UNL     1       5.330  14.272  25.623  0.00  0.00    -0.003 C 
HETATM   36  C   UNL     1       4.980  15.739  25.437  0.00  0.00     0.005 C 
ENDBRANCH  34  35
ENDBRANCH  33  34
ENDBRANCH  30  33
ENDBRANCH   1  29
TORSDOF 8
ENDMDL
MODEL 5
REMARK minimizedAffinity -7.732759
REMARK minimizedRMSD -1
REMARK  8 active torsions:
REMARK  status: ('A' for Active; 'I' for Inactive)
REMARK    1  A    between atoms: C_2  and  C_3 
REMARK    2  A    between atoms: C_3  and  C_4 
REMARK    3  A    between atoms: C_4  and  N_5 
REMARK       I    between atoms: N_5  and  C_7 
REMARK    4  A    between atoms: C_7  and  C_9 
REMARK    5  A    between atoms: C_16  and  C_20 
REMARK    6  A    between atoms: C_17  and  O_19 
REMARK       I    between atoms: C_20  and  N_22 
REMARK    7  A    between atoms: N_22  and  C_24 
REMARK    8  A    between atoms: C_27  and  N_30 
ROOT
HETATM    1  C   UNL     1       4.882   9.159  21.619  0.00  0.00     0.157 A 
HETATM    2  N   UNL     1       4.695   9.636  20.369  0.00  0.00    -0.168 NA
HETATM    3  N   UNL     1       4.306   8.569  19.655  0.00  0.00    -0.277 N 
HETATM    4  H   UNL     1       4.124   8.695  18.665  0.00  0.00     0.189 HD
HETATM    5  C   UNL     1       4.567   7.767  21.668  0.00  0.00     0.029 A 
HETATM    6  C   UNL     1       4.210   7.413  20.374  0.00  0.00     0.065 A 
HETATM    7  C   UNL     1       4.562   6.774  22.663  0.00  0.00     0.036 C 
HETATM    8  C   UNL     1       4.105   5.480  22.368  0.00  0.00     0.066 C 
HETATM    9  C   UNL     1       3.854   5.148  21.028  0.00  0.00     0.083 C 
HETATM   10  C   UNL     1       3.876   6.108  20.007  0.00  0.00     0.069 C 
ENDROOT
BRANCH   8  11
HETATM   11  C   UNL     1       3.931   4.456  23.459  0.00  0.00     0.260 C 
HETATM   12  O   UNL     1       4.353   3.325  23.205  0.00  0.00    -0.267 OA
HETATM   13  N   UNL     1       3.332   4.810  24.682  0.00  0.00    -0.318 N 
HETATM   14  C   UNL     1       3.308   3.859  25.783  0.00  0.00     0.159 C 
BRANCH  13  15
HETATM   15  C   UNL     1       2.586   5.996  24.881  0.00  0.00     0.037 A 
HETATM   16  C   UNL     1       1.437   6.231  24.130  0.00  0.00     0.032 A 
HETATM   17  C   UNL     1       0.826   7.488  24.162  0.00  0.00     0.031 A 
HETATM   18  C   UNL     1       1.353   8.549  24.914  0.00  0.00     0.030 A 
HETATM   19  C   UNL     1       2.465   8.256  25.720  0.00  0.00     0.031 A 
HETATM   20  C   UNL     1       3.062   6.988  25.736  0.00  0.00     0.032 A 
BRANCH  18  21
HETATM   21  N   UNL     1       0.797   9.809  24.897  0.00  0.00    -0.377 N 
HETATM   22  C   UNL     1       1.585  11.035  24.722  0.00  0.00     0.149 C 
HETATM   23  C   UNL     1       0.822  11.942  23.745  0.00  0.00     0.187 C 
HETATM   24  O   UNL     1      -0.492  12.259  24.239  0.00  0.00    -0.388 OA
HETATM   25  C   UNL     1      -1.263  11.054  24.432  0.00  0.00     0.187 C 
HETATM   26  C   UNL     1      -0.564  10.077  25.394  0.00  0.00     0.149 C 
ENDBRANCH  18  21
ENDBRANCH  13  15
ENDBRANCH   8  11
BRANCH   9  27
HETATM   27  O   UNL     1       3.617   3.860  20.621  0.00  0.00    -0.360 OA
HETATM   28  H   UNL     1       3.949   3.268  21.332  0.00  0.00     0.217 HD
ENDBRANCH   9  27
BRANCH   1  29
HETATM   29  C   UNL     1       5.317   9.985  22.775  0.00  0.00     0.274 C 
HETATM   30  N   UNL     1       6.584  10.595  22.752  0.00  0.00    -0.351 N 
HETATM   31  C   UNL     1       7.643  10.104  21.884  0.00  0.00     0.152 C 
HETATM   32  O   UNL     1       4.585  10.114  23.759  0.00  0.00    -0.266 OA
BRANCH  30  33
HETATM   33  C   UNL     1       6.959  11.462  23.869  0.00  0.00     0.125 C 
BRANCH  33  34
HETATM   34  C   UNL     1       6.558  12.928  23.688  0.00  0.00     0.020 C 
BRANCH  34  35
HETATM   35  C   UNL     1       5.652  13.440  24.808  0.00  0.00    -0.003 C 
HETATM   36  C   UNL     1       5.362  14.923  24.649  0.00  0.00     0.005 C 
ENDBRANCH  34  35
ENDBRANCH  33  34
ENDBRANCH  30  33
ENDBRANCH   1  29
TORSDOF 8
ENDMDL
MODEL 6
REMARK minimizedAffinity -7.44692659
REMARK minimizedRMSD -1
REMARK  8 active torsions:
REMARK  status: ('A' for Active; 'I' for Inactive)
REMARK    1  A    between atoms: C_2  and  C_3 
REMARK    2  A    between atoms: C_3  and  C_4 
REMARK    3  A    between atoms: C_4  and  N_5 
REMARK       I    between atoms: N_5  and  C_7 
REMARK    4  A    between atoms: C_7  and  C_9 
REMARK    5  A    between atoms: C_16  and  C_20 
REMARK    6  A    between atoms: C_17  and  O_19 
REMARK       I    between atoms: C_20  and  N_22 
REMARK    7  A    between atoms: N_22  and  C_24 
REMARK    8  A    between atoms: C_27  and  N_30 
ROOT
HETATM    1  C   UNL     1       5.278   9.075  21.233  0.00  0.00     0.157 A 
HETATM    2  N   UNL     1       4.775   9.383  20.018  0.00  0.00    -0.168 NA
HETATM    3  N   UNL     1       4.162   8.261  19.613  0.00  0.00    -0.277 N 
HETATM    4  H   UNL     1       3.720   8.260  18.699  0.00  0.00     0.189 HD
HETATM    5  C   UNL     1       4.931   7.735  21.585  0.00  0.00     0.029 A 
HETATM    6  C   UNL     1       4.218   7.232  20.506  0.00  0.00     0.065 A 
HETATM    7  C   UNL     1       5.158   6.898  22.692  0.00  0.00     0.036 C 
HETATM    8  C   UNL     1       4.585   5.619  22.739  0.00  0.00     0.066 C 
HETATM    9  C   UNL     1       3.962   5.120  21.584  0.00  0.00     0.083 C 
HETATM   10  C   UNL     1       3.742   5.920  20.454  0.00  0.00     0.069 C 
ENDROOT
BRANCH   8  11
HETATM   11  C   UNL     1       4.675   4.778  23.986  0.00  0.00     0.260 C 
HETATM   12  O   UNL     1       5.353   3.752  23.894  0.00  0.00    -0.267 OA
HETATM   13  N   UNL     1       4.023   5.180  25.167  0.00  0.00    -0.318 N 
HETATM   14  C   UNL     1       4.240   4.447  26.405  0.00  0.00     0.159 C 
BRANCH  13  15
HETATM   15  C   UNL     1       3.015   6.174  25.212  0.00  0.00     0.037 A 
HETATM   16  C   UNL     1       3.323   7.458  25.652  0.00  0.00     0.032 A 
HETATM   17  C   UNL     1       2.297   8.374  25.908  0.00  0.00     0.031 A 
HETATM   18  C   UNL     1       0.945   8.030  25.763  0.00  0.00     0.030 A 
HETATM   19  C   UNL     1       0.673   6.754  25.242  0.00  0.00     0.031 A 
HETATM   20  C   UNL     1       1.690   5.841  24.937  0.00  0.00     0.032 A 
BRANCH  18  21
HETATM   21  N   UNL     1      -0.073   8.903  26.079  0.00  0.00    -0.377 N 
HETATM   22  C   UNL     1      -0.905   8.768  27.281  0.00  0.00     0.149 C 
HETATM   23  C   UNL     1      -1.072  10.169  27.889  0.00  0.00     0.187 C 
HETATM   24  O   UNL     1      -1.684  11.078  26.956  0.00  0.00    -0.388 OA
HETATM   25  C   UNL     1      -0.879  11.196  25.764  0.00  0.00     0.187 C 
HETATM   26  C   UNL     1      -0.650   9.832  25.091  0.00  0.00     0.149 C 
ENDBRANCH  18  21
ENDBRANCH  13  15
ENDBRANCH   8  11
BRANCH   9  27
HETATM   27  O   UNL     1       3.568   3.812  21.466  0.00  0.00    -0.360 OA
HETATM   28  H   UNL     1       4.059   3.302  22.149  0.00  0.00     0.217 HD
ENDBRANCH   9  27
BRANCH   1  29
HETATM   29  C   UNL     1       6.048  10.018  22.085  0.00  0.00     0.274 C 
HETATM   30  N   UNL     1       5.428  10.600  23.206  0.00  0.00    -0.351 N 
HETATM   31  C   UNL     1       3.980  10.680  23.312  0.00  0.00     0.152 C 
HETATM   32  O   UNL     1       7.211  10.310  21.800  0.00  0.00    -0.266 OA
BRANCH  30  33
HETATM   33  C   UNL     1       6.229  11.468  24.071  0.00  0.00     0.125 C 
BRANCH  33  34
HETATM   34  C   UNL     1       5.998  12.964  23.846  0.00  0.00     0.020 C 
BRANCH  34  35
HETATM   35  C   UNL     1       5.588  13.700  25.122  0.00  0.00    -0.003 C 
HETATM   36  C   UNL     1       5.228  15.148  24.832  0.00  0.00     0.005 C 
ENDBRANCH  34  35
ENDBRANCH  33  34
ENDBRANCH  30  33
ENDBRANCH   1  29
TORSDOF 8
ENDMDL
MODEL 7
REMARK minimizedAffinity -7.38651466
REMARK minimizedRMSD -1
REMARK  8 active torsions:
REMARK  status: ('A' for Active; 'I' for Inactive)
REMARK    1  A    between atoms: C_2  and  C_3 
REMARK    2  A    between atoms: C_3  and  C_4 
REMARK    3  A    between atoms: C_4  and  N_5 
REMARK       I    between atoms: N_5  and  C_7 
REMARK    4  A    between atoms: C_7  and  C_9 
REMARK    5  A    between atoms: C_16  and  C_20 
REMARK    6  A    between atoms: C_17  and  O_19 
REMARK       I    between atoms: C_20  and  N_22 
REMARK    7  A    between atoms: N_22  and  C_24 
REMARK    8  A    between atoms: C_27  and  N_30 
ROOT
HETATM    1  C   UNL     1       3.779   8.467  22.859  0.00  0.00     0.157 A 
HETATM    2  N   UNL     1       4.011   7.325  22.176  0.00  0.00    -0.168 NA
HETATM    3  N   UNL     1       2.977   6.529  22.491  0.00  0.00    -0.277 N 
HETATM    4  H   UNL     1       2.956   5.594  22.095  0.00  0.00     0.189 HD
HETATM    5  C   UNL     1       2.551   8.369  23.583  0.00  0.00     0.029 A 
HETATM    6  C   UNL     1       2.064   7.093  23.333  0.00  0.00     0.065 A 
HETATM    7  C   UNL     1       1.816   9.216  24.431  0.00  0.00     0.036 C 
HETATM    8  C   UNL     1       0.567   8.809  24.925  0.00  0.00     0.066 C 
HETATM    9  C   UNL     1       0.169   7.478  24.728  0.00  0.00     0.083 C 
HETATM   10  C   UNL     1       0.892   6.599  23.910  0.00  0.00     0.069 C 
ENDROOT
BRANCH   8  11
HETATM   11  C   UNL     1      -0.308   9.767  25.691  0.00  0.00     0.260 C 
HETATM   12  O   UNL     1      -0.727  10.737  25.055  0.00  0.00    -0.267 OA
HETATM   13  N   UNL     1      -0.618   9.527  27.043  0.00  0.00    -0.318 N 
HETATM   14  C   UNL     1      -1.584  10.369  27.730  0.00  0.00     0.159 C 
BRANCH  13  15
HETATM   15  C   UNL     1       0.078   8.602  27.859  0.00  0.00     0.037 A 
HETATM   16  C   UNL     1      -0.613   7.844  28.799  0.00  0.00     0.032 A 
HETATM   17  C   UNL     1       0.090   7.100  29.751  0.00  0.00     0.031 A 
HETATM   18  C   UNL     1       1.492   7.112  29.812  0.00  0.00     0.030 A 
HETATM   19  C   UNL     1       2.159   7.822  28.801  0.00  0.00     0.031 A 
HETATM   20  C   UNL     1       1.470   8.536  27.812  0.00  0.00     0.032 A 
BRANCH  18  21
HETATM   21  N   UNL     1       2.190   6.437  30.789  0.00  0.00    -0.377 N 
HETATM   22  C   UNL     1       1.552   5.835  31.966  0.00  0.00     0.149 C 
HETATM   23  C   UNL     1       2.185   4.452  32.180  0.00  0.00     0.187 C 
HETATM   24  O   UNL     1       3.607   4.549  32.378  0.00  0.00    -0.388 OA
HETATM   25  C   UNL     1       4.235   5.160  31.231  0.00  0.00     0.187 C 
HETATM   26  C   UNL     1       3.652   6.553  30.934  0.00  0.00     0.149 C 
ENDBRANCH  18  21
ENDBRANCH  13  15
ENDBRANCH   8  11
BRANCH   9  27
HETATM   27  O   UNL     1      -0.923   6.935  25.354  0.00  0.00    -0.360 OA
HETATM   28  H   UNL     1      -1.131   7.515  26.121  0.00  0.00     0.217 HD
ENDBRANCH   9  27
BRANCH   1  29
HETATM   29  C   UNL     1       4.662   9.660  22.821  0.00  0.00     0.274 C 
HETATM   30  N   UNL     1       5.965   9.574  23.346  0.00  0.00    -0.351 N 
HETATM   31  C   UNL     1       6.325   8.543  24.306  0.00  0.00     0.152 C 
HETATM   32  O   UNL     1       4.251  10.727  22.358  0.00  0.00    -0.266 OA
BRANCH  30  33
HETATM   33  C   UNL     1       6.841  10.741  23.231  0.00  0.00     0.125 C 
BRANCH  33  34
HETATM   34  C   UNL     1       6.618  11.802  24.311  0.00  0.00     0.020 C 
BRANCH  34  35
HETATM   35  C   UNL     1       6.590  13.224  23.750  0.00  0.00    -0.003 C 
HETATM   36  C   UNL     1       5.504  14.057  24.412  0.00  0.00     0.005 C 
ENDBRANCH  34  35
ENDBRANCH  33  34
ENDBRANCH  30  33
ENDBRANCH   1  29
TORSDOF 8
ENDMDL
MODEL 8
REMARK minimizedAffinity -7.2593751
REMARK minimizedRMSD -1
REMARK  8 active torsions:
REMARK  status: ('A' for Active; 'I' for Inactive)
REMARK    1  A    between atoms: C_2  and  C_3 
REMARK    2  A    between atoms: C_3  and  C_4 
REMARK    3  A    between atoms: C_4  and  N_5 
REMARK       I    between atoms: N_5  and  C_7 
REMARK    4  A    between atoms: C_7  and  C_9 
REMARK    5  A    between atoms: C_16  and  C_20 
REMARK    6  A    between atoms: C_17  and  O_19 
REMARK       I    between atoms: C_20  and  N_22 
REMARK    7  A    between atoms: N_22  and  C_24 
REMARK    8  A    between atoms: C_27  and  N_30 
ROOT
HETATM    1  C   UNL     1      -1.561  10.774  25.881  0.00  0.00     0.157 A 
HETATM    2  N   UNL     1      -2.745  10.650  25.244  0.00  0.00    -0.168 NA
HETATM    3  N   UNL     1      -2.579  11.316  24.091  0.00  0.00    -0.277 N 
HETATM    4  H   UNL     1      -3.364  11.369  23.451  0.00  0.00     0.189 HD
HETATM    5  C   UNL     1      -0.641  11.511  25.074  0.00  0.00     0.029 A 
HETATM    6  C   UNL     1      -1.338  11.860  23.926  0.00  0.00     0.065 A 
HETATM    7  C   UNL     1       0.695  11.930  25.204  0.00  0.00     0.036 C 
HETATM    8  C   UNL     1       1.332  12.596  24.146  0.00  0.00     0.066 C 
HETATM    9  C   UNL     1       0.557  13.013  23.053  0.00  0.00     0.083 C 
HETATM   10  C   UNL     1      -0.784  12.635  22.905  0.00  0.00     0.069 C 
ENDROOT
BRANCH   8  11
HETATM   11  C   UNL     1       2.807  12.898  24.202  0.00  0.00     0.260 C 
HETATM   12  O   UNL     1       3.125  14.067  23.967  0.00  0.00    -0.267 OA
HETATM   13  N   UNL     1       3.732  11.886  24.518  0.00  0.00    -0.318 N 
HETATM   14  C   UNL     1       5.134  12.217  24.720  0.00  0.00     0.159 C 
BRANCH  13  15
HETATM   15  C   UNL     1       3.427  10.503  24.496  0.00  0.00     0.037 A 
HETATM   16  C   UNL     1       3.116   9.839  25.679  0.00  0.00     0.032 A 
HETATM   17  C   UNL     1       3.032   8.443  25.696  0.00  0.00     0.031 A 
HETATM   18  C   UNL     1       3.282   7.673  24.550  0.00  0.00     0.030 A 
HETATM   19  C   UNL     1       3.514   8.377  23.358  0.00  0.00     0.031 A 
HETATM   20  C   UNL     1       3.555   9.777  23.313  0.00  0.00     0.032 A 
BRANCH  18  21
HETATM   21  N   UNL     1       3.270   6.295  24.574  0.00  0.00    -0.377 N 
HETATM   22  C   UNL     1       4.405   5.488  25.036  0.00  0.00     0.149 C 
HETATM   23  C   UNL     1       3.844   4.357  25.912  0.00  0.00     0.187 C 
HETATM   24  O   UNL     1       2.912   3.539  25.182  0.00  0.00    -0.388 OA
HETATM   25  C   UNL     1       1.805   4.335  24.708  0.00  0.00     0.187 C 
HETATM   26  C   UNL     1       2.277   5.503  23.826  0.00  0.00     0.149 C 
ENDBRANCH  18  21
ENDBRANCH  13  15
ENDBRANCH   8  11
BRANCH   9  27
HETATM   27  O   UNL     1       1.043  13.851  22.083  0.00  0.00    -0.360 OA
HETATM   28  H   UNL     1       1.836  14.295  22.459  0.00  0.00     0.217 HD
ENDBRANCH   9  27
BRANCH   1  29
HETATM   29  C   UNL     1      -1.261  10.189  27.213  0.00  0.00     0.274 C 
HETATM   30  N   UNL     1      -0.551   8.976  27.292  0.00  0.00    -0.351 N 
HETATM   31  C   UNL     1      -0.495   8.059  26.164  0.00  0.00     0.152 C 
HETATM   32  O   UNL     1      -1.651  10.745  28.241  0.00  0.00    -0.266 OA
BRANCH  30  33
HETATM   33  C   UNL     1      -0.204   8.458  28.616  0.00  0.00     0.125 C 
BRANCH  33  34
HETATM   34  C   UNL     1       1.145   7.737  28.674  0.00  0.00     0.020 C 
BRANCH  34  35
HETATM   35  C   UNL     1       1.653   7.541  30.102  0.00  0.00    -0.003 C 
HETATM   36  C   UNL     1       0.507   7.265  31.062  0.00  0.00     0.005 C 
ENDBRANCH  34  35
ENDBRANCH  33  34
ENDBRANCH  30  33
ENDBRANCH   1  29
TORSDOF 8
ENDMDL
MODEL 9
REMARK minimizedAffinity -6.99081945
REMARK minimizedRMSD -1
REMARK  8 active torsions:
REMARK  status: ('A' for Active; 'I' for Inactive)
REMARK    1  A    between atoms: C_2  and  C_3 
REMARK    2  A    between atoms: C_3  and  C_4 
REMARK    3  A    between atoms: C_4  and  N_5 
REMARK       I    between atoms: N_5  and  C_7 
REMARK    4  A    between atoms: C_7  and  C_9 
REMARK    5  A    between atoms: C_16  and  C_20 
REMARK    6  A    between atoms: C_17  and  O_19 
REMARK       I    between atoms: C_20  and  N_22 
REMARK    7  A    between atoms: N_22  and  C_24 
REMARK    8  A    between atoms: C_27  and  N_30 
ROOT
HETATM    1  C   UNL     1       6.449  10.453  22.720  0.00  0.00     0.157 A 
HETATM    2  N   UNL     1       7.778  10.578  22.924  0.00  0.00    -0.168 NA
HETATM    3  N   UNL     1       7.908  11.728  23.604  0.00  0.00    -0.277 N 
HETATM    4  H   UNL     1       8.843  12.033  23.853  0.00  0.00     0.189 HD
HETATM    5  C   UNL     1       5.752  11.545  23.323  0.00  0.00     0.029 A 
HETATM    6  C   UNL     1       6.730  12.360  23.876  0.00  0.00     0.065 A 
HETATM    7  C   UNL     1       4.406  11.932  23.443  0.00  0.00     0.036 C 
HETATM    8  C   UNL     1       4.061  13.065  24.196  0.00  0.00     0.066 C 
HETATM    9  C   UNL     1       5.089  13.909  24.646  0.00  0.00     0.083 C 
HETATM   10  C   UNL     1       6.441  13.565  24.519  0.00  0.00     0.069 C 
ENDROOT
BRANCH   8  11
HETATM   11  C   UNL     1       2.618  13.395  24.476  0.00  0.00     0.260 C 
HETATM   12  O   UNL     1       2.349  14.596  24.562  0.00  0.00    -0.267 OA
HETATM   13  N   UNL     1       1.664  12.369  24.613  0.00  0.00    -0.318 N 
HETATM   14  C   UNL     1       0.252  12.698  24.729  0.00  0.00     0.159 C 
BRANCH  13  15
HETATM   15  C   UNL     1       1.994  11.007  24.813  0.00  0.00     0.037 A 
HETATM   16  C   UNL     1       1.705  10.068  23.827  0.00  0.00     0.032 A 
HETATM   17  C   UNL     1       1.823   8.702  24.106  0.00  0.00     0.031 A 
HETATM   18  C   UNL     1       2.203   8.237  25.374  0.00  0.00     0.030 A 
HETATM   19  C   UNL     1       2.564   9.210  26.319  0.00  0.00     0.031 A 
HETATM   20  C   UNL     1       2.496  10.582  26.041  0.00  0.00     0.032 A 
BRANCH  18  21
HETATM   21  N   UNL     1       2.255   6.894  25.678  0.00  0.00    -0.377 N 
HETATM   22  C   UNL     1       1.221   5.935  25.270  0.00  0.00     0.149 C 
HETATM   23  C   UNL     1       1.934   4.669  24.770  0.00  0.00     0.187 C 
HETATM   24  O   UNL     1       2.770   4.098  25.792  0.00  0.00    -0.388 OA
HETATM   25  C   UNL     1       3.775   5.046  26.210  0.00  0.00     0.187 C 
HETATM   26  C   UNL     1       3.149   6.356  26.719  0.00  0.00     0.149 C 
ENDBRANCH  18  21
ENDBRANCH  13  15
ENDBRANCH   8  11
BRANCH   9  27
HETATM   27  O   UNL     1       4.842  15.140  25.196  0.00  0.00    -0.360 OA
HETATM   28  H   UNL     1       3.931  15.396  24.929  0.00  0.00     0.217 HD
ENDBRANCH   9  27
BRANCH   1  29
HETATM   29  C   UNL     1       5.814   9.318  22.003  0.00  0.00     0.274 C 
HETATM   30  N   UNL     1       5.284   8.243  22.741  0.00  0.00    -0.351 N 
HETATM   31  C   UNL     1       5.717   7.976  24.104  0.00  0.00     0.152 C 
HETATM   32  O   UNL     1       5.774   9.301  20.771  0.00  0.00    -0.266 OA
BRANCH  30  33
HETATM   33  C   UNL     1       4.598   7.172  22.016  0.00  0.00     0.125 C 
BRANCH  33  34
HETATM   34  C   UNL     1       4.940   5.764  22.508  0.00  0.00     0.020 C 
BRANCH  34  35
HETATM   35  C   UNL     1       4.342   4.666  21.627  0.00  0.00    -0.003 C 
HETATM   36  C   UNL     1       3.154   5.182  20.833  0.00  0.00     0.005 C 
ENDBRANCH  34  35
ENDBRANCH  33  34
ENDBRANCH  30  33
ENDBRANCH   1  29
TORSDOF 8
ENDMDL
