MODEL 1
REMARK VINA RESULT:    -8.749      0.000      0.000
REMARK INTER + INTRA:         -10.336
REMARK INTER:                  -9.385
REMARK INTRA:                  -0.950
REMARK UNBOUND:                -0.052
REMARK  3 active torsions:
REMARK  status: ('A' for Active; 'I' for Inactive)
REMARK       I    between atoms: C_2  and  N_3 
REMARK    1  A    between atoms: C_2  and  C_27 
REMARK    2  A    between atoms: N_3  and  C_4 
REMARK    3  A    between atoms: C_16  and  C_17 
ROOT
HETATM    1  C   UNL     1      -2.351  11.898  25.472  0.00  0.00     0.153 A 
HETATM    2  C   UNL     1      -2.203  11.806  23.971  0.00  0.00    -0.020 A 
HETATM    3  C   UNL     1      -2.665  10.784  23.149  0.00  0.00     0.010 A 
HETATM    4  C   UNL     1      -2.466  10.900  21.777  0.00  0.00     0.001 A 
HETATM    5  C   UNL     1      -1.820  12.025  21.252  0.00  0.00     0.001 A 
HETATM    6  C   UNL     1      -1.374  13.056  22.089  0.00  0.00     0.013 A 
HETATM    7  C   UNL     1      -1.554  12.955  23.460  0.00  0.00    -0.016 A 
HETATM    8  C   UNL     1      -1.258  13.871  24.565  0.00  0.00    -0.003 A 
HETATM    9  C   UNL     1      -1.804  13.290  25.747  0.00  0.00    -0.019 A 
HETATM   10  C   UNL     1      -1.785  13.928  26.981  0.00  0.00     0.010 A 
HETATM   11  C   UNL     1      -1.157  15.161  27.067  0.00  0.00     0.002 A 
HETATM   12  C   UNL     1      -0.562  15.730  25.929  0.00  0.00     0.016 A 
HETATM   13  C   UNL     1      -0.609  15.110  24.657  0.00  0.00     0.022 A 
ENDROOT
BRANCH   1  14
HETATM   14  N   UNL     1      -1.532  10.918  26.151  0.00  0.00    -0.344 N 
HETATM   15  C   UNL     1      -1.848  10.429  27.391  0.00  0.00     0.252 C 
HETATM   16  O   UNL     1      -2.863  10.732  28.005  0.00  0.00    -0.268 OA
HETATM   17  H   UNL     1      -0.677  10.646  25.687  0.00  0.00     0.163 HD
BRANCH  15  18
HETATM   18  C   UNL     1      -0.826   9.555  28.025  0.00  0.00     0.034 A 
HETATM   19  C   UNL     1      -0.921   9.127  29.350  0.00  0.00     0.036 A 
HETATM   20  C   UNL     1       0.044   8.248  29.813  0.00  0.00     0.117 A 
HETATM   21  N   UNL     1       1.064   7.787  29.059  0.00  0.00    -0.273 NA
HETATM   22  C   UNL     1       1.146   8.242  27.790  0.00  0.00     0.117 A 
HETATM   23  C   UNL     1       0.240   9.125  27.236  0.00  0.00     0.036 A 
ENDBRANCH  15  18
ENDBRANCH   1  14
BRANCH  13  24
HETATM   24  C   UNL     1       0.053  15.778  23.532  0.00  0.00     0.140 A 
HETATM   25  N   UNL     1       1.350  15.951  23.360  0.00  0.00    -0.227 NA
HETATM   26  C   UNL     1       1.505  16.611  22.165  0.00  0.00     0.103 A 
HETATM   27  C   UNL     1       2.660  16.987  21.476  0.00  0.00     0.150 A 
HETATM   28  C   UNL     1       0.268  16.919  21.615  0.00  0.00     0.065 A 
HETATM   29  N   UNL     1       2.564  17.674  20.305  0.00  0.00    -0.271 NA
HETATM   30  C   UNL     1       1.334  17.980  19.828  0.00  0.00     0.118 A 
HETATM   31  C   UNL     1       0.130  17.628  20.427  0.00  0.00     0.051 A 
HETATM   32  N   UNL     1      -0.634  16.369  22.488  0.00  0.00    -0.338 N 
HETATM   33  H   UNL     1      -1.637  16.376  22.382  0.00  0.00     0.167 HD
ENDBRANCH  13  24
TORSDOF 3
ENDMDL
MODEL 2
REMARK VINA RESULT:    -8.729      2.642      8.910
REMARK INTER + INTRA:         -10.312
REMARK INTER:                  -9.280
REMARK INTRA:                  -1.032
REMARK UNBOUND:                -0.052
REMARK  3 active torsions:
REMARK  status: ('A' for Active; 'I' for Inactive)
REMARK       I    between atoms: C_2  and  N_3 
REMARK    1  A    between atoms: C_2  and  C_27 
REMARK    2  A    between atoms: N_3  and  C_4 
REMARK    3  A    between atoms: C_16  and  C_17 
ROOT
HETATM    1  C   UNL     1      -1.343  10.666  23.431  0.00  0.00     0.153 A 
HETATM    2  C   UNL     1      -2.225  10.885  24.638  0.00  0.00    -0.020 A 
HETATM    3  C   UNL     1      -3.398  11.631  24.688  0.00  0.00     0.010 A 
HETATM    4  C   UNL     1      -4.096  11.681  25.891  0.00  0.00     0.001 A 
HETATM    5  C   UNL     1      -3.620  10.991  27.011  0.00  0.00     0.001 A 
HETATM    6  C   UNL     1      -2.445  10.229  26.943  0.00  0.00     0.013 A 
HETATM    7  C   UNL     1      -1.730  10.173  25.757  0.00  0.00    -0.016 A 
HETATM    8  C   UNL     1      -0.527   9.435  25.363  0.00  0.00    -0.003 A 
HETATM    9  C   UNL     1      -0.341   9.654  23.966  0.00  0.00    -0.019 A 
HETATM   10  C   UNL     1       0.661   9.035  23.232  0.00  0.00     0.010 A 
HETATM   11  C   UNL     1       1.549   8.210  23.906  0.00  0.00     0.002 A 
HETATM   12  C   UNL     1       1.422   8.021  25.292  0.00  0.00     0.016 A 
HETATM   13  C   UNL     1       0.380   8.614  26.047  0.00  0.00     0.022 A 
ENDROOT
BRANCH   1  14
HETATM   14  N   UNL     1      -0.646  11.875  23.051  0.00  0.00    -0.344 N 
HETATM   15  C   UNL     1      -0.558  12.293  21.749  0.00  0.00     0.252 C 
HETATM   16  O   UNL     1      -1.095  11.719  20.811  0.00  0.00    -0.268 OA
HETATM   17  H   UNL     1      -0.177  12.377  23.791  0.00  0.00     0.163 HD
BRANCH  15  18
HETATM   18  C   UNL     1       0.327  13.462  21.501  0.00  0.00     0.034 A 
HETATM   19  C   UNL     1       1.619  13.331  20.988  0.00  0.00     0.036 A 
HETATM   20  C   UNL     1       2.324  14.492  20.718  0.00  0.00     0.117 A 
HETATM   21  N   UNL     1       1.836  15.733  20.925  0.00  0.00    -0.273 NA
HETATM   22  C   UNL     1       0.595  15.827  21.449  0.00  0.00     0.117 A 
HETATM   23  C   UNL     1      -0.187  14.732  21.760  0.00  0.00     0.036 A 
ENDBRANCH  15  18
ENDBRANCH   1  14
BRANCH  13  24
HETATM   24  C   UNL     1       0.341   8.368  27.492  0.00  0.00     0.140 A 
HETATM   25  N   UNL     1       0.942   9.066  28.436  0.00  0.00    -0.227 NA
HETATM   26  C   UNL     1       0.611   8.478  29.633  0.00  0.00     0.103 A 
HETATM   27  C   UNL     1       0.921   8.845  30.944  0.00  0.00     0.150 A 
HETATM   28  C   UNL     1      -0.159   7.343  29.421  0.00  0.00     0.065 A 
HETATM   29  N   UNL     1       0.503   8.077  31.986  0.00  0.00    -0.271 NA
HETATM   30  C   UNL     1      -0.216   6.959  31.724  0.00  0.00     0.118 A 
HETATM   31  C   UNL     1      -0.596   6.527  30.459  0.00  0.00     0.051 A 
HETATM   32  N   UNL     1      -0.331   7.301  28.062  0.00  0.00    -0.338 N 
HETATM   33  H   UNL     1      -0.871   6.618  27.556  0.00  0.00     0.167 HD
ENDBRANCH  13  24
TORSDOF 3
ENDMDL
MODEL 3
REMARK VINA RESULT:    -8.719      2.886      8.975
REMARK INTER + INTRA:         -10.300
REMARK INTER:                  -9.232
REMARK INTRA:                  -1.068
REMARK UNBOUND:                -0.052
REMARK  3 active torsions:
REMARK  status: ('A' for Active; 'I' for Inactive)
REMARK       I    between atoms: C_2  and  N_3 
REMARK    1  A    between atoms: C_2  and  C_27 
REMARK    2  A    between atoms: N_3  and  C_4 
REMARK    3  A    between atoms: C_16  and  C_17 
ROOT
HETATM    1  C   UNL     1      -0.624  11.077  23.781  0.00  0.00     0.153 A 
HETATM    2  C   UNL     1      -1.481  11.381  24.989  0.00  0.00    -0.020 A 
HETATM    3  C   UNL     1      -2.485  12.338  25.078  0.00  0.00     0.010 A 
HETATM    4  C   UNL     1      -3.196  12.440  26.270  0.00  0.00     0.001 A 
HETATM    5  C   UNL     1      -2.898  11.590  27.342  0.00  0.00     0.001 A 
HETATM    6  C   UNL     1      -1.894  10.618  27.233  0.00  0.00     0.013 A 
HETATM    7  C   UNL     1      -1.170  10.506  26.057  0.00  0.00    -0.016 A 
HETATM    8  C   UNL     1      -0.124   9.574  25.625  0.00  0.00    -0.003 A 
HETATM    9  C   UNL     1       0.143   9.851  24.253  0.00  0.00    -0.019 A 
HETATM   10  C   UNL     1       1.025   9.100  23.488  0.00  0.00     0.010 A 
HETATM   11  C   UNL     1       1.712   8.069  24.111  0.00  0.00     0.002 A 
HETATM   12  C   UNL     1       1.510   7.811  25.476  0.00  0.00     0.016 A 
HETATM   13  C   UNL     1       0.584   8.543  26.259  0.00  0.00     0.022 A 
ENDROOT
BRANCH   1  14
HETATM   14  N   UNL     1       0.308  12.149  23.505  0.00  0.00    -0.344 N 
HETATM   15  C   UNL     1       0.600  12.556  22.229  0.00  0.00     0.252 C 
HETATM   16  O   UNL     1       0.069  12.095  21.228  0.00  0.00    -0.268 OA
HETATM   17  H   UNL     1       0.779  12.553  24.300  0.00  0.00     0.163 HD
BRANCH  15  18
HETATM   18  C   UNL     1       1.695  13.553  22.101  0.00  0.00     0.034 A 
HETATM   19  C   UNL     1       2.453  13.982  23.192  0.00  0.00     0.036 A 
HETATM   20  C   UNL     1       3.502  14.850  22.946  0.00  0.00     0.117 A 
HETATM   21  N   UNL     1       3.829  15.305  21.717  0.00  0.00    -0.273 NA
HETATM   22  C   UNL     1       3.059  14.896  20.685  0.00  0.00     0.117 A 
HETATM   23  C   UNL     1       1.986  14.038  20.827  0.00  0.00     0.036 A 
ENDBRANCH  15  18
ENDBRANCH   1  14
BRANCH  13  24
HETATM   24  C   UNL     1       0.454   8.206  27.680  0.00  0.00     0.140 A 
HETATM   25  N   UNL     1       0.942   8.877  28.705  0.00  0.00    -0.227 NA
HETATM   26  C   UNL     1       0.560   8.200  29.838  0.00  0.00     0.103 A 
HETATM   27  C   UNL     1       0.752   8.502  31.187  0.00  0.00     0.150 A 
HETATM   28  C   UNL     1      -0.124   7.039  29.504  0.00  0.00     0.065 A 
HETATM   29  N   UNL     1       0.305   7.649  32.150  0.00  0.00    -0.271 NA
HETATM   30  C   UNL     1      -0.325   6.512  31.770  0.00  0.00     0.118 A 
HETATM   31  C   UNL     1      -0.586   6.138  30.457  0.00  0.00     0.051 A 
HETATM   32  N   UNL     1      -0.193   7.071  28.135  0.00  0.00    -0.338 N 
HETATM   33  H   UNL     1      -0.654   6.392  27.551  0.00  0.00     0.167 HD
ENDBRANCH  13  24
TORSDOF 3
ENDMDL
MODEL 4
REMARK VINA RESULT:    -8.618      2.795      4.067
REMARK INTER + INTRA:         -10.181
REMARK INTER:                  -9.146
REMARK INTRA:                  -1.036
REMARK UNBOUND:                -0.052
REMARK  3 active torsions:
REMARK  status: ('A' for Active; 'I' for Inactive)
REMARK       I    between atoms: C_2  and  N_3 
REMARK    1  A    between atoms: C_2  and  C_27 
REMARK    2  A    between atoms: N_3  and  C_4 
REMARK    3  A    between atoms: C_16  and  C_17 
ROOT
HETATM    1  C   UNL     1      -0.988   8.667  26.822  0.00  0.00     0.153 A 
HETATM    2  C   UNL     1       0.027   8.311  25.759  0.00  0.00    -0.020 A 
HETATM    3  C   UNL     1       0.567   7.055  25.511  0.00  0.00     0.010 A 
HETATM    4  C   UNL     1       1.463   6.919  24.454  0.00  0.00     0.001 A 
HETATM    5  C   UNL     1       1.798   8.028  23.669  0.00  0.00     0.001 A 
HETATM    6  C   UNL     1       1.233   9.286  23.919  0.00  0.00     0.013 A 
HETATM    7  C   UNL     1       0.346   9.443  24.972  0.00  0.00    -0.016 A 
HETATM    8  C   UNL     1      -0.437  10.590  25.441  0.00  0.00    -0.003 A 
HETATM    9  C   UNL     1      -1.292  10.117  26.480  0.00  0.00    -0.019 A 
HETATM   10  C   UNL     1      -2.240  10.918  27.101  0.00  0.00     0.010 A 
HETATM   11  C   UNL     1      -2.316  12.251  26.724  0.00  0.00     0.002 A 
HETATM   12  C   UNL     1      -1.448  12.756  25.744  0.00  0.00     0.016 A 
HETATM   13  C   UNL     1      -0.503  11.941  25.073  0.00  0.00     0.022 A 
ENDROOT
BRANCH   1  14
HETATM   14  N   UNL     1      -0.417   8.597  28.150  0.00  0.00    -0.344 N 
HETATM   15  C   UNL     1      -0.540   7.487  28.944  0.00  0.00     0.252 C 
HETATM   16  O   UNL     1      -1.089   6.453  28.589  0.00  0.00    -0.268 OA
HETATM   17  H   UNL     1       0.036   9.432  28.490  0.00  0.00     0.163 HD
BRANCH  15  18
HETATM   18  C   UNL     1      -0.044   7.628  30.339  0.00  0.00     0.034 A 
HETATM   19  C   UNL     1       0.550   8.800  30.810  0.00  0.00     0.036 A 
HETATM   20  C   UNL     1       0.900   8.851  32.148  0.00  0.00     0.117 A 
HETATM   21  N   UNL     1       0.703   7.835  33.016  0.00  0.00    -0.273 NA
HETATM   22  C   UNL     1       0.155   6.703  32.524  0.00  0.00     0.117 A 
HETATM   23  C   UNL     1      -0.222   6.549  31.203  0.00  0.00     0.036 A 
ENDBRANCH  15  18
ENDBRANCH   1  14
BRANCH  13  24
HETATM   24  C   UNL     1       0.368  12.566  24.072  0.00  0.00     0.140 A 
HETATM   25  N   UNL     1       0.192  12.587  22.765  0.00  0.00    -0.227 NA
HETATM   26  C   UNL     1       1.246  13.293  22.236  0.00  0.00     0.103 A 
HETATM   27  C   UNL     1       1.521  13.668  20.920  0.00  0.00     0.150 A 
HETATM   28  C   UNL     1       2.137  13.659  23.236  0.00  0.00     0.065 A 
HETATM   29  N   UNL     1       2.663  14.348  20.627  0.00  0.00    -0.271 NA
HETATM   30  C   UNL     1       3.517  14.651  21.634  0.00  0.00     0.118 A 
HETATM   31  C   UNL     1       3.318  14.344  22.975  0.00  0.00     0.051 A 
HETATM   32  N   UNL     1       1.554  13.203  24.389  0.00  0.00    -0.338 N 
HETATM   33  H   UNL     1       1.917  13.324  25.322  0.00  0.00     0.167 HD
ENDBRANCH  13  24
TORSDOF 3
ENDMDL
MODEL 5
REMARK VINA RESULT:    -8.516      2.868      4.195
REMARK INTER + INTRA:         -10.062
REMARK INTER:                  -9.103
REMARK INTRA:                  -0.958
REMARK UNBOUND:                -0.052
REMARK  3 active torsions:
REMARK  status: ('A' for Active; 'I' for Inactive)
REMARK       I    between atoms: C_2  and  N_3 
REMARK    1  A    between atoms: C_2  and  C_27 
REMARK    2  A    between atoms: N_3  and  C_4 
REMARK    3  A    between atoms: C_16  and  C_17 
ROOT
HETATM    1  C   UNL     1      -0.760  10.767  26.255  0.00  0.00     0.153 A 
HETATM    2  C   UNL     1      -2.220  11.119  26.085  0.00  0.00    -0.020 A 
HETATM    3  C   UNL     1      -3.268  10.750  26.920  0.00  0.00     0.010 A 
HETATM    4  C   UNL     1      -4.546  11.209  26.616  0.00  0.00     0.001 A 
HETATM    5  C   UNL     1      -4.754  12.023  25.497  0.00  0.00     0.001 A 
HETATM    6  C   UNL     1      -3.686  12.401  24.672  0.00  0.00     0.013 A 
HETATM    7  C   UNL     1      -2.407  11.947  24.953  0.00  0.00    -0.016 A 
HETATM    8  C   UNL     1      -1.106  12.208  24.328  0.00  0.00    -0.003 A 
HETATM    9  C   UNL     1      -0.118  11.584  25.144  0.00  0.00    -0.019 A 
HETATM   10  C   UNL     1       1.244  11.697  24.900  0.00  0.00     0.010 A 
HETATM   11  C   UNL     1       1.649  12.408  23.780  0.00  0.00     0.002 A 
HETATM   12  C   UNL     1       0.693  12.986  22.929  0.00  0.00     0.016 A 
HETATM   13  C   UNL     1      -0.698  12.912  23.187  0.00  0.00     0.022 A 
ENDROOT
BRANCH   1  14
HETATM   14  N   UNL     1      -0.517   9.361  26.018  0.00  0.00    -0.344 N 
HETATM   15  C   UNL     1      -0.194   8.491  27.027  0.00  0.00     0.252 C 
HETATM   16  O   UNL     1      -0.133   8.809  28.207  0.00  0.00    -0.268 OA
HETATM   17  H   UNL     1      -0.546   9.054  25.057  0.00  0.00     0.163 HD
BRANCH  15  18
HETATM   18  C   UNL     1       0.184   7.117  26.604  0.00  0.00     0.034 A 
HETATM   19  C   UNL     1      -0.099   6.618  25.331  0.00  0.00     0.036 A 
HETATM   20  C   UNL     1       0.373   5.355  25.016  0.00  0.00     0.117 A 
HETATM   21  N   UNL     1       1.084   4.584  25.866  0.00  0.00    -0.273 NA
HETATM   22  C   UNL     1       1.316   5.082  27.100  0.00  0.00     0.117 A 
HETATM   23  C   UNL     1       0.883   6.326  27.515  0.00  0.00     0.036 A 
ENDBRANCH  15  18
ENDBRANCH   1  14
BRANCH  13  24
HETATM   24  C   UNL     1      -1.617  13.538  22.231  0.00  0.00     0.140 A 
HETATM   25  N   UNL     1      -2.523  12.934  21.486  0.00  0.00    -0.227 NA
HETATM   26  C   UNL     1      -3.155  13.915  20.761  0.00  0.00     0.103 A 
HETATM   27  C   UNL     1      -4.226  13.840  19.869  0.00  0.00     0.150 A 
HETATM   28  C   UNL     1      -2.578  15.153  21.011  0.00  0.00     0.065 A 
HETATM   29  N   UNL     1      -4.667  14.960  19.234  0.00  0.00    -0.271 NA
HETATM   30  C   UNL     1      -4.047  16.138  19.486  0.00  0.00     0.118 A 
HETATM   31  C   UNL     1      -2.992  16.318  20.374  0.00  0.00     0.051 A 
HETATM   32  N   UNL     1      -1.619  14.893  21.955  0.00  0.00    -0.338 N 
HETATM   33  H   UNL     1      -1.021  15.576  22.393  0.00  0.00     0.167 HD
ENDBRANCH  13  24
TORSDOF 3
ENDMDL
MODEL 6
REMARK VINA RESULT:    -8.413      2.995      8.527
REMARK INTER + INTRA:          -9.940
REMARK INTER:                  -9.023
REMARK INTRA:                  -0.917
REMARK UNBOUND:                -0.052
REMARK  3 active torsions:
REMARK  status: ('A' for Active; 'I' for Inactive)
REMARK       I    between atoms: C_2  and  N_3 
REMARK    1  A    between atoms: C_2  and  C_27 
REMARK    2  A    between atoms: N_3  and  C_4 
REMARK    3  A    between atoms: C_16  and  C_17 
ROOT
HETATM    1  C   UNL     1      -1.162  14.353  24.449  0.00  0.00     0.153 A 
HETATM    2  C   UNL     1       0.230  13.764  24.465  0.00  0.00    -0.020 A 
HETATM    3  C   UNL     1       1.424  14.442  24.244  0.00  0.00     0.010 A 
HETATM    4  C   UNL     1       2.615  13.728  24.342  0.00  0.00     0.001 A 
HETATM    5  C   UNL     1       2.595  12.365  24.659  0.00  0.00     0.001 A 
HETATM    6  C   UNL     1       1.386  11.698  24.896  0.00  0.00     0.013 A 
HETATM    7  C   UNL     1       0.188  12.388  24.795  0.00  0.00    -0.016 A 
HETATM    8  C   UNL     1      -1.203  11.994  25.034  0.00  0.00    -0.003 A 
HETATM    9  C   UNL     1      -1.998  13.171  24.915  0.00  0.00    -0.019 A 
HETATM   10  C   UNL     1      -3.364  13.189  25.164  0.00  0.00     0.010 A 
HETATM   11  C   UNL     1      -3.982  11.991  25.490  0.00  0.00     0.002 A 
HETATM   12  C   UNL     1      -3.232  10.807  25.559  0.00  0.00     0.016 A 
HETATM   13  C   UNL     1      -1.831  10.781  25.348  0.00  0.00     0.022 A 
ENDROOT
BRANCH   1  14
HETATM   14  N   UNL     1      -1.567  14.729  23.112  0.00  0.00    -0.344 N 
HETATM   15  C   UNL     1      -1.304  15.967  22.586  0.00  0.00     0.252 C 
HETATM   16  O   UNL     1      -0.668  16.834  23.170  0.00  0.00    -0.268 OA
HETATM   17  H   UNL     1      -2.106  14.049  22.596  0.00  0.00     0.163 HD
BRANCH  15  18
HETATM   18  C   UNL     1      -1.926  16.258  21.267  0.00  0.00     0.034 A 
HETATM   19  C   UNL     1      -3.198  15.803  20.920  0.00  0.00     0.036 A 
HETATM   20  C   UNL     1      -3.713  16.202  19.698  0.00  0.00     0.117 A 
HETATM   21  N   UNL     1      -3.056  17.000  18.830  0.00  0.00    -0.273 NA
HETATM   22  C   UNL     1      -1.815  17.401  19.181  0.00  0.00     0.117 A 
HETATM   23  C   UNL     1      -1.209  17.051  20.372  0.00  0.00     0.036 A 
ENDBRANCH  15  18
ENDBRANCH   1  14
BRANCH  13  24
HETATM   24  C   UNL     1      -1.139   9.491  25.429  0.00  0.00     0.140 A 
HETATM   25  N   UNL     1      -0.744   8.866  26.523  0.00  0.00    -0.227 NA
HETATM   26  C   UNL     1      -0.158   7.692  26.116  0.00  0.00     0.103 A 
HETATM   27  C   UNL     1       0.371   6.634  26.858  0.00  0.00     0.150 A 
HETATM   28  C   UNL     1      -0.125   7.618  24.730  0.00  0.00     0.065 A 
HETATM   29  N   UNL     1       0.939   5.572  26.225  0.00  0.00    -0.271 NA
HETATM   30  C   UNL     1       0.978   5.565  24.871  0.00  0.00     0.118 A 
HETATM   31  C   UNL     1       0.456   6.556  24.047  0.00  0.00     0.051 A 
HETATM   32  N   UNL     1      -0.764   8.759  24.318  0.00  0.00    -0.338 N 
HETATM   33  H   UNL     1      -0.950   9.018  23.362  0.00  0.00     0.167 HD
ENDBRANCH  13  24
TORSDOF 3
ENDMDL
MODEL 7
REMARK VINA RESULT:    -8.201      3.865      8.303
REMARK INTER + INTRA:          -9.691
REMARK INTER:                  -8.625
REMARK INTRA:                  -1.066
REMARK UNBOUND:                -0.052
REMARK  3 active torsions:
REMARK  status: ('A' for Active; 'I' for Inactive)
REMARK       I    between atoms: C_2  and  N_3 
REMARK    1  A    between atoms: C_2  and  C_27 
REMARK    2  A    between atoms: N_3  and  C_4 
REMARK    3  A    between atoms: C_16  and  C_17 
ROOT
HETATM    1  C   UNL     1      -2.831  14.102  22.273  0.00  0.00     0.153 A 
HETATM    2  C   UNL     1      -1.335  14.177  22.070  0.00  0.00    -0.020 A 
HETATM    3  C   UNL     1      -0.636  15.164  21.385  0.00  0.00     0.010 A 
HETATM    4  C   UNL     1       0.752  15.080  21.342  0.00  0.00     0.001 A 
HETATM    5  C   UNL     1       1.413  14.025  21.980  0.00  0.00     0.001 A 
HETATM    6  C   UNL     1       0.698  13.045  22.682  0.00  0.00     0.013 A 
HETATM    7  C   UNL     1      -0.686  13.106  22.729  0.00  0.00    -0.016 A 
HETATM    8  C   UNL     1      -1.688  12.284  23.414  0.00  0.00    -0.003 A 
HETATM    9  C   UNL     1      -2.951  12.916  23.219  0.00  0.00    -0.019 A 
HETATM   10  C   UNL     1      -4.124  12.457  23.803  0.00  0.00     0.010 A 
HETATM   11  C   UNL     1      -4.062  11.300  24.565  0.00  0.00     0.002 A 
HETATM   12  C   UNL     1      -2.841  10.626  24.727  0.00  0.00     0.016 A 
HETATM   13  C   UNL     1      -1.630  11.106  24.170  0.00  0.00     0.022 A 
ENDROOT
BRANCH   1  14
HETATM   14  N   UNL     1      -3.523  13.802  21.039  0.00  0.00    -0.344 N 
HETATM   15  C   UNL     1      -4.261  14.740  20.364  0.00  0.00     0.252 C 
HETATM   16  O   UNL     1      -4.357  15.909  20.711  0.00  0.00    -0.268 OA
HETATM   17  H   UNL     1      -3.482  12.845  20.720  0.00  0.00     0.163 HD
BRANCH  15  18
HETATM   18  C   UNL     1      -5.044  14.238  19.204  0.00  0.00     0.034 A 
HETATM   19  C   UNL     1      -4.876  14.739  17.912  0.00  0.00     0.036 A 
HETATM   20  C   UNL     1      -5.598  14.142  16.892  0.00  0.00     0.117 A 
HETATM   21  N   UNL     1      -6.451  13.112  17.078  0.00  0.00    -0.273 NA
HETATM   22  C   UNL     1      -6.615  12.669  18.344  0.00  0.00     0.117 A 
HETATM   23  C   UNL     1      -5.948  13.201  19.430  0.00  0.00     0.036 A 
ENDBRANCH  15  18
ENDBRANCH   1  14
BRANCH  13  24
HETATM   24  C   UNL     1      -0.408  10.323  24.384  0.00  0.00     0.140 A 
HETATM   25  N   UNL     1       0.530  10.542  25.286  0.00  0.00    -0.227 NA
HETATM   26  C   UNL     1       1.470   9.552  25.125  0.00  0.00     0.103 A 
HETATM   27  C   UNL     1       2.630   9.273  25.849  0.00  0.00     0.150 A 
HETATM   28  C   UNL     1       1.142   8.739  24.048  0.00  0.00     0.065 A 
HETATM   29  N   UNL     1       3.437   8.242  25.477  0.00  0.00    -0.271 NA
HETATM   30  C   UNL     1       3.090   7.500  24.398  0.00  0.00     0.118 A 
HETATM   31  C   UNL     1       1.945   7.684  23.631  0.00  0.00     0.051 A 
HETATM   32  N   UNL     1      -0.057   9.235  23.605  0.00  0.00    -0.338 N 
HETATM   33  H   UNL     1      -0.606   8.862  22.848  0.00  0.00     0.167 HD
ENDBRANCH  13  24
TORSDOF 3
ENDMDL
MODEL 8
REMARK VINA RESULT:    -8.177      3.408      8.043
REMARK INTER + INTRA:          -9.663
REMARK INTER:                  -8.902
REMARK INTRA:                  -0.761
REMARK UNBOUND:                -0.052
REMARK  3 active torsions:
REMARK  status: ('A' for Active; 'I' for Inactive)
REMARK       I    between atoms: C_2  and  N_3 
REMARK    1  A    between atoms: C_2  and  C_27 
REMARK    2  A    between atoms: N_3  and  C_4 
REMARK    3  A    between atoms: C_16  and  C_17 
ROOT
HETATM    1  C   UNL     1      -1.475  14.022  24.256  0.00  0.00     0.153 A 
HETATM    2  C   UNL     1       0.034  14.101  24.244  0.00  0.00    -0.020 A 
HETATM    3  C   UNL     1       0.808  15.252  24.152  0.00  0.00     0.010 A 
HETATM    4  C   UNL     1       2.193  15.122  24.199  0.00  0.00     0.001 A 
HETATM    5  C   UNL     1       2.776  13.858  24.339  0.00  0.00     0.001 A 
HETATM    6  C   UNL     1       1.985  12.706  24.447  0.00  0.00     0.013 A 
HETATM    7  C   UNL     1       0.604  12.814  24.394  0.00  0.00    -0.016 A 
HETATM    8  C   UNL     1      -0.470  11.826  24.534  0.00  0.00    -0.003 A 
HETATM    9  C   UNL     1      -1.701  12.544  24.539  0.00  0.00    -0.019 A 
HETATM   10  C   UNL     1      -2.931  11.934  24.741  0.00  0.00     0.010 A 
HETATM   11  C   UNL     1      -2.957  10.555  24.891  0.00  0.00     0.002 A 
HETATM   12  C   UNL     1      -1.764   9.817  24.834  0.00  0.00     0.016 A 
HETATM   13  C   UNL     1      -0.499  10.431  24.668  0.00  0.00     0.022 A 
ENDROOT
BRANCH   1  14
HETATM   14  N   UNL     1      -2.038  14.354  22.965  0.00  0.00    -0.344 N 
HETATM   15  C   UNL     1      -3.357  14.687  22.804  0.00  0.00     0.252 C 
HETATM   16  O   UNL     1      -4.154  14.783  23.727  0.00  0.00    -0.268 OA
HETATM   17  H   UNL     1      -1.420  14.278  22.171  0.00  0.00     0.163 HD
BRANCH  15  18
HETATM   18  C   UNL     1      -3.821  14.842  21.399  0.00  0.00     0.034 A 
HETATM   19  C   UNL     1      -3.423  15.907  20.590  0.00  0.00     0.036 A 
HETATM   20  C   UNL     1      -3.848  15.907  19.272  0.00  0.00     0.117 A 
HETATM   21  N   UNL     1      -4.624  14.943  18.732  0.00  0.00    -0.273 NA
HETATM   22  C   UNL     1      -5.017  13.941  19.548  0.00  0.00     0.117 A 
HETATM   23  C   UNL     1      -4.654  13.853  20.878  0.00  0.00     0.036 A 
ENDBRANCH  15  18
ENDBRANCH   1  14
BRANCH  13  24
HETATM   24  C   UNL     1       0.689   9.572  24.608  0.00  0.00     0.140 A 
HETATM   25  N   UNL     1       1.052   8.784  23.614  0.00  0.00    -0.227 NA
HETATM   26  C   UNL     1       2.231   8.188  23.993  0.00  0.00     0.103 A 
HETATM   27  C   UNL     1       3.074   7.319  23.301  0.00  0.00     0.150 A 
HETATM   28  C   UNL     1       2.572   8.564  25.286  0.00  0.00     0.065 A 
HETATM   29  N   UNL     1       4.190   6.824  23.903  0.00  0.00    -0.271 NA
HETATM   30  C   UNL     1       4.459   7.193  25.179  0.00  0.00     0.118 A 
HETATM   31  C   UNL     1       3.696   8.071  25.939  0.00  0.00     0.051 A 
HETATM   32  N   UNL     1       1.591   9.450  25.648  0.00  0.00    -0.338 N 
HETATM   33  H   UNL     1       1.541   9.949  26.523  0.00  0.00     0.167 HD
ENDBRANCH  13  24
TORSDOF 3
ENDMDL
MODEL 9
REMARK VINA RESULT:    -7.992      2.162      8.587
REMARK INTER + INTRA:          -9.445
REMARK INTER:                  -9.393
REMARK INTRA:                  -0.052
REMARK UNBOUND:                -0.052
REMARK  3 active torsions:
REMARK  status: ('A' for Active; 'I' for Inactive)
REMARK       I    between atoms: C_2  and  N_3 
REMARK    1  A    between atoms: C_2  and  C_27 
REMARK    2  A    between atoms: N_3  and  C_4 
REMARK    3  A    between atoms: C_16  and  C_17 
ROOT
HETATM    1  C   UNL     1      -2.192  14.702  23.322  0.00  0.00     0.153 A 
HETATM    2  C   UNL     1      -2.085  14.445  24.808  0.00  0.00    -0.020 A 
HETATM    3  C   UNL     1      -2.232  15.380  25.827  0.00  0.00     0.010 A 
HETATM    4  C   UNL     1      -2.138  14.939  27.144  0.00  0.00     0.001 A 
HETATM    5  C   UNL     1      -1.905  13.587  27.419  0.00  0.00     0.001 A 
HETATM    6  C   UNL     1      -1.776  12.652  26.382  0.00  0.00     0.013 A 
HETATM    7  C   UNL     1      -1.857  13.072  25.064  0.00  0.00    -0.016 A 
HETATM    8  C   UNL     1      -1.822  12.346  23.792  0.00  0.00    -0.003 A 
HETATM    9  C   UNL     1      -2.105  13.290  22.762  0.00  0.00    -0.019 A 
HETATM   10  C   UNL     1      -2.238  12.935  21.427  0.00  0.00     0.010 A 
HETATM   11  C   UNL     1      -2.031  11.608  21.082  0.00  0.00     0.002 A 
HETATM   12  C   UNL     1      -1.696  10.667  22.068  0.00  0.00     0.016 A 
HETATM   13  C   UNL     1      -1.597  11.007  23.440  0.00  0.00     0.022 A 
ENDROOT
BRANCH   1  14
HETATM   14  N   UNL     1      -1.076  15.482  22.833  0.00  0.00    -0.344 N 
HETATM   15  C   UNL     1      -1.177  16.301  21.739  0.00  0.00     0.252 C 
HETATM   16  O   UNL     1      -2.215  16.486  21.119  0.00  0.00    -0.268 OA
HETATM   17  H   UNL     1      -0.194  15.353  23.307  0.00  0.00     0.163 HD
BRANCH  15  18
HETATM   18  C   UNL     1       0.095  16.908  21.263  0.00  0.00     0.034 A 
HETATM   19  C   UNL     1       1.286  16.819  21.984  0.00  0.00     0.036 A 
HETATM   20  C   UNL     1       2.428  17.348  21.408  0.00  0.00     0.117 A 
HETATM   21  N   UNL     1       2.452  17.943  20.196  0.00  0.00    -0.273 NA
HETATM   22  C   UNL     1       1.278  18.040  19.535  0.00  0.00     0.117 A 
HETATM   23  C   UNL     1       0.083  17.552  20.027  0.00  0.00     0.036 A 
ENDBRANCH  15  18
ENDBRANCH   1  14
BRANCH  13  24
HETATM   24  C   UNL     1      -1.229   9.955  24.393  0.00  0.00     0.140 A 
HETATM   25  N   UNL     1      -1.356   9.990  25.706  0.00  0.00    -0.227 NA
HETATM   26  C   UNL     1      -0.897   8.784  26.179  0.00  0.00     0.103 A 
HETATM   27  C   UNL     1      -0.862   8.269  27.475  0.00  0.00     0.150 A 
HETATM   28  C   UNL     1      -0.407   8.008  25.137  0.00  0.00     0.065 A 
HETATM   29  N   UNL     1      -0.321   7.042  27.710  0.00  0.00    -0.271 NA
HETATM   30  C   UNL     1       0.176   6.339  26.663  0.00  0.00     0.118 A 
HETATM   31  C   UNL     1       0.162   6.755  25.337  0.00  0.00     0.051 A 
HETATM   32  N   UNL     1      -0.641   8.762  24.016  0.00  0.00    -0.338 N 
HETATM   33  H   UNL     1      -0.437   8.488  23.068  0.00  0.00     0.167 HD
ENDBRANCH  13  24
TORSDOF 3
ENDMDL
