REMARK  3 active torsions:
REMARK  status: ('A' for Active; 'I' for Inactive)
REMARK       I    between atoms: C_2  and  N_3 
REMARK    1  A    between atoms: C_2  and  C_27 
REMARK    2  A    between atoms: N_3  and  C_4 
REMARK    3  A    between atoms: C_16  and  C_17 
ROOT
HETATM    1  C   UNL     1       2.136   2.202  -0.944  0.00  0.00     0.153 A 
HETATM    2  C   UNL     1       2.654   3.595  -0.669  0.00  0.00    -0.020 A 
HETATM    3  C   UNL     1       3.818   4.165  -1.172  0.00  0.00     0.010 A 
HETATM    4  C   UNL     1       4.106   5.484  -0.834  0.00  0.00     0.001 A 
HETATM    5  C   UNL     1       3.234   6.206  -0.011  0.00  0.00     0.001 A 
HETATM    6  C   UNL     1       2.055   5.625   0.476  0.00  0.00     0.013 A 
HETATM    7  C   UNL     1       1.755   4.310   0.158  0.00  0.00    -0.016 A 
HETATM    8  C   UNL     1       0.599   3.460   0.458  0.00  0.00    -0.003 A 
HETATM    9  C   UNL     1       0.777   2.242  -0.261  0.00  0.00    -0.019 A 
HETATM   10  C   UNL     1      -0.173   1.230  -0.280  0.00  0.00     0.010 A 
HETATM   11  C   UNL     1      -1.320   1.399   0.481  0.00  0.00     0.002 A 
HETATM   12  C   UNL     1      -1.495   2.565   1.243  0.00  0.00     0.016 A 
HETATM   13  C   UNL     1      -0.553   3.623   1.240  0.00  0.00     0.022 A 
ENDROOT
BRANCH   1  14
HETATM   14  N   UNL     1       2.959   1.192  -0.315  0.00  0.00    -0.344 N 
HETATM   15  C   UNL     1       3.929   0.506  -0.998  0.00  0.00     0.252 C 
HETATM   16  O   UNL     1       4.218   0.718  -2.168  0.00  0.00    -0.268 OA
HETATM   17  H   UNL     1       2.749   0.975   0.648  0.00  0.00     0.163 HD
BRANCH  15  18
HETATM   18  C   UNL     1       4.576  -0.611  -0.260  0.00  0.00     0.034 A 
HETATM   19  C   UNL     1       4.782  -0.580   1.120  0.00  0.00     0.036 A 
HETATM   20  C   UNL     1       5.318  -1.709   1.716  0.00  0.00     0.117 A 
HETATM   21  N   UNL     1       5.652  -2.829   1.040  0.00  0.00    -0.273 NA
HETATM   22  C   UNL     1       5.469  -2.818  -0.298  0.00  0.00     0.117 A 
HETATM   23  C   UNL     1       4.949  -1.740  -0.988  0.00  0.00     0.036 A 
ENDBRANCH  15  18
ENDBRANCH   1  14
BRANCH  13  24
HETATM   24  C   UNL     1      -0.820   4.795   2.080  0.00  0.00     0.140 A 
HETATM   25  N   UNL     1       0.056   5.487   2.783  0.00  0.00    -0.227 NA
HETATM   26  C   UNL     1      -0.642   6.500   3.396  0.00  0.00     0.103 A 
HETATM   27  C   UNL     1      -0.201   7.552   4.200  0.00  0.00     0.150 A 
HETATM   28  C   UNL     1      -1.999   6.391   3.122  0.00  0.00     0.065 A 
HETATM   29  N   UNL     1      -1.096   8.429   4.731  0.00  0.00    -0.271 NA
HETATM   30  C   UNL     1      -2.413   8.258   4.462  0.00  0.00     0.118 A 
HETATM   31  C   UNL     1      -2.945   7.260   3.654  0.00  0.00     0.051 A 
HETATM   32  N   UNL     1      -2.086   5.316   2.276  0.00  0.00    -0.338 N 
HETATM   33  H   UNL     1      -2.930   4.968   1.849  0.00  0.00     0.167 HD
ENDBRANCH  13  24
TORSDOF 3
