MODEL 1
REMARK VINA RESULT:    -9.143      0.000      0.000
REMARK INTER + INTRA:         -13.879
REMARK INTER:                 -12.427
REMARK INTRA:                  -1.452
REMARK UNBOUND:                -1.796
REMARK  6 active torsions:
REMARK  status: ('A' for Active; 'I' for Inactive)
REMARK       I    between atoms: C_2  and  N_3 
REMARK    1  A    between atoms: C_2  and  C_17 
REMARK    2  A    between atoms: N_3  and  C_5 
REMARK    3  A    between atoms: C_8  and  N_9 
REMARK    4  A    between atoms: C_18  and  O_19 
REMARK    5  A    between atoms: C_25  and  C_26 
REMARK    6  A    between atoms: C_26  and  C_27 
ROOT
HETATM    1  C   UNL     1       7.517  13.888  24.990  0.00  0.00     0.066 A 
HETATM    2  C   UNL     1       8.031  14.496  26.154  0.00  0.00     0.083 A 
HETATM    3  C   UNL     1       9.399  14.733  26.338  0.00  0.00     0.069 A 
HETATM    4  C   UNL     1      10.250  14.342  25.303  0.00  0.00     0.065 A 
HETATM    5  N   UNL     1      11.613  14.380  25.170  0.00  0.00    -0.277 N 
HETATM    6  H   UNL     1      12.288  14.709  25.852  0.00  0.00     0.189 HD
HETATM    7  N   UNL     1      12.070  13.860  24.015  0.00  0.00    -0.178 NA
HETATM    8  C   UNL     1      10.963  13.454  23.379  0.00  0.00     0.067 A 
HETATM    9  C   UNL     1       9.795  13.718  24.150  0.00  0.00     0.019 A 
HETATM   10  C   UNL     1       8.422  13.435  24.019  0.00  0.00     0.035 A 
ENDROOT
BRANCH   1  11
HETATM   11  C   UNL     1       6.049  13.616  24.886  0.00  0.00     0.260 C 
HETATM   12  O   UNL     1       5.687  12.675  25.594  0.00  0.00    -0.267 OA
HETATM   13  N   UNL     1       5.191  14.368  24.047  0.00  0.00    -0.318 N 
HETATM   14  C   UNL     1       5.608  15.624  23.410  0.00  0.00     0.159 C 
BRANCH  13  15
HETATM   15  C   UNL     1       3.807  13.982  23.815  0.00  0.00     0.037 A 
HETATM   16  C   UNL     1       2.709  14.807  24.087  0.00  0.00     0.032 A 
HETATM   17  C   UNL     1       1.380  14.393  23.842  0.00  0.00     0.031 A 
HETATM   18  C   UNL     1       1.086  13.131  23.326  0.00  0.00     0.030 A 
HETATM   19  C   UNL     1       2.185  12.314  23.039  0.00  0.00     0.031 A 
HETATM   20  C   UNL     1       3.506  12.722  23.279  0.00  0.00     0.032 A 
BRANCH  18  21
HETATM   21  N   UNL     1      -0.192  12.689  23.032  0.00  0.00    -0.377 N 
HETATM   22  C   UNL     1      -0.762  11.467  23.625  0.00  0.00     0.149 C 
HETATM   23  C   UNL     1      -2.299  11.593  23.621  0.00  0.00     0.187 C 
HETATM   24  O   UNL     1      -2.820  11.838  22.301  0.00  0.00    -0.388 OA
HETATM   25  C   UNL     1      -2.248  13.040  21.753  0.00  0.00     0.187 C 
HETATM   26  C   UNL     1      -0.718  12.940  21.672  0.00  0.00     0.149 C 
ENDBRANCH  18  21
ENDBRANCH  13  15
ENDBRANCH   1  11
BRANCH   2  27
HETATM   27  O   UNL     1       7.232  14.864  27.211  0.00  0.00    -0.360 OA
HETATM   28  H   UNL     1       6.308  14.916  26.874  0.00  0.00     0.217 HD
ENDBRANCH   2  27
BRANCH   8  29
HETATM   29  C   UNL     1      11.034  12.638  22.131  0.00  0.00     0.066 C 
BRANCH  29  30
HETATM   30  C   UNL     1      10.772  13.286  20.756  0.00  0.00    -0.009 C 
HETATM   31  C   UNL     1      10.090  12.408  19.681  0.00  0.00     0.005 C 
HETATM   32  C   UNL     1       8.673  12.789  19.237  0.00  0.00     0.000 C 
HETATM   33  C   UNL     1       8.385  14.282  19.279  0.00  0.00     0.000 C 
HETATM   34  C   UNL     1       8.742  14.839  20.644  0.00  0.00     0.000 C 
HETATM   35  C   UNL     1      10.240  14.721  20.860  0.00  0.00     0.005 C 
ENDBRANCH  29  30
ENDBRANCH   8  29
TORSDOF 6
ENDMDL
MODEL 2
REMARK VINA RESULT:    -8.934      1.495      2.282
REMARK INTER + INTRA:         -13.603
REMARK INTER:                 -11.835
REMARK INTRA:                  -1.768
REMARK UNBOUND:                -1.796
REMARK  6 active torsions:
REMARK  status: ('A' for Active; 'I' for Inactive)
REMARK       I    between atoms: C_2  and  N_3 
REMARK    1  A    between atoms: C_2  and  C_17 
REMARK    2  A    between atoms: N_3  and  C_5 
REMARK    3  A    between atoms: C_8  and  N_9 
REMARK    4  A    between atoms: C_18  and  O_19 
REMARK    5  A    between atoms: C_25  and  C_26 
REMARK    6  A    between atoms: C_26  and  C_27 
ROOT
HETATM    1  C   UNL     1       7.321  13.905  25.167  0.00  0.00     0.066 A 
HETATM    2  C   UNL     1       7.797  14.600  26.297  0.00  0.00     0.083 A 
HETATM    3  C   UNL     1       9.161  14.830  26.519  0.00  0.00     0.069 A 
HETATM    4  C   UNL     1      10.047  14.340  25.557  0.00  0.00     0.065 A 
HETATM    5  N   UNL     1      11.414  14.344  25.480  0.00  0.00    -0.277 N 
HETATM    6  H   UNL     1      12.067  14.719  26.160  0.00  0.00     0.189 HD
HETATM    7  N   UNL     1      11.908  13.721  24.393  0.00  0.00    -0.178 NA
HETATM    8  C   UNL     1      10.820  13.280  23.746  0.00  0.00     0.067 A 
HETATM    9  C   UNL     1       9.627  13.627  24.443  0.00  0.00     0.019 A 
HETATM   10  C   UNL     1       8.255  13.356  24.277  0.00  0.00     0.035 A 
ENDROOT
BRANCH   1  11
HETATM   11  C   UNL     1       5.852  13.649  25.024  0.00  0.00     0.260 C 
HETATM   12  O   UNL     1       5.447  12.763  25.779  0.00  0.00    -0.267 OA
HETATM   13  N   UNL     1       5.041  14.355  24.104  0.00  0.00    -0.318 N 
HETATM   14  C   UNL     1       5.505  15.557  23.400  0.00  0.00     0.159 C 
BRANCH  13  15
HETATM   15  C   UNL     1       3.660  13.975  23.844  0.00  0.00     0.037 A 
HETATM   16  C   UNL     1       2.560  14.804  24.096  0.00  0.00     0.032 A 
HETATM   17  C   UNL     1       1.235  14.395  23.824  0.00  0.00     0.031 A 
HETATM   18  C   UNL     1       0.946  13.135  23.299  0.00  0.00     0.030 A 
HETATM   19  C   UNL     1       2.046  12.315  23.032  0.00  0.00     0.031 A 
HETATM   20  C   UNL     1       3.364  12.717  23.299  0.00  0.00     0.032 A 
BRANCH  18  21
HETATM   21  N   UNL     1      -0.328  12.700  22.980  0.00  0.00    -0.377 N 
HETATM   22  C   UNL     1      -0.924  11.493  23.578  0.00  0.00     0.149 C 
HETATM   23  C   UNL     1      -2.460  11.631  23.532  0.00  0.00     0.187 C 
HETATM   24  O   UNL     1      -2.943  11.859  22.195  0.00  0.00    -0.388 OA
HETATM   25  C   UNL     1      -2.347  13.046  21.642  0.00  0.00     0.187 C 
HETATM   26  C   UNL     1      -0.817  12.932  21.603  0.00  0.00     0.149 C 
ENDBRANCH  18  21
ENDBRANCH  13  15
ENDBRANCH   1  11
BRANCH   2  27
HETATM   27  O   UNL     1       6.963  15.070  27.285  0.00  0.00    -0.360 OA
HETATM   28  H   UNL     1       7.526  15.277  28.067  0.00  0.00     0.217 HD
ENDBRANCH   2  27
BRANCH   8  29
HETATM   29  C   UNL     1      10.926  12.360  22.576  0.00  0.00     0.066 C 
BRANCH  29  30
HETATM   30  C   UNL     1      10.685  10.845  22.747  0.00  0.00    -0.009 C 
HETATM   31  C   UNL     1      10.727  10.283  24.186  0.00  0.00     0.005 C 
HETATM   32  C   UNL     1       9.421   9.747  24.786  0.00  0.00     0.000 C 
HETATM   33  C   UNL     1       8.473   9.132  23.768  0.00  0.00     0.000 C 
HETATM   34  C   UNL     1       8.240  10.104  22.626  0.00  0.00     0.000 C 
HETATM   35  C   UNL     1       9.541  10.317  21.873  0.00  0.00     0.005 C 
ENDBRANCH  29  30
ENDBRANCH   8  29
TORSDOF 6
ENDMDL
MODEL 3
REMARK VINA RESULT:    -8.657      1.133      2.027
REMARK INTER + INTRA:         -13.236
REMARK INTER:                 -11.790
REMARK INTRA:                  -1.446
REMARK UNBOUND:                -1.796
REMARK  6 active torsions:
REMARK  status: ('A' for Active; 'I' for Inactive)
REMARK       I    between atoms: C_2  and  N_3 
REMARK    1  A    between atoms: C_2  and  C_17 
REMARK    2  A    between atoms: N_3  and  C_5 
REMARK    3  A    between atoms: C_8  and  N_9 
REMARK    4  A    between atoms: C_18  and  O_19 
REMARK    5  A    between atoms: C_25  and  C_26 
REMARK    6  A    between atoms: C_26  and  C_27 
ROOT
HETATM    1  C   UNL     1       7.455  14.280  24.663  0.00  0.00     0.066 A 
HETATM    2  C   UNL     1       8.129  14.718  25.822  0.00  0.00     0.083 A 
HETATM    3  C   UNL     1       9.486  15.066  25.816  0.00  0.00     0.069 A 
HETATM    4  C   UNL     1      10.156  14.967  24.595  0.00  0.00     0.065 A 
HETATM    5  N   UNL     1      11.463  15.179  24.245  0.00  0.00    -0.277 N 
HETATM    6  H   UNL     1      12.227  15.450  24.855  0.00  0.00     0.189 HD
HETATM    7  N   UNL     1      11.734  14.932  22.949  0.00  0.00    -0.178 NA
HETATM    8  C   UNL     1      10.562  14.530  22.441  0.00  0.00     0.067 A 
HETATM    9  C   UNL     1       9.542  14.518  23.435  0.00  0.00     0.019 A 
HETATM   10  C   UNL     1       8.193  14.114  23.483  0.00  0.00     0.035 A 
ENDROOT
BRANCH   1  11
HETATM   11  C   UNL     1       6.017  13.871  24.757  0.00  0.00     0.260 C 
HETATM   12  O   UNL     1       5.852  12.861  25.443  0.00  0.00    -0.267 OA
HETATM   13  N   UNL     1       4.979  14.581  24.106  0.00  0.00    -0.318 N 
HETATM   14  C   UNL     1       5.182  15.904  23.502  0.00  0.00     0.159 C 
BRANCH  13  15
HETATM   15  C   UNL     1       3.616  14.075  24.052  0.00  0.00     0.037 A 
HETATM   16  C   UNL     1       2.570  14.557  24.849  0.00  0.00     0.032 A 
HETATM   17  C   UNL     1       1.259  14.038  24.761  0.00  0.00     0.031 A 
HETATM   18  C   UNL     1       0.933  13.005  23.881  0.00  0.00     0.030 A 
HETATM   19  C   UNL     1       1.975  12.536  23.074  0.00  0.00     0.031 A 
HETATM   20  C   UNL     1       3.278  13.049  23.158  0.00  0.00     0.032 A 
BRANCH  18  21
HETATM   21  N   UNL     1      -0.341  12.487  23.728  0.00  0.00    -0.377 N 
HETATM   22  C   UNL     1      -0.827  11.341  24.516  0.00  0.00     0.149 C 
HETATM   23  C   UNL     1      -2.367  11.416  24.587  0.00  0.00     0.187 C 
HETATM   24  O   UNL     1      -2.969  11.460  23.279  0.00  0.00    -0.388 OA
HETATM   25  C   UNL     1      -2.476  12.591  22.539  0.00  0.00     0.187 C 
HETATM   26  C   UNL     1      -0.950  12.529  22.381  0.00  0.00     0.149 C 
ENDBRANCH  18  21
ENDBRANCH  13  15
ENDBRANCH   1  11
BRANCH   2  27
HETATM   27  O   UNL     1       7.516  14.797  27.050  0.00  0.00    -0.360 OA
HETATM   28  H   UNL     1       6.649  14.335  26.974  0.00  0.00     0.217 HD
ENDBRANCH   2  27
BRANCH   8  29
HETATM   29  C   UNL     1      10.460  13.967  21.061  0.00  0.00     0.066 C 
BRANCH  29  30
HETATM   30  C   UNL     1      11.069  12.589  20.732  0.00  0.00    -0.009 C 
HETATM   31  C   UNL     1      12.606  12.514  20.582  0.00  0.00     0.005 C 
HETATM   32  C   UNL     1      13.391  11.719  21.632  0.00  0.00     0.000 C 
HETATM   33  C   UNL     1      12.637  10.532  22.211  0.00  0.00     0.000 C 
HETATM   34  C   UNL     1      11.275  10.979  22.710  0.00  0.00     0.000 C 
HETATM   35  C   UNL     1      10.436  11.445  21.534  0.00  0.00     0.005 C 
ENDBRANCH  29  30
ENDBRANCH   8  29
TORSDOF 6
ENDMDL
MODEL 4
REMARK VINA RESULT:    -8.637      1.461      2.190
REMARK INTER + INTRA:         -13.211
REMARK INTER:                 -11.270
REMARK INTRA:                  -1.941
REMARK UNBOUND:                -1.796
REMARK  6 active torsions:
REMARK  status: ('A' for Active; 'I' for Inactive)
REMARK       I    between atoms: C_2  and  N_3 
REMARK    1  A    between atoms: C_2  and  C_17 
REMARK    2  A    between atoms: N_3  and  C_5 
REMARK    3  A    between atoms: C_8  and  N_9 
REMARK    4  A    between atoms: C_18  and  O_19 
REMARK    5  A    between atoms: C_25  and  C_26 
REMARK    6  A    between atoms: C_26  and  C_27 
ROOT
HETATM    1  C   UNL     1       9.013  13.685  24.472  0.00  0.00     0.066 A 
HETATM    2  C   UNL     1       9.684  14.650  25.250  0.00  0.00     0.083 A 
HETATM    3  C   UNL     1      11.081  14.754  25.281  0.00  0.00     0.069 A 
HETATM    4  C   UNL     1      11.796  13.851  24.492  0.00  0.00     0.065 A 
HETATM    5  N   UNL     1      13.139  13.643  24.323  0.00  0.00    -0.277 N 
HETATM    6  H   UNL     1      13.900  14.133  24.781  0.00  0.00     0.189 HD
HETATM    7  N   UNL     1      13.440  12.626  23.491  0.00  0.00    -0.178 NA
HETATM    8  C   UNL     1      12.247  12.145  23.119  0.00  0.00     0.067 A 
HETATM    9  C   UNL     1      11.182  12.867  23.731  0.00  0.00     0.019 A 
HETATM   10  C   UNL     1       9.779  12.745  23.768  0.00  0.00     0.035 A 
ENDROOT
BRANCH   1  11
HETATM   11  C   UNL     1       7.520  13.598  24.532  0.00  0.00     0.260 C 
HETATM   12  O   UNL     1       7.112  13.101  25.583  0.00  0.00    -0.267 OA
HETATM   13  N   UNL     1       6.688  14.036  23.473  0.00  0.00    -0.318 N 
HETATM   14  C   UNL     1       7.191  14.836  22.350  0.00  0.00     0.159 C 
BRANCH  13  15
HETATM   15  C   UNL     1       5.254  13.781  23.463  0.00  0.00     0.037 A 
HETATM   16  C   UNL     1       4.679  12.562  23.083  0.00  0.00     0.032 A 
HETATM   17  C   UNL     1       3.281  12.358  23.093  0.00  0.00     0.031 A 
HETATM   18  C   UNL     1       2.392  13.365  23.469  0.00  0.00     0.030 A 
HETATM   19  C   UNL     1       2.969  14.576  23.863  0.00  0.00     0.031 A 
HETATM   20  C   UNL     1       4.356  14.783  23.857  0.00  0.00     0.032 A 
BRANCH  18  21
HETATM   21  N   UNL     1       1.018  13.207  23.532  0.00  0.00    -0.377 N 
HETATM   22  C   UNL     1       0.159  13.282  22.337  0.00  0.00     0.149 C 
HETATM   23  C   UNL     1      -1.127  12.474  22.609  0.00  0.00     0.187 C 
HETATM   24  O   UNL     1      -1.813  12.928  23.791  0.00  0.00    -0.388 OA
HETATM   25  C   UNL     1      -0.949  12.837  24.937  0.00  0.00     0.187 C 
HETATM   26  C   UNL     1       0.319  13.680  24.745  0.00  0.00     0.149 C 
ENDBRANCH  18  21
ENDBRANCH  13  15
ENDBRANCH   1  11
BRANCH   2  27
HETATM   27  O   UNL     1       9.020  15.536  26.066  0.00  0.00    -0.360 OA
HETATM   28  H   UNL     1       8.080  15.244  26.108  0.00  0.00     0.217 HD
ENDBRANCH   2  27
BRANCH   8  29
HETATM   29  C   UNL     1      12.124  10.877  22.341  0.00  0.00     0.066 C 
BRANCH  29  30
HETATM   30  C   UNL     1      11.453  10.873  20.952  0.00  0.00    -0.009 C 
HETATM   31  C   UNL     1       9.990  10.380  20.876  0.00  0.00     0.005 C 
HETATM   32  C   UNL     1       8.907  11.403  20.512  0.00  0.00     0.000 C 
HETATM   33  C   UNL     1       9.376  12.503  19.572  0.00  0.00     0.000 C 
HETATM   34  C   UNL     1      10.634  13.150  20.123  0.00  0.00     0.000 C 
HETATM   35  C   UNL     1      11.760  12.133  20.133  0.00  0.00     0.005 C 
ENDBRANCH  29  30
ENDBRANCH   8  29
TORSDOF 6
ENDMDL
MODEL 5
REMARK VINA RESULT:    -8.617      2.261      4.041
REMARK INTER + INTRA:         -13.184
REMARK INTER:                 -12.015
REMARK INTRA:                  -1.169
REMARK UNBOUND:                -1.796
REMARK  6 active torsions:
REMARK  status: ('A' for Active; 'I' for Inactive)
REMARK       I    between atoms: C_2  and  N_3 
REMARK    1  A    between atoms: C_2  and  C_17 
REMARK    2  A    between atoms: N_3  and  C_5 
REMARK    3  A    between atoms: C_8  and  N_9 
REMARK    4  A    between atoms: C_18  and  O_19 
REMARK    5  A    between atoms: C_25  and  C_26 
REMARK    6  A    between atoms: C_26  and  C_27 
ROOT
HETATM    1  C   UNL     1       9.072  12.407  21.712  0.00  0.00     0.066 A 
HETATM    2  C   UNL     1       9.256  12.297  20.319  0.00  0.00     0.083 A 
HETATM    3  C   UNL     1      10.521  12.354  19.720  0.00  0.00     0.069 A 
HETATM    4  C   UNL     1      11.614  12.521  20.572  0.00  0.00     0.065 A 
HETATM    5  N   UNL     1      12.955  12.660  20.330  0.00  0.00    -0.277 N 
HETATM    6  H   UNL     1      13.418  12.681  19.428  0.00  0.00     0.189 HD
HETATM    7  N   UNL     1      13.699  12.846  21.437  0.00  0.00    -0.178 NA
HETATM    8  C   UNL     1      12.806  12.844  22.436  0.00  0.00     0.067 A 
HETATM    9  C   UNL     1      11.482  12.660  21.946  0.00  0.00     0.019 A 
HETATM   10  C   UNL     1      10.193  12.662  22.516  0.00  0.00     0.035 A 
ENDROOT
BRANCH   1  11
HETATM   11  C   UNL     1       7.685  12.394  22.276  0.00  0.00     0.260 C 
HETATM   12  O   UNL     1       7.344  11.279  22.675  0.00  0.00    -0.267 OA
HETATM   13  N   UNL     1       6.870  13.550  22.323  0.00  0.00    -0.318 N 
HETATM   14  C   UNL     1       7.392  14.898  22.064  0.00  0.00     0.159 C 
BRANCH  13  15
HETATM   15  C   UNL     1       5.466  13.489  22.703  0.00  0.00     0.037 A 
HETATM   16  C   UNL     1       4.790  14.518  23.369  0.00  0.00     0.032 A 
HETATM   17  C   UNL     1       3.424  14.418  23.715  0.00  0.00     0.031 A 
HETATM   18  C   UNL     1       2.672  13.279  23.423  0.00  0.00     0.030 A 
HETATM   19  C   UNL     1       3.345  12.258  22.743  0.00  0.00     0.031 A 
HETATM   20  C   UNL     1       4.701  12.355  22.396  0.00  0.00     0.032 A 
BRANCH  18  21
HETATM   21  N   UNL     1       1.324  13.143  23.705  0.00  0.00    -0.377 N 
HETATM   22  C   UNL     1       0.292  13.159  22.654  0.00  0.00     0.149 C 
HETATM   23  C   UNL     1      -0.941  12.387  23.168  0.00  0.00     0.187 C 
HETATM   24  O   UNL     1      -1.435  12.920  24.411  0.00  0.00    -0.388 OA
HETATM   25  C   UNL     1      -0.405  12.886  25.415  0.00  0.00     0.187 C 
HETATM   26  C   UNL     1       0.822  13.699  24.980  0.00  0.00     0.149 C 
ENDBRANCH  18  21
ENDBRANCH  13  15
ENDBRANCH   1  11
BRANCH   2  27
HETATM   27  O   UNL     1       8.205  12.166  19.441  0.00  0.00    -0.360 OA
HETATM   28  H   UNL     1       7.616  11.461  19.795  0.00  0.00     0.217 HD
ENDBRANCH   2  27
BRANCH   8  29
HETATM   29  C   UNL     1      13.191  13.216  23.829  0.00  0.00     0.066 C 
BRANCH  29  30
HETATM   30  C   UNL     1      12.680  14.529  24.458  0.00  0.00    -0.009 C 
HETATM   31  C   UNL     1      12.273  15.663  23.490  0.00  0.00     0.005 C 
HETATM   32  C   UNL     1      10.791  16.053  23.425  0.00  0.00     0.000 C 
HETATM   33  C   UNL     1      10.042  15.883  24.737  0.00  0.00     0.000 C 
HETATM   34  C   UNL     1      10.256  14.481  25.277  0.00  0.00     0.000 C 
HETATM   35  C   UNL     1      11.721  14.298  25.633  0.00  0.00     0.005 C 
ENDBRANCH  29  30
ENDBRANCH   8  29
TORSDOF 6
ENDMDL
MODEL 6
REMARK VINA RESULT:    -8.404      2.559      4.190
REMARK INTER + INTRA:         -12.902
REMARK INTER:                 -11.518
REMARK INTRA:                  -1.384
REMARK UNBOUND:                -1.796
REMARK  6 active torsions:
REMARK  status: ('A' for Active; 'I' for Inactive)
REMARK       I    between atoms: C_2  and  N_3 
REMARK    1  A    between atoms: C_2  and  C_17 
REMARK    2  A    between atoms: N_3  and  C_5 
REMARK    3  A    between atoms: C_8  and  N_9 
REMARK    4  A    between atoms: C_18  and  O_19 
REMARK    5  A    between atoms: C_25  and  C_26 
REMARK    6  A    between atoms: C_26  and  C_27 
ROOT
HETATM    1  C   UNL     1       9.480  14.330  22.057  0.00  0.00     0.066 A 
HETATM    2  C   UNL     1      10.050  14.833  20.869  0.00  0.00     0.083 A 
HETATM    3  C   UNL     1      11.433  14.866  20.653  0.00  0.00     0.069 A 
HETATM    4  C   UNL     1      12.242  14.368  21.677  0.00  0.00     0.065 A 
HETATM    5  N   UNL     1      13.602  14.292  21.818  0.00  0.00    -0.277 N 
HETATM    6  H   UNL     1      14.307  14.617  21.165  0.00  0.00     0.189 HD
HETATM    7  N   UNL     1      14.007  13.774  22.994  0.00  0.00    -0.178 NA
HETATM    8  C   UNL     1      12.866  13.518  23.648  0.00  0.00     0.067 A 
HETATM    9  C   UNL     1      11.730  13.888  22.873  0.00  0.00     0.019 A 
HETATM   10  C   UNL     1      10.338  13.924  23.089  0.00  0.00     0.035 A 
ENDROOT
BRANCH   1  11
HETATM   11  C   UNL     1       7.995  14.377  22.240  0.00  0.00     0.260 C 
HETATM   12  O   UNL     1       7.554  15.528  22.269  0.00  0.00    -0.267 OA
HETATM   13  N   UNL     1       7.206  13.209  22.374  0.00  0.00    -0.318 N 
HETATM   14  C   UNL     1       7.727  11.865  22.094  0.00  0.00     0.159 C 
BRANCH  13  15
HETATM   15  C   UNL     1       5.796  13.268  22.733  0.00  0.00     0.037 A 
HETATM   16  C   UNL     1       5.185  14.380  23.323  0.00  0.00     0.032 A 
HETATM   17  C   UNL     1       3.810  14.395  23.651  0.00  0.00     0.031 A 
HETATM   18  C   UNL     1       2.986  13.294  23.416  0.00  0.00     0.030 A 
HETATM   19  C   UNL     1       3.594  12.190  22.812  0.00  0.00     0.031 A 
HETATM   20  C   UNL     1       4.958  12.172  22.483  0.00  0.00     0.032 A 
BRANCH  18  21
HETATM   21  N   UNL     1       1.628  13.269  23.683  0.00  0.00    -0.377 N 
HETATM   22  C   UNL     1       0.613  13.290  22.615  0.00  0.00     0.149 C 
HETATM   23  C   UNL     1      -0.677  12.637  23.154  0.00  0.00     0.187 C 
HETATM   24  O   UNL     1      -1.149  13.279  24.354  0.00  0.00    -0.388 OA
HETATM   25  C   UNL     1      -0.137  13.237  25.376  0.00  0.00     0.187 C 
HETATM   26  C   UNL     1       1.149  13.935  24.913  0.00  0.00     0.149 C 
ENDBRANCH  18  21
ENDBRANCH  13  15
ENDBRANCH   1  11
BRANCH   2  27
HETATM   27  O   UNL     1       9.292  15.363  19.850  0.00  0.00    -0.360 OA
HETATM   28  H   UNL     1       9.901  15.540  19.096  0.00  0.00     0.217 HD
ENDBRANCH   2  27
BRANCH   8  29
HETATM   29  C   UNL     1      12.864  13.111  25.084  0.00  0.00     0.066 C 
BRANCH  29  30
HETATM   30  C   UNL     1      12.246  11.764  25.514  0.00  0.00    -0.009 C 
HETATM   31  C   UNL     1      10.883  11.814  26.242  0.00  0.00     0.005 C 
HETATM   32  C   UNL     1       9.662  11.231  25.520  0.00  0.00     0.000 C 
HETATM   33  C   UNL     1       9.979  10.061  24.602  0.00  0.00     0.000 C 
HETATM   34  C   UNL     1      11.098  10.439  23.650  0.00  0.00     0.000 C 
HETATM   35  C   UNL     1      12.372  10.675  24.441  0.00  0.00     0.005 C 
ENDBRANCH  29  30
ENDBRANCH   8  29
TORSDOF 6
ENDMDL
MODEL 7
REMARK VINA RESULT:    -8.345      2.353      4.359
REMARK INTER + INTRA:         -12.824
REMARK INTER:                 -11.487
REMARK INTRA:                  -1.336
REMARK UNBOUND:                -1.796
REMARK  6 active torsions:
REMARK  status: ('A' for Active; 'I' for Inactive)
REMARK       I    between atoms: C_2  and  N_3 
REMARK    1  A    between atoms: C_2  and  C_17 
REMARK    2  A    between atoms: N_3  and  C_5 
REMARK    3  A    between atoms: C_8  and  N_9 
REMARK    4  A    between atoms: C_18  and  O_19 
REMARK    5  A    between atoms: C_25  and  C_26 
REMARK    6  A    between atoms: C_26  and  C_27 
ROOT
HETATM    1  C   UNL     1       9.263  12.875  21.921  0.00  0.00     0.066 A 
HETATM    2  C   UNL     1       9.514  12.393  20.620  0.00  0.00     0.083 A 
HETATM    3  C   UNL     1      10.779  12.464  20.022  0.00  0.00     0.069 A 
HETATM    4  C   UNL     1      11.802  13.036  20.780  0.00  0.00     0.065 A 
HETATM    5  N   UNL     1      13.116  13.301  20.498  0.00  0.00    -0.277 N 
HETATM    6  H   UNL     1      13.605  13.128  19.627  0.00  0.00     0.189 HD
HETATM    7  N   UNL     1      13.782  13.912  21.497  0.00  0.00    -0.178 NA
HETATM    8  C   UNL     1      12.862  14.065  22.458  0.00  0.00     0.067 A 
HETATM    9  C   UNL     1      11.598  13.547  22.054  0.00  0.00     0.019 A 
HETATM   10  C   UNL     1      10.302  13.520  22.606  0.00  0.00     0.035 A 
ENDROOT
BRANCH   1  11
HETATM   11  C   UNL     1       7.873  12.816  22.474  0.00  0.00     0.260 C 
HETATM   12  O   UNL     1       7.609  11.727  22.987  0.00  0.00    -0.267 OA
HETATM   13  N   UNL     1       6.973  13.905  22.392  0.00  0.00    -0.318 N 
HETATM   14  C   UNL     1       7.396  15.254  21.994  0.00  0.00     0.159 C 
BRANCH  13  15
HETATM   15  C   UNL     1       5.572  13.778  22.766  0.00  0.00     0.037 A 
HETATM   16  C   UNL     1       4.860  14.753  23.475  0.00  0.00     0.032 A 
HETATM   17  C   UNL     1       3.498  14.590  23.814  0.00  0.00     0.031 A 
HETATM   18  C   UNL     1       2.787  13.439  23.472  0.00  0.00     0.030 A 
HETATM   19  C   UNL     1       3.495  12.473  22.750  0.00  0.00     0.031 A 
HETATM   20  C   UNL     1       4.847  12.632  22.410  0.00  0.00     0.032 A 
BRANCH  18  21
HETATM   21  N   UNL     1       1.445  13.244  23.746  0.00  0.00    -0.377 N 
HETATM   22  C   UNL     1       0.416  13.239  22.691  0.00  0.00     0.149 C 
HETATM   23  C   UNL     1      -0.786  12.408  23.185  0.00  0.00     0.187 C 
HETATM   24  O   UNL     1      -1.306  12.896  24.436  0.00  0.00    -0.388 OA
HETATM   25  C   UNL     1      -0.279  12.883  25.444  0.00  0.00     0.187 C 
HETATM   26  C   UNL     1       0.916  13.753  25.030  0.00  0.00     0.149 C 
ENDBRANCH  18  21
ENDBRANCH  13  15
ENDBRANCH   1  11
BRANCH   2  27
HETATM   27  O   UNL     1       8.528  11.854  19.826  0.00  0.00    -0.360 OA
HETATM   28  H   UNL     1       7.732  12.427  19.921  0.00  0.00     0.217 HD
ENDBRANCH   2  27
BRANCH   8  29
HETATM   29  C   UNL     1      13.135  14.881  23.679  0.00  0.00     0.066 C 
BRANCH  29  30
HETATM   30  C   UNL     1      13.095  14.232  25.078  0.00  0.00    -0.009 C 
HETATM   31  C   UNL     1      11.797  14.406  25.899  0.00  0.00     0.005 C 
HETATM   32  C   UNL     1      10.950  13.158  26.175  0.00  0.00     0.000 C 
HETATM   33  C   UNL     1      11.754  11.873  26.307  0.00  0.00     0.000 C 
HETATM   34  C   UNL     1      12.667  11.710  25.106  0.00  0.00     0.000 C 
HETATM   35  C   UNL     1      13.700  12.823  25.104  0.00  0.00     0.005 C 
ENDBRANCH  29  30
ENDBRANCH   8  29
TORSDOF 6
ENDMDL
MODEL 8
REMARK VINA RESULT:    -8.312      2.138      3.269
REMARK INTER + INTRA:         -12.781
REMARK INTER:                 -11.026
REMARK INTRA:                  -1.755
REMARK UNBOUND:                -1.796
REMARK  6 active torsions:
REMARK  status: ('A' for Active; 'I' for Inactive)
REMARK       I    between atoms: C_2  and  N_3 
REMARK    1  A    between atoms: C_2  and  C_17 
REMARK    2  A    between atoms: N_3  and  C_5 
REMARK    3  A    between atoms: C_8  and  N_9 
REMARK    4  A    between atoms: C_18  and  O_19 
REMARK    5  A    between atoms: C_25  and  C_26 
REMARK    6  A    between atoms: C_26  and  C_27 
ROOT
HETATM    1  C   UNL     1      10.105  14.421  24.796  0.00  0.00     0.066 A 
HETATM    2  C   UNL     1      10.683  14.406  26.082  0.00  0.00     0.083 A 
HETATM    3  C   UNL     1      12.069  14.360  26.283  0.00  0.00     0.069 A 
HETATM    4  C   UNL     1      12.870  14.334  25.140  0.00  0.00     0.065 A 
HETATM    5  N   UNL     1      14.226  14.244  24.971  0.00  0.00    -0.277 N 
HETATM    6  H   UNL     1      14.932  14.162  25.695  0.00  0.00     0.189 HD
HETATM    7  N   UNL     1      14.621  14.205  23.684  0.00  0.00    -0.178 NA
HETATM    8  C   UNL     1      13.476  14.256  22.989  0.00  0.00     0.067 A 
HETATM    9  C   UNL     1      12.347  14.321  23.855  0.00  0.00     0.019 A 
HETATM   10  C   UNL     1      10.949  14.305  23.683  0.00  0.00     0.035 A 
ENDROOT
BRANCH   1  11
HETATM   11  C   UNL     1       8.614  14.414  24.658  0.00  0.00     0.260 C 
HETATM   12  O   UNL     1       8.113  15.526  24.840  0.00  0.00    -0.267 OA
HETATM   13  N   UNL     1       7.881  13.240  24.362  0.00  0.00    -0.318 N 
HETATM   14  C   UNL     1       8.523  11.996  23.918  0.00  0.00     0.159 C 
BRANCH  13  15
HETATM   15  C   UNL     1       6.426  13.206  24.410  0.00  0.00     0.037 A 
HETATM   16  C   UNL     1       5.688  12.883  25.555  0.00  0.00     0.032 A 
HETATM   17  C   UNL     1       4.276  12.867  25.558  0.00  0.00     0.031 A 
HETATM   18  C   UNL     1       3.534  13.160  24.413  0.00  0.00     0.030 A 
HETATM   19  C   UNL     1       4.272  13.498  23.274  0.00  0.00     0.031 A 
HETATM   20  C   UNL     1       5.675  13.518  23.268  0.00  0.00     0.032 A 
BRANCH  18  21
HETATM   21  N   UNL     1       2.151  13.195  24.370  0.00  0.00    -0.377 N 
HETATM   22  C   UNL     1       1.397  13.096  23.108  0.00  0.00     0.149 C 
HETATM   23  C   UNL     1      -0.009  12.543  23.422  0.00  0.00     0.187 C 
HETATM   24  O   UNL     1      -0.702  13.346  24.397  0.00  0.00    -0.388 OA
HETATM   25  C   UNL     1       0.058  13.418  25.616  0.00  0.00     0.187 C 
HETATM   26  C   UNL     1       1.446  14.026  25.370  0.00  0.00     0.149 C 
ENDBRANCH  18  21
ENDBRANCH  13  15
ENDBRANCH   1  11
BRANCH   2  27
HETATM   27  O   UNL     1       9.930  14.396  27.233  0.00  0.00    -0.360 OA
HETATM   28  H   UNL     1       9.892  13.463  27.548  0.00  0.00     0.217 HD
ENDBRANCH   2  27
BRANCH   8  29
HETATM   29  C   UNL     1      13.448  14.041  21.512  0.00  0.00     0.066 C 
BRANCH  29  30
HETATM   30  C   UNL     1      13.154  12.642  20.931  0.00  0.00    -0.009 C 
HETATM   31  C   UNL     1      13.414  11.427  21.850  0.00  0.00     0.005 C 
HETATM   32  C   UNL     1      12.205  10.609  22.318  0.00  0.00     0.000 C 
HETATM   33  C   UNL     1      11.059  10.560  21.318  0.00  0.00     0.000 C 
HETATM   34  C   UNL     1      10.686  11.968  20.891  0.00  0.00     0.000 C 
HETATM   35  C   UNL     1      11.845  12.587  20.132  0.00  0.00     0.005 C 
ENDBRANCH  29  30
ENDBRANCH   8  29
TORSDOF 6
ENDMDL
MODEL 9
REMARK VINA RESULT:    -8.116      1.816      2.421
REMARK INTER + INTRA:         -12.522
REMARK INTER:                 -10.725
REMARK INTRA:                  -1.796
REMARK UNBOUND:                -1.796
REMARK  6 active torsions:
REMARK  status: ('A' for Active; 'I' for Inactive)
REMARK       I    between atoms: C_2  and  N_3 
REMARK    1  A    between atoms: C_2  and  C_17 
REMARK    2  A    between atoms: N_3  and  C_5 
REMARK    3  A    between atoms: C_8  and  N_9 
REMARK    4  A    between atoms: C_18  and  O_19 
REMARK    5  A    between atoms: C_25  and  C_26 
REMARK    6  A    between atoms: C_26  and  C_27 
ROOT
HETATM    1  C   UNL     1       7.754  11.812  24.411  0.00  0.00     0.066 A 
HETATM    2  C   UNL     1       8.524  10.689  24.778  0.00  0.00     0.083 A 
HETATM    3  C   UNL     1       9.904  10.766  25.003  0.00  0.00     0.069 A 
HETATM    4  C   UNL     1      10.498  12.020  24.855  0.00  0.00     0.065 A 
HETATM    5  N   UNL     1      11.799  12.438  24.952  0.00  0.00    -0.277 N 
HETATM    6  H   UNL     1      12.615  11.869  25.149  0.00  0.00     0.189 HD
HETATM    7  N   UNL     1      11.979  13.748  24.692  0.00  0.00    -0.178 NA
HETATM    8  C   UNL     1      10.750  14.195  24.400  0.00  0.00     0.067 A 
HETATM    9  C   UNL     1       9.787  13.148  24.471  0.00  0.00     0.019 A 
HETATM   10  C   UNL     1       8.411  13.030  24.189  0.00  0.00     0.035 A 
ENDROOT
BRANCH   1  11
HETATM   11  C   UNL     1       6.292  11.644  24.131  0.00  0.00     0.260 C 
HETATM   12  O   UNL     1       6.073  11.083  23.056  0.00  0.00    -0.267 OA
HETATM   13  N   UNL     1       5.289  12.101  25.019  0.00  0.00    -0.318 N 
HETATM   14  C   UNL     1       5.584  12.542  26.389  0.00  0.00     0.159 C 
BRANCH  13  15
HETATM   15  C   UNL     1       3.879  12.098  24.657  0.00  0.00     0.037 A 
HETATM   16  C   UNL     1       3.230  13.167  24.027  0.00  0.00     0.032 A 
HETATM   17  C   UNL     1       1.859  13.119  23.690  0.00  0.00     0.031 A 
HETATM   18  C   UNL     1       1.068  12.006  23.978  0.00  0.00     0.030 A 
HETATM   19  C   UNL     1       1.721  10.932  24.592  0.00  0.00     0.031 A 
HETATM   20  C   UNL     1       3.083  10.975  24.927  0.00  0.00     0.032 A 
BRANCH  18  21
HETATM   21  N   UNL     1      -0.268  11.891  23.636  0.00  0.00    -0.377 N 
HETATM   22  C   UNL     1      -1.057  10.682  23.929  0.00  0.00     0.149 C 
HETATM   23  C   UNL     1      -2.545  11.081  24.020  0.00  0.00     0.187 C 
HETATM   24  O   UNL     1      -3.003  11.742  22.825  0.00  0.00    -0.388 OA
HETATM   25  C   UNL     1      -2.215  12.919  22.571  0.00  0.00     0.187 C 
HETATM   26  C   UNL     1      -0.730  12.568  22.405  0.00  0.00     0.149 C 
ENDBRANCH  18  21
ENDBRANCH  13  15
ENDBRANCH   1  11
BRANCH   2  27
HETATM   27  O   UNL     1       7.986   9.430  24.901  0.00  0.00    -0.360 OA
HETATM   28  H   UNL     1       7.221   9.378  24.282  0.00  0.00     0.217 HD
ENDBRANCH   2  27
BRANCH   8  29
HETATM   29  C   UNL     1      10.526  15.568  23.859  0.00  0.00     0.066 C 
BRANCH  29  30
HETATM   30  C   UNL     1      10.341  15.792  22.344  0.00  0.00    -0.009 C 
HETATM   31  C   UNL     1      11.154  14.886  21.392  0.00  0.00     0.005 C 
HETATM   32  C   UNL     1      10.384  13.881  20.527  0.00  0.00     0.000 C 
HETATM   33  C   UNL     1       8.996  14.345  20.115  0.00  0.00     0.000 C 
HETATM   34  C   UNL     1       8.215  14.786  21.339  0.00  0.00     0.000 C 
HETATM   35  C   UNL     1       8.876  16.011  21.944  0.00  0.00     0.005 C 
ENDBRANCH  29  30
ENDBRANCH   8  29
TORSDOF 6
ENDMDL
