MODEL 1
REMARK VINA RESULT:    -9.024      0.000      0.000
REMARK INTER + INTRA:         -11.744
REMARK INTER:                 -10.610
REMARK INTRA:                  -1.134
REMARK UNBOUND:                -1.137
REMARK  3 active torsions:
REMARK  status: ('A' for Active; 'I' for Inactive)
REMARK       I    between atoms: C_2  and  N_3 
REMARK    1  A    between atoms: C_2  and  C_27 
REMARK    2  A    between atoms: N_3  and  C_4 
REMARK    3  A    between atoms: C_16  and  C_17 
ROOT
HETATM    1  C   UNL     1      -2.089  11.101  23.459  0.00  0.00     0.153 A 
HETATM    2  C   UNL     1      -2.889  11.184  24.740  0.00  0.00    -0.020 A 
HETATM    3  C   UNL     1      -4.067  11.898  24.938  0.00  0.00     0.010 A 
HETATM    4  C   UNL     1      -4.677  11.835  26.187  0.00  0.00     0.001 A 
HETATM    5  C   UNL     1      -4.119  11.044  27.197  0.00  0.00     0.001 A 
HETATM    6  C   UNL     1      -2.941  10.315  26.975  0.00  0.00     0.013 A 
HETATM    7  C   UNL     1      -2.290  10.402  25.754  0.00  0.00    -0.016 A 
HETATM    8  C   UNL     1      -1.050   9.804  25.235  0.00  0.00    -0.003 A 
HETATM    9  C   UNL     1      -0.947  10.186  23.865  0.00  0.00    -0.019 A 
HETATM   10  C   UNL     1       0.083   9.760  23.038  0.00  0.00     0.010 A 
HETATM   11  C   UNL     1       1.065   8.949  23.583  0.00  0.00     0.002 A 
HETATM   12  C   UNL     1       1.011   8.589  24.940  0.00  0.00     0.016 A 
HETATM   13  C   UNL     1      -0.038   9.008  25.796  0.00  0.00     0.022 A 
ENDROOT
BRANCH   1  14
HETATM   14  N   UNL     1      -1.614  12.412  23.079  0.00  0.00    -0.344 N 
HETATM   15  C   UNL     1      -1.596  12.814  21.764  0.00  0.00     0.253 C 
HETATM   16  O   UNL     1      -1.965  12.096  20.844  0.00  0.00    -0.268 OA
HETATM   17  H   UNL     1      -1.079  12.912  23.774  0.00  0.00     0.163 HD
BRANCH  15  18
HETATM   18  C   UNL     1      -1.109  14.191  21.508  0.00  0.00     0.047 A 
HETATM   19  C   UNL     1       0.159  14.612  21.934  0.00  0.00     0.037 A 
HETATM   20  C   UNL     1       0.532  15.931  21.727  0.00  0.00     0.120 A 
HETATM   21  N   UNL     1      -0.230  16.881  21.145  0.00  0.00    -0.242 NA
HETATM   22  C   UNL     1      -1.436  16.430  20.760  0.00  0.00     0.138 A 
HETATM   23  N   UNL     1      -2.390  17.210  20.164  0.00  0.00    -0.350 N 
HETATM   24  C   UNL     1      -1.947  15.144  20.893  0.00  0.00     0.027 A 
HETATM   25  H   UNL     1      -2.268  18.195  19.976  0.00  0.00     0.166 HD
HETATM   26  C   UNL     1      -3.497  16.454  19.879  0.00  0.00     0.090 A 
HETATM   27  C   UNL     1      -3.254  15.172  20.325  0.00  0.00     0.033 A 
ENDBRANCH  15  18
ENDBRANCH   1  14
BRANCH  13  28
HETATM   28  C   UNL     1       0.021   8.640  27.218  0.00  0.00     0.140 A 
HETATM   29  N   UNL     1       0.589   9.336  28.182  0.00  0.00    -0.227 NA
HETATM   30  C   UNL     1       0.321   8.685  29.356  0.00  0.00     0.103 A 
HETATM   31  C   UNL     1       0.588   9.053  30.676  0.00  0.00     0.150 A 
HETATM   32  C   UNL     1      -0.327   7.483  29.108  0.00  0.00     0.065 A 
HETATM   33  N   UNL     1       0.239   8.227  31.698  0.00  0.00    -0.271 NA
HETATM   34  C   UNL     1      -0.357   7.047  31.404  0.00  0.00     0.118 A 
HETATM   35  C   UNL     1      -0.678   6.602  30.125  0.00  0.00     0.051 A 
HETATM   36  N   UNL     1      -0.497   7.470  27.745  0.00  0.00    -0.338 N 
HETATM   37  H   UNL     1      -0.968   6.750  27.218  0.00  0.00     0.167 HD
ENDBRANCH  13  28
TORSDOF 3
ENDMDL
MODEL 2
REMARK VINA RESULT:    -8.949      0.824      1.863
REMARK INTER + INTRA:         -11.656
REMARK INTER:                 -10.394
REMARK INTRA:                  -1.262
REMARK UNBOUND:                -1.137
REMARK  3 active torsions:
REMARK  status: ('A' for Active; 'I' for Inactive)
REMARK       I    between atoms: C_2  and  N_3 
REMARK    1  A    between atoms: C_2  and  C_27 
REMARK    2  A    between atoms: N_3  and  C_4 
REMARK    3  A    between atoms: C_16  and  C_17 
ROOT
HETATM    1  C   UNL     1      -1.807  11.038  23.521  0.00  0.00     0.153 A 
HETATM    2  C   UNL     1      -2.624  11.142  24.790  0.00  0.00    -0.020 A 
HETATM    3  C   UNL     1      -3.784  11.889  24.971  0.00  0.00     0.010 A 
HETATM    4  C   UNL     1      -4.413  11.842  26.211  0.00  0.00     0.001 A 
HETATM    5  C   UNL     1      -3.895  11.033  27.228  0.00  0.00     0.001 A 
HETATM    6  C   UNL     1      -2.735  10.271  27.022  0.00  0.00     0.013 A 
HETATM    7  C   UNL     1      -2.063  10.341  25.810  0.00  0.00    -0.016 A 
HETATM    8  C   UNL     1      -0.834   9.708  25.308  0.00  0.00    -0.003 A 
HETATM    9  C   UNL     1      -0.700  10.089  23.942  0.00  0.00    -0.019 A 
HETATM   10  C   UNL     1       0.330   9.635  23.129  0.00  0.00     0.010 A 
HETATM   11  C   UNL     1       1.280   8.795  23.687  0.00  0.00     0.002 A 
HETATM   12  C   UNL     1       1.195   8.434  25.042  0.00  0.00     0.016 A 
HETATM   13  C   UNL     1       0.146   8.881  25.883  0.00  0.00     0.022 A 
ENDROOT
BRANCH   1  14
HETATM   14  N   UNL     1      -1.289  12.335  23.151  0.00  0.00    -0.344 N 
HETATM   15  C   UNL     1      -1.451  12.836  21.881  0.00  0.00     0.253 C 
HETATM   16  O   UNL     1      -2.025  12.221  20.991  0.00  0.00    -0.268 OA
HETATM   17  H   UNL     1      -0.606  12.738  23.776  0.00  0.00     0.163 HD
BRANCH  15  18
HETATM   18  C   UNL     1      -0.894  14.188  21.634  0.00  0.00     0.047 A 
HETATM   19  C   UNL     1      -1.715  15.325  21.603  0.00  0.00     0.037 A 
HETATM   20  C   UNL     1      -1.147  16.552  21.298  0.00  0.00     0.120 A 
HETATM   21  N   UNL     1       0.155  16.768  21.014  0.00  0.00    -0.242 NA
HETATM   22  C   UNL     1       0.897  15.648  21.051  0.00  0.00     0.138 A 
HETATM   23  N   UNL     1       2.238  15.610  20.782  0.00  0.00    -0.350 N 
HETATM   24  C   UNL     1       0.476  14.356  21.344  0.00  0.00     0.027 A 
HETATM   25  H   UNL     1       2.778  16.422  20.519  0.00  0.00     0.166 HD
HETATM   26  C   UNL     1       2.704  14.328  20.921  0.00  0.00     0.090 A 
HETATM   27  C   UNL     1       1.634  13.529  21.263  0.00  0.00     0.033 A 
ENDBRANCH  15  18
ENDBRANCH   1  14
BRANCH  13  28
HETATM   28  C   UNL     1       0.172   8.509  27.305  0.00  0.00     0.140 A 
HETATM   29  N   UNL     1       0.802   9.152  28.268  0.00  0.00    -0.227 NA
HETATM   30  C   UNL     1       0.477   8.526  29.442  0.00  0.00     0.103 A 
HETATM   31  C   UNL     1       0.777   8.869  30.763  0.00  0.00     0.150 A 
HETATM   32  C   UNL     1      -0.276   7.388  29.194  0.00  0.00     0.065 A 
HETATM   33  N   UNL     1       0.356   8.077  31.785  0.00  0.00    -0.271 NA
HETATM   34  C   UNL     1      -0.344   6.955  31.491  0.00  0.00     0.118 A 
HETATM   35  C   UNL     1      -0.704   6.541  30.212  0.00  0.00     0.051 A 
HETATM   36  N   UNL     1      -0.447   7.390  27.832  0.00  0.00    -0.338 N 
HETATM   37  H   UNL     1      -0.981   6.715  27.306  0.00  0.00     0.167 HD
ENDBRANCH  13  28
TORSDOF 3
ENDMDL
MODEL 3
REMARK VINA RESULT:    -8.810      0.963      1.198
REMARK INTER + INTRA:         -11.492
REMARK INTER:                 -10.280
REMARK INTRA:                  -1.212
REMARK UNBOUND:                -1.137
REMARK  3 active torsions:
REMARK  status: ('A' for Active; 'I' for Inactive)
REMARK       I    between atoms: C_2  and  N_3 
REMARK    1  A    between atoms: C_2  and  C_27 
REMARK    2  A    between atoms: N_3  and  C_4 
REMARK    3  A    between atoms: C_16  and  C_17 
ROOT
HETATM    1  C   UNL     1      -1.127  10.692  23.619  0.00  0.00     0.153 A 
HETATM    2  C   UNL     1      -1.953  10.992  24.850  0.00  0.00    -0.020 A 
HETATM    3  C   UNL     1      -3.028  11.872  24.934  0.00  0.00     0.010 A 
HETATM    4  C   UNL     1      -3.684  12.000  26.154  0.00  0.00     0.001 A 
HETATM    5  C   UNL     1      -3.278  11.231  27.250  0.00  0.00     0.001 A 
HETATM    6  C   UNL     1      -2.205  10.334  27.143  0.00  0.00     0.013 A 
HETATM    7  C   UNL     1      -1.504  10.227  25.950  0.00  0.00    -0.016 A 
HETATM    8  C   UNL     1      -0.342   9.425  25.540  0.00  0.00    -0.003 A 
HETATM    9  C   UNL     1      -0.138   9.670  24.151  0.00  0.00    -0.019 A 
HETATM   10  C   UNL     1       0.852   9.039  23.409  0.00  0.00     0.010 A 
HETATM   11  C   UNL     1       1.693   8.154  24.064  0.00  0.00     0.002 A 
HETATM   12  C   UNL     1       1.542   7.923  25.441  0.00  0.00     0.016 A 
HETATM   13  C   UNL     1       0.530   8.550  26.210  0.00  0.00     0.022 A 
ENDROOT
BRANCH   1  14
HETATM   14  N   UNL     1      -0.463  11.889  23.158  0.00  0.00    -0.344 N 
HETATM   15  C   UNL     1      -0.503  12.267  21.836  0.00  0.00     0.253 C 
HETATM   16  O   UNL     1      -1.085  11.619  20.976  0.00  0.00    -0.268 OA
HETATM   17  H   UNL     1       0.221  12.290  23.783  0.00  0.00     0.163 HD
BRANCH  15  18
HETATM   18  C   UNL     1       0.198  13.529  21.494  0.00  0.00     0.047 A 
HETATM   19  C   UNL     1       1.598  13.599  21.438  0.00  0.00     0.037 A 
HETATM   20  C   UNL     1       2.198  14.822  21.183  0.00  0.00     0.120 A 
HETATM   21  N   UNL     1       1.551  15.989  20.983  0.00  0.00    -0.242 NA
HETATM   22  C   UNL     1       0.213  15.871  21.052  0.00  0.00     0.138 A 
HETATM   23  N   UNL     1      -0.656  16.917  20.901  0.00  0.00    -0.350 N 
HETATM   24  C   UNL     1      -0.529  14.720  21.293  0.00  0.00     0.027 A 
HETATM   25  H   UNL     1      -0.361  17.869  20.739  0.00  0.00     0.166 HD
HETATM   26  C   UNL     1      -1.946  16.468  21.009  0.00  0.00     0.090 A 
HETATM   27  C   UNL     1      -1.899  15.113  21.258  0.00  0.00     0.033 A 
ENDBRANCH  15  18
ENDBRANCH   1  14
BRANCH  13  28
HETATM   28  C   UNL     1       0.487   8.302  27.658  0.00  0.00     0.140 A 
HETATM   29  N   UNL     1       0.997   9.072  28.598  0.00  0.00    -0.227 NA
HETATM   30  C   UNL     1       0.641   8.522  29.801  0.00  0.00     0.103 A 
HETATM   31  C   UNL     1       0.822   8.997  31.102  0.00  0.00     0.150 A 
HETATM   32  C   UNL     1      -0.004   7.309  29.608  0.00  0.00     0.065 A 
HETATM   33  N   UNL     1       0.393   8.261  32.161  0.00  0.00    -0.271 NA
HETATM   34  C   UNL     1      -0.197   7.066  31.925  0.00  0.00     0.118 A 
HETATM   35  C   UNL     1      -0.435   6.518  30.669  0.00  0.00     0.051 A 
HETATM   36  N   UNL     1      -0.080   7.183  28.243  0.00  0.00    -0.338 N 
HETATM   37  H   UNL     1      -0.524   6.425  27.746  0.00  0.00     0.167 HD
ENDBRANCH  13  28
TORSDOF 3
ENDMDL
MODEL 4
REMARK VINA RESULT:    -8.378      2.494      9.152
REMARK INTER + INTRA:         -10.985
REMARK INTER:                 -10.017
REMARK INTRA:                  -0.968
REMARK UNBOUND:                -1.137
REMARK  3 active torsions:
REMARK  status: ('A' for Active; 'I' for Inactive)
REMARK       I    between atoms: C_2  and  N_3 
REMARK    1  A    between atoms: C_2  and  C_27 
REMARK    2  A    between atoms: N_3  and  C_4 
REMARK    3  A    between atoms: C_16  and  C_17 
ROOT
HETATM    1  C   UNL     1      -2.291  11.886  25.366  0.00  0.00     0.153 A 
HETATM    2  C   UNL     1      -2.104  11.814  23.867  0.00  0.00    -0.020 A 
HETATM    3  C   UNL     1      -2.434  10.745  23.039  0.00  0.00     0.010 A 
HETATM    4  C   UNL     1      -2.208  10.874  21.672  0.00  0.00     0.001 A 
HETATM    5  C   UNL     1      -1.689  12.067  21.159  0.00  0.00     0.001 A 
HETATM    6  C   UNL     1      -1.381  13.142  22.005  0.00  0.00     0.013 A 
HETATM    7  C   UNL     1      -1.551  13.019  23.376  0.00  0.00    -0.016 A 
HETATM    8  C   UNL     1      -1.294  13.928  24.503  0.00  0.00    -0.003 A 
HETATM    9  C   UNL     1      -1.765  13.275  25.679  0.00  0.00    -0.019 A 
HETATM   10  C   UNL     1      -1.727  13.863  26.936  0.00  0.00     0.010 A 
HETATM   11  C   UNL     1      -1.180  15.131  27.048  0.00  0.00     0.002 A 
HETATM   12  C   UNL     1      -0.672  15.783  25.913  0.00  0.00     0.016 A 
HETATM   13  C   UNL     1      -0.711  15.201  24.621  0.00  0.00     0.022 A 
ENDROOT
BRANCH   1  14
HETATM   14  N   UNL     1      -1.511  10.859  26.018  0.00  0.00    -0.344 N 
HETATM   15  C   UNL     1      -1.932  10.275  27.190  0.00  0.00     0.253 C 
HETATM   16  O   UNL     1      -2.971  10.591  27.756  0.00  0.00    -0.268 OA
HETATM   17  H   UNL     1      -0.552  10.767  25.717  0.00  0.00     0.163 HD
BRANCH  15  18
HETATM   18  C   UNL     1      -1.053   9.217  27.747  0.00  0.00     0.047 A 
HETATM   19  C   UNL     1      -0.676   9.211  29.097  0.00  0.00     0.037 A 
HETATM   20  C   UNL     1       0.203   8.236  29.543  0.00  0.00     0.120 A 
HETATM   21  N   UNL     1       0.753   7.267  28.782  0.00  0.00    -0.242 NA
HETATM   22  C   UNL     1       0.365   7.318  27.496  0.00  0.00     0.138 A 
HETATM   23  N   UNL     1       0.802   6.454  26.530  0.00  0.00    -0.350 N 
HETATM   24  C   UNL     1      -0.507   8.226  26.905  0.00  0.00     0.027 A 
HETATM   25  H   UNL     1       1.465   5.711  26.703  0.00  0.00     0.166 HD
HETATM   26  C   UNL     1       0.211   6.759  25.331  0.00  0.00     0.090 A 
HETATM   27  C   UNL     1      -0.600   7.856  25.532  0.00  0.00     0.033 A 
ENDBRANCH  15  18
ENDBRANCH   1  14
BRANCH  13  28
HETATM   28  C   UNL     1      -0.095  15.926  23.500  0.00  0.00     0.140 A 
HETATM   29  N   UNL     1       1.188  16.185  23.349  0.00  0.00    -0.227 NA
HETATM   30  C   UNL     1       1.333  16.783  22.126  0.00  0.00     0.103 A 
HETATM   31  C   UNL     1       2.486  17.152  21.429  0.00  0.00     0.150 A 
HETATM   32  C   UNL     1       0.092  17.018  21.550  0.00  0.00     0.065 A 
HETATM   33  N   UNL     1       2.385  17.758  20.216  0.00  0.00    -0.271 NA
HETATM   34  C   UNL     1       1.152  18.000  19.712  0.00  0.00     0.118 A 
HETATM   35  C   UNL     1      -0.051  17.656  20.322  0.00  0.00     0.051 A 
HETATM   36  N   UNL     1      -0.799  16.477  22.444  0.00  0.00    -0.338 N 
HETATM   37  H   UNL     1      -1.800  16.440  22.326  0.00  0.00     0.167 HD
ENDBRANCH  13  28
TORSDOF 3
ENDMDL
MODEL 5
REMARK VINA RESULT:    -8.260      3.001      9.753
REMARK INTER + INTRA:         -10.845
REMARK INTER:                  -9.598
REMARK INTRA:                  -1.248
REMARK UNBOUND:                -1.137
REMARK  3 active torsions:
REMARK  status: ('A' for Active; 'I' for Inactive)
REMARK       I    between atoms: C_2  and  N_3 
REMARK    1  A    between atoms: C_2  and  C_27 
REMARK    2  A    between atoms: N_3  and  C_4 
REMARK    3  A    between atoms: C_16  and  C_17 
ROOT
HETATM    1  C   UNL     1      -0.819   8.636  27.110  0.00  0.00     0.153 A 
HETATM    2  C   UNL     1       0.257   8.284  26.107  0.00  0.00    -0.020 A 
HETATM    3  C   UNL     1       0.935   7.072  26.009  0.00  0.00     0.010 A 
HETATM    4  C   UNL     1       1.883   6.925  25.001  0.00  0.00     0.001 A 
HETATM    5  C   UNL     1       2.112   7.969  24.099  0.00  0.00     0.001 A 
HETATM    6  C   UNL     1       1.406   9.177  24.200  0.00  0.00     0.013 A 
HETATM    7  C   UNL     1       0.493   9.365  25.228  0.00  0.00    -0.016 A 
HETATM    8  C   UNL     1      -0.360  10.499  25.616  0.00  0.00    -0.003 A 
HETATM    9  C   UNL     1      -1.164  10.059  26.707  0.00  0.00    -0.019 A 
HETATM   10  C   UNL     1      -2.129  10.858  27.305  0.00  0.00     0.010 A 
HETATM   11  C   UNL     1      -2.291  12.150  26.830  0.00  0.00     0.002 A 
HETATM   12  C   UNL     1      -1.485  12.625  25.782  0.00  0.00     0.016 A 
HETATM   13  C   UNL     1      -0.502  11.819  25.155  0.00  0.00     0.022 A 
ENDROOT
BRANCH   1  14
HETATM   14  N   UNL     1      -0.292   8.574  28.453  0.00  0.00    -0.344 N 
HETATM   15  C   UNL     1      -0.455   7.455  29.236  0.00  0.00     0.253 C 
HETATM   16  O   UNL     1      -1.058   6.460  28.857  0.00  0.00    -0.268 OA
HETATM   17  H   UNL     1      -0.023   9.454  28.869  0.00  0.00     0.163 HD
BRANCH  15  18
HETATM   18  C   UNL     1       0.153   7.507  30.588  0.00  0.00     0.047 A 
HETATM   19  C   UNL     1      -0.594   7.879  31.716  0.00  0.00     0.037 A 
HETATM   20  C   UNL     1       0.047   7.977  32.941  0.00  0.00     0.120 A 
HETATM   21  N   UNL     1       1.358   7.751  33.163  0.00  0.00    -0.242 NA
HETATM   22  C   UNL     1       2.032   7.405  32.052  0.00  0.00     0.138 A 
HETATM   23  N   UNL     1       3.374   7.144  32.021  0.00  0.00    -0.350 N 
HETATM   24  C   UNL     1       1.530   7.260  30.763  0.00  0.00     0.027 A 
HETATM   25  H   UNL     1       3.973   7.203  32.831  0.00  0.00     0.166 HD
HETATM   26  C   UNL     1       3.752   6.804  30.748  0.00  0.00     0.090 A 
HETATM   27  C   UNL     1       2.633   6.873  29.946  0.00  0.00     0.033 A 
ENDBRANCH  15  18
ENDBRANCH   1  14
BRANCH  13  28
HETATM   28  C   UNL     1       0.342  12.417  24.111  0.00  0.00     0.140 A 
HETATM   29  N   UNL     1       0.102  12.414  22.815  0.00  0.00    -0.227 NA
HETATM   30  C   UNL     1       1.082  13.166  22.226  0.00  0.00     0.103 A 
HETATM   31  C   UNL     1       1.234  13.577  20.900  0.00  0.00     0.150 A 
HETATM   32  C   UNL     1       2.031  13.547  23.164  0.00  0.00     0.065 A 
HETATM   33  N   UNL     1       2.314  14.318  20.535  0.00  0.00    -0.271 NA
HETATM   34  C   UNL     1       3.233  14.634  21.478  0.00  0.00     0.118 A 
HETATM   35  C   UNL     1       3.161  14.285  22.823  0.00  0.00     0.051 A 
HETATM   36  N   UNL     1       1.548  13.052  24.350  0.00  0.00    -0.338 N 
HETATM   37  H   UNL     1       1.975  13.175  25.256  0.00  0.00     0.167 HD
ENDBRANCH  13  28
TORSDOF 3
ENDMDL
MODEL 6
REMARK VINA RESULT:    -8.148      2.506      9.393
REMARK INTER + INTRA:         -10.714
REMARK INTER:                  -9.471
REMARK INTRA:                  -1.244
REMARK UNBOUND:                -1.137
REMARK  3 active torsions:
REMARK  status: ('A' for Active; 'I' for Inactive)
REMARK       I    between atoms: C_2  and  N_3 
REMARK    1  A    between atoms: C_2  and  C_27 
REMARK    2  A    between atoms: N_3  and  C_4 
REMARK    3  A    between atoms: C_16  and  C_17 
ROOT
HETATM    1  C   UNL     1      -1.277   9.820  26.662  0.00  0.00     0.153 A 
HETATM    2  C   UNL     1      -0.461   9.829  25.389  0.00  0.00    -0.020 A 
HETATM    3  C   UNL     1       0.205   8.746  24.822  0.00  0.00     0.010 A 
HETATM    4  C   UNL     1       0.889   8.942  23.626  0.00  0.00     0.001 A 
HETATM    5  C   UNL     1       0.872  10.198  23.010  0.00  0.00     0.001 A 
HETATM    6  C   UNL     1       0.180  11.274  23.585  0.00  0.00     0.013 A 
HETATM    7  C   UNL     1      -0.468  11.114  24.801  0.00  0.00    -0.016 A 
HETATM    8  C   UNL     1      -1.232  12.034  25.657  0.00  0.00    -0.003 A 
HETATM    9  C   UNL     1      -1.744  11.263  26.741  0.00  0.00    -0.019 A 
HETATM   10  C   UNL     1      -2.559  11.797  27.730  0.00  0.00     0.010 A 
HETATM   11  C   UNL     1      -2.861  13.148  27.667  0.00  0.00     0.002 A 
HETATM   12  C   UNL     1      -2.338  13.941  26.632  0.00  0.00     0.016 A 
HETATM   13  C   UNL     1      -1.512  13.410  25.610  0.00  0.00     0.022 A 
ENDROOT
BRANCH   1  14
HETATM   14  N   UNL     1      -0.446   9.464  27.788  0.00  0.00    -0.344 N 
HETATM   15  C   UNL     1      -0.383   8.171  28.252  0.00  0.00     0.253 C 
HETATM   16  O   UNL     1      -1.027   7.254  27.758  0.00  0.00    -0.268 OA
HETATM   17  H   UNL     1      -0.114  10.228  28.358  0.00  0.00     0.163 HD
BRANCH  15  18
HETATM   18  C   UNL     1       0.526   7.930  29.400  0.00  0.00     0.047 A 
HETATM   19  C   UNL     1       0.034   7.751  30.701  0.00  0.00     0.037 A 
HETATM   20  C   UNL     1       0.936   7.600  31.742  0.00  0.00     0.120 A 
HETATM   21  N   UNL     1       2.281   7.616  31.627  0.00  0.00    -0.242 NA
HETATM   22  C   UNL     1       2.702   7.796  30.363  0.00  0.00     0.138 A 
HETATM   23  N   UNL     1       4.019   7.865  29.998  0.00  0.00    -0.350 N 
HETATM   24  C   UNL     1       1.925   7.955  29.221  0.00  0.00     0.027 A 
HETATM   25  H   UNL     1       4.784   7.800  30.653  0.00  0.00     0.166 HD
HETATM   26  C   UNL     1       4.116   8.036  28.641  0.00  0.00     0.090 A 
HETATM   27  C   UNL     1       2.835   8.102  28.134  0.00  0.00     0.033 A 
ENDBRANCH  15  18
ENDBRANCH   1  14
BRANCH  13  28
HETATM   28  C   UNL     1      -0.955  14.325  24.605  0.00  0.00     0.140 A 
HETATM   29  N   UNL     1       0.279  14.788  24.569  0.00  0.00    -0.227 NA
HETATM   30  C   UNL     1       0.398  15.518  23.417  0.00  0.00     0.103 A 
HETATM   31  C   UNL     1       1.517  16.124  22.841  0.00  0.00     0.150 A 
HETATM   32  C   UNL     1      -0.829  15.617  22.776  0.00  0.00     0.065 A 
HETATM   33  N   UNL     1       1.392  16.822  21.681  0.00  0.00    -0.271 NA
HETATM   34  C   UNL     1       0.168  16.923  21.112  0.00  0.00     0.118 A 
HETATM   35  C   UNL     1      -0.999  16.343  21.601  0.00  0.00     0.051 A 
HETATM   36  N   UNL     1      -1.674  14.864  23.552  0.00  0.00    -0.338 N 
HETATM   37  H   UNL     1      -2.649  14.687  23.360  0.00  0.00     0.167 HD
ENDBRANCH  13  28
TORSDOF 3
ENDMDL
MODEL 7
REMARK VINA RESULT:    -8.077      2.949      4.679
REMARK INTER + INTRA:         -10.630
REMARK INTER:                  -9.493
REMARK INTRA:                  -1.137
REMARK UNBOUND:                -1.137
REMARK  3 active torsions:
REMARK  status: ('A' for Active; 'I' for Inactive)
REMARK       I    between atoms: C_2  and  N_3 
REMARK    1  A    between atoms: C_2  and  C_27 
REMARK    2  A    between atoms: N_3  and  C_4 
REMARK    3  A    between atoms: C_16  and  C_17 
ROOT
HETATM    1  C   UNL     1      -1.237  13.664  24.388  0.00  0.00     0.153 A 
HETATM    2  C   UNL     1       0.264  13.802  24.260  0.00  0.00    -0.020 A 
HETATM    3  C   UNL     1       0.964  14.953  23.908  0.00  0.00     0.010 A 
HETATM    4  C   UNL     1       2.354  14.893  23.865  0.00  0.00     0.001 A 
HETATM    5  C   UNL     1       3.013  13.705  24.198  0.00  0.00     0.001 A 
HETATM    6  C   UNL     1       2.292  12.560  24.569  0.00  0.00     0.013 A 
HETATM    7  C   UNL     1       0.905  12.582  24.571  0.00  0.00    -0.016 A 
HETATM    8  C   UNL     1      -0.112  11.563  24.871  0.00  0.00    -0.003 A 
HETATM    9  C   UNL     1      -1.380  12.210  24.799  0.00  0.00    -0.019 A 
HETATM   10  C   UNL     1      -2.576  11.560  25.073  0.00  0.00     0.010 A 
HETATM   11  C   UNL     1      -2.527  10.214  25.403  0.00  0.00     0.002 A 
HETATM   12  C   UNL     1      -1.295   9.541  25.442  0.00  0.00     0.016 A 
HETATM   13  C   UNL     1      -0.064  10.192  25.175  0.00  0.00     0.022 A 
ENDROOT
BRANCH   1  14
HETATM   14  N   UNL     1      -1.875  13.927  23.119  0.00  0.00    -0.344 N 
HETATM   15  C   UNL     1      -3.161  14.410  23.049  0.00  0.00     0.253 C 
HETATM   16  O   UNL     1      -3.842  14.634  24.041  0.00  0.00    -0.268 OA
HETATM   17  H   UNL     1      -1.438  13.517  22.306  0.00  0.00     0.163 HD
BRANCH  15  18
HETATM   18  C   UNL     1      -3.693  14.660  21.687  0.00  0.00     0.047 A 
HETATM   19  C   UNL     1      -4.726  13.880  21.148  0.00  0.00     0.037 A 
HETATM   20  C   UNL     1      -5.133  14.117  19.845  0.00  0.00     0.120 A 
HETATM   21  N   UNL     1      -4.615  15.047  19.015  0.00  0.00    -0.242 NA
HETATM   22  C   UNL     1      -3.626  15.764  19.576  0.00  0.00     0.138 A 
HETATM   23  N   UNL     1      -2.935  16.752  18.928  0.00  0.00    -0.350 N 
HETATM   24  C   UNL     1      -3.114  15.648  20.864  0.00  0.00     0.027 A 
HETATM   25  H   UNL     1      -3.104  17.013  17.968  0.00  0.00     0.166 HD
HETATM   26  C   UNL     1      -2.007  17.300  19.775  0.00  0.00     0.090 A 
HETATM   27  C   UNL     1      -2.090  16.633  20.978  0.00  0.00     0.033 A 
ENDBRANCH  15  18
ENDBRANCH   1  14
BRANCH  13  28
HETATM   28  C   UNL     1       1.171   9.396  25.173  0.00  0.00     0.140 A 
HETATM   29  N   UNL     1       1.982   9.210  26.195  0.00  0.00    -0.227 NA
HETATM   30  C   UNL     1       2.944   8.326  25.785  0.00  0.00     0.103 A 
HETATM   31  C   UNL     1       3.969   7.707  26.504  0.00  0.00     0.150 A 
HETATM   32  C   UNL     1       2.802   8.045  24.434  0.00  0.00     0.065 A 
HETATM   33  N   UNL     1       4.829   6.863  25.875  0.00  0.00    -0.271 NA
HETATM   34  C   UNL     1       4.674   6.649  24.547  0.00  0.00     0.118 A 
HETATM   35  C   UNL     1       3.677   7.206  23.751  0.00  0.00     0.051 A 
HETATM   36  N   UNL     1       1.679   8.743  24.064  0.00  0.00    -0.338 N 
HETATM   37  H   UNL     1       1.261   8.740  23.145  0.00  0.00     0.167 HD
ENDBRANCH  13  28
TORSDOF 3
ENDMDL
MODEL 8
REMARK VINA RESULT:    -8.069      2.475      4.461
REMARK INTER + INTRA:         -10.621
REMARK INTER:                 -10.667
REMARK INTRA:                   0.046
REMARK UNBOUND:                -1.137
REMARK  3 active torsions:
REMARK  status: ('A' for Active; 'I' for Inactive)
REMARK       I    between atoms: C_2  and  N_3 
REMARK    1  A    between atoms: C_2  and  C_27 
REMARK    2  A    between atoms: N_3  and  C_4 
REMARK    3  A    between atoms: C_16  and  C_17 
ROOT
HETATM    1  C   UNL     1      -1.133  14.834  24.744  0.00  0.00     0.153 A 
HETATM    2  C   UNL     1       0.297  14.370  24.579  0.00  0.00    -0.020 A 
HETATM    3  C   UNL     1       1.398  15.165  24.275  0.00  0.00     0.010 A 
HETATM    4  C   UNL     1       2.648  14.559  24.187  0.00  0.00     0.001 A 
HETATM    5  C   UNL     1       2.778  13.188  24.432  0.00  0.00     0.001 A 
HETATM    6  C   UNL     1       1.661  12.405  24.757  0.00  0.00     0.013 A 
HETATM    7  C   UNL     1       0.398  12.978  24.801  0.00  0.00    -0.016 A 
HETATM    8  C   UNL     1      -0.940  12.432  25.071  0.00  0.00    -0.003 A 
HETATM    9  C   UNL     1      -1.844  13.534  25.074  0.00  0.00    -0.019 A 
HETATM   10  C   UNL     1      -3.199  13.399  25.344  0.00  0.00     0.010 A 
HETATM   11  C   UNL     1      -3.691  12.127  25.594  0.00  0.00     0.002 A 
HETATM   12  C   UNL     1      -2.831  11.018  25.558  0.00  0.00     0.016 A 
HETATM   13  C   UNL     1      -1.444  11.139  25.294  0.00  0.00     0.022 A 
ENDROOT
BRANCH   1  14
HETATM   14  N   UNL     1      -1.617  15.411  23.511  0.00  0.00    -0.344 N 
HETATM   15  C   UNL     1      -1.459  14.766  22.307  0.00  0.00     0.253 C 
HETATM   16  O   UNL     1      -0.896  13.684  22.200  0.00  0.00    -0.268 OA
HETATM   17  H   UNL     1      -1.848  16.393  23.538  0.00  0.00     0.163 HD
BRANCH  15  18
HETATM   18  C   UNL     1      -2.022  15.452  21.118  0.00  0.00     0.047 A 
HETATM   19  C   UNL     1      -1.507  16.675  20.664  0.00  0.00     0.037 A 
HETATM   20  C   UNL     1      -2.119  17.302  19.591  0.00  0.00     0.120 A 
HETATM   21  N   UNL     1      -3.198  16.843  18.922  0.00  0.00    -0.242 NA
HETATM   22  C   UNL     1      -3.656  15.672  19.398  0.00  0.00     0.138 A 
HETATM   23  N   UNL     1      -4.748  15.017  18.896  0.00  0.00    -0.350 N 
HETATM   24  C   UNL     1      -3.149  14.925  20.455  0.00  0.00     0.027 A 
HETATM   25  H   UNL     1      -5.309  15.369  18.134  0.00  0.00     0.166 HD
HETATM   26  C   UNL     1      -4.945  13.848  19.584  0.00  0.00     0.090 A 
HETATM   27  C   UNL     1      -3.974  13.767  20.559  0.00  0.00     0.033 A 
ENDBRANCH  15  18
ENDBRANCH   1  14
BRANCH  13  28
HETATM   28  C   UNL     1      -0.631   9.918  25.209  0.00  0.00     0.140 A 
HETATM   29  N   UNL     1       0.197   9.466  26.130  0.00  0.00    -0.227 NA
HETATM   30  C   UNL     1       0.663   8.257  25.688  0.00  0.00     0.103 A 
HETATM   31  C   UNL     1       1.468   7.310  26.325  0.00  0.00     0.150 A 
HETATM   32  C   UNL     1       0.212   8.003  24.401  0.00  0.00     0.065 A 
HETATM   33  N   UNL     1       1.823   6.170  25.674  0.00  0.00    -0.271 NA
HETATM   34  C   UNL     1       1.389   5.984  24.405  0.00  0.00     0.118 A 
HETATM   35  C   UNL     1       0.573   6.859  23.696  0.00  0.00     0.051 A 
HETATM   36  N   UNL     1      -0.597   9.075  24.112  0.00  0.00    -0.338 N 
HETATM   37  H   UNL     1      -1.123   9.202  23.261  0.00  0.00     0.167 HD
ENDBRANCH  13  28
TORSDOF 3
ENDMDL
MODEL 9
REMARK VINA RESULT:    -8.028      2.692      9.128
REMARK INTER + INTRA:         -10.573
REMARK INTER:                  -9.508
REMARK INTRA:                  -1.066
REMARK UNBOUND:                -1.137
REMARK  3 active torsions:
REMARK  status: ('A' for Active; 'I' for Inactive)
REMARK       I    between atoms: C_2  and  N_3 
REMARK    1  A    between atoms: C_2  and  C_27 
REMARK    2  A    between atoms: N_3  and  C_4 
REMARK    3  A    between atoms: C_16  and  C_17 
ROOT
HETATM    1  C   UNL     1      -0.481  11.226  25.981  0.00  0.00     0.153 A 
HETATM    2  C   UNL     1      -1.943  11.498  25.704  0.00  0.00    -0.020 A 
HETATM    3  C   UNL     1      -3.030  10.972  26.396  0.00  0.00     0.010 A 
HETATM    4  C   UNL     1      -4.309  11.359  26.009  0.00  0.00     0.001 A 
HETATM    5  C   UNL     1      -4.477  12.278  24.968  0.00  0.00     0.001 A 
HETATM    6  C   UNL     1      -3.369  12.813  24.294  0.00  0.00     0.013 A 
HETATM    7  C   UNL     1      -2.087  12.404  24.630  0.00  0.00    -0.016 A 
HETATM    8  C   UNL     1      -0.756  12.745  24.102  0.00  0.00    -0.003 A 
HETATM    9  C   UNL     1       0.198  12.077  24.923  0.00  0.00    -0.019 A 
HETATM   10  C   UNL     1       1.569  12.208  24.747  0.00  0.00     0.010 A 
HETATM   11  C   UNL     1       2.020  13.004  23.705  0.00  0.00     0.002 A 
HETATM   12  C   UNL     1       1.102  13.642  22.855  0.00  0.00     0.016 A 
HETATM   13  C   UNL     1      -0.300  13.526  23.027  0.00  0.00     0.022 A 
ENDROOT
BRANCH   1  14
HETATM   14  N   UNL     1      -0.191   9.822  25.805  0.00  0.00    -0.344 N 
HETATM   15  C   UNL     1       0.103   9.011  26.876  0.00  0.00     0.253 C 
HETATM   16  O   UNL     1       0.148   9.421  28.029  0.00  0.00    -0.268 OA
HETATM   17  H   UNL     1       0.026   9.525  24.865  0.00  0.00     0.163 HD
BRANCH  15  18
HETATM   18  C   UNL     1       0.359   7.583  26.566  0.00  0.00     0.047 A 
HETATM   19  C   UNL     1      -0.619   6.600  26.776  0.00  0.00     0.037 A 
HETATM   20  C   UNL     1      -0.298   5.273  26.533  0.00  0.00     0.120 A 
HETATM   21  N   UNL     1       0.900   4.819  26.108  0.00  0.00    -0.242 NA
HETATM   22  C   UNL     1       1.804   5.798  25.928  0.00  0.00     0.138 A 
HETATM   23  N   UNL     1       3.092   5.584  25.519  0.00  0.00    -0.350 N 
HETATM   24  C   UNL     1       1.630   7.164  26.122  0.00  0.00     0.027 A 
HETATM   25  H   UNL     1       3.473   4.668  25.332  0.00  0.00     0.166 HD
HETATM   26  C   UNL     1       3.751   6.782  25.414  0.00  0.00     0.090 A 
HETATM   27  C   UNL     1       2.872   7.777  25.787  0.00  0.00     0.033 A 
ENDBRANCH  15  18
ENDBRANCH   1  14
BRANCH  13  28
HETATM   28  C   UNL     1      -1.188  14.174  22.051  0.00  0.00     0.140 A 
HETATM   29  N   UNL     1      -2.079  13.573  21.287  0.00  0.00    -0.227 NA
HETATM   30  C   UNL     1      -2.751  14.555  20.611  0.00  0.00     0.103 A 
HETATM   31  C   UNL     1      -3.861  14.475  19.767  0.00  0.00     0.150 A 
HETATM   32  C   UNL     1      -2.183  15.795  20.864  0.00  0.00     0.065 A 
HETATM   33  N   UNL     1      -4.355  15.599  19.183  0.00  0.00    -0.271 NA
HETATM   34  C   UNL     1      -3.744  16.782  19.431  0.00  0.00     0.118 A 
HETATM   35  C   UNL     1      -2.647  16.963  20.267  0.00  0.00     0.051 A 
HETATM   36  N   UNL     1      -1.186  15.528  21.770  0.00  0.00    -0.338 N 
HETATM   37  H   UNL     1      -0.585  16.214  22.202  0.00  0.00     0.167 HD
ENDBRANCH  13  28
TORSDOF 3
ENDMDL
