MODEL 1
REMARK VINA RESULT:    -6.794      0.000      0.000
REMARK INTER + INTRA:          -9.871
REMARK INTER:                  -8.988
REMARK INTRA:                  -0.883
REMARK UNBOUND:                -0.892
REMARK  6 active torsions:
REMARK  status: ('A' for Active; 'I' for Inactive)
REMARK    1  A    between atoms: O_2  and  C_3 
REMARK    2  A    between atoms: C_3  and  C_4 
REMARK    3  A    between atoms: C_11  and  C_15 
REMARK    4  A    between atoms: C_12  and  O_14 
REMARK       I    between atoms: C_15  and  N_17 
REMARK    5  A    between atoms: N_17  and  C_19 
REMARK    6  A    between atoms: C_22  and  N_25 
ROOT
HETATM    1  C   UNL     1       3.775   7.298  22.359  0.00  0.00     0.260 C 
HETATM    2  O   UNL     1       4.032   8.483  22.597  0.00  0.00    -0.267 OA
HETATM    3  N   UNL     1       3.328   6.398  23.356  0.00  0.00    -0.318 N 
HETATM    4  C   UNL     1       3.183   4.952  23.173  0.00  0.00     0.159 C 
ENDROOT
BRANCH   1   5
HETATM    5  C   UNL     1       3.982   6.918  20.927  0.00  0.00     0.066 A 
HETATM    6  C   UNL     1       2.791   6.727  20.184  0.00  0.00     0.035 A 
HETATM    7  C   UNL     1       2.847   6.473  18.795  0.00  0.00     0.022 A 
HETATM    8  C   UNL     1       1.913   6.330  17.728  0.00  0.00     0.090 A 
HETATM    9  C   UNL     1       4.093   6.343  18.198  0.00  0.00     0.065 A 
HETATM   10  N   UNL     1       2.529   6.048  16.570  0.00  0.00    -0.176 NA
HETATM   11  N   UNL     1       3.835   6.080  16.882  0.00  0.00    -0.277 N 
HETATM   12  H   UNL     1       4.507   5.921  16.140  0.00  0.00     0.189 HD
HETATM   13  C   UNL     1       5.293   6.519  18.891  0.00  0.00     0.069 A 
HETATM   14  C   UNL     1       5.203   6.883  20.244  0.00  0.00     0.083 A 
BRANCH   8  15
HETATM   15  C   UNL     1       0.421   6.470  17.780  0.00  0.00     0.228 C 
BRANCH  15  16
HETATM   16  O   UNL     1      -0.167   5.587  18.745  0.00  0.00    -0.390 OA
HETATM   17  C   UNL     1      -0.560   4.356  18.152  0.00  0.00     0.201 C 
ENDBRANCH  15  16
ENDBRANCH   8  15
BRANCH  14  18
HETATM   18  O   UNL     1       6.390   7.287  20.792  0.00  0.00    -0.360 OA
HETATM   19  H   UNL     1       6.250   7.355  21.756  0.00  0.00     0.217 HD
ENDBRANCH  14  18
ENDBRANCH   1   5
BRANCH   3  20
HETATM   20  C   UNL     1       3.009   6.902  24.673  0.00  0.00     0.037 A 
HETATM   21  C   UNL     1       1.809   7.578  24.925  0.00  0.00     0.032 A 
HETATM   22  C   UNL     1       1.496   8.077  26.201  0.00  0.00     0.031 A 
HETATM   23  C   UNL     1       2.367   7.933  27.282  0.00  0.00     0.030 A 
HETATM   24  C   UNL     1       3.553   7.228  27.030  0.00  0.00     0.031 A 
HETATM   25  C   UNL     1       3.867   6.710  25.760  0.00  0.00     0.032 A 
BRANCH  23  26
HETATM   26  N   UNL     1       2.074   8.393  28.550  0.00  0.00    -0.377 N 
HETATM   27  C   UNL     1       0.770   8.974  28.909  0.00  0.00     0.149 C 
HETATM   28  C   UNL     1       0.445   8.568  30.359  0.00  0.00     0.187 C 
HETATM   29  O   UNL     1       1.482   8.964  31.278  0.00  0.00    -0.388 OA
HETATM   30  C   UNL     1       2.741   8.381  30.897  0.00  0.00     0.187 C 
HETATM   31  C   UNL     1       3.146   8.803  29.476  0.00  0.00     0.149 C 
ENDBRANCH  23  26
ENDBRANCH   3  20
TORSDOF 6
ENDMDL
MODEL 2
REMARK VINA RESULT:    -6.452      1.201      1.276
REMARK INTER + INTRA:          -9.419
REMARK INTER:                  -8.597
REMARK INTRA:                  -0.822
REMARK UNBOUND:                -0.892
REMARK  6 active torsions:
REMARK  status: ('A' for Active; 'I' for Inactive)
REMARK    1  A    between atoms: O_2  and  C_3 
REMARK    2  A    between atoms: C_3  and  C_4 
REMARK    3  A    between atoms: C_11  and  C_15 
REMARK    4  A    between atoms: C_12  and  O_14 
REMARK       I    between atoms: C_15  and  N_17 
REMARK    5  A    between atoms: N_17  and  C_19 
REMARK    6  A    between atoms: C_22  and  N_25 
ROOT
HETATM    1  C   UNL     1       3.818   6.872  23.123  0.00  0.00     0.260 C 
HETATM    2  O   UNL     1       3.593   8.071  23.315  0.00  0.00    -0.267 OA
HETATM    3  N   UNL     1       3.713   5.900  24.146  0.00  0.00    -0.318 N 
HETATM    4  C   UNL     1       4.138   4.505  24.022  0.00  0.00     0.159 C 
ENDROOT
BRANCH   1   5
HETATM    5  C   UNL     1       4.207   6.556  21.713  0.00  0.00     0.066 A 
HETATM    6  C   UNL     1       3.175   6.731  20.758  0.00  0.00     0.035 A 
HETATM    7  C   UNL     1       3.442   6.572  19.379  0.00  0.00     0.022 A 
HETATM    8  C   UNL     1       2.731   6.751  18.157  0.00  0.00     0.090 A 
HETATM    9  C   UNL     1       4.715   6.171  18.995  0.00  0.00     0.065 A 
HETATM   10  N   UNL     1       3.479   6.404  17.097  0.00  0.00    -0.176 NA
HETATM   11  N   UNL     1       4.667   6.079  17.632  0.00  0.00    -0.277 N 
HETATM   12  H   UNL     1       5.414   5.806  17.004  0.00  0.00     0.189 HD
HETATM   13  C   UNL     1       5.760   5.982  19.902  0.00  0.00     0.069 A 
HETATM   14  C   UNL     1       5.495   6.259  21.252  0.00  0.00     0.083 A 
BRANCH   8  15
HETATM   15  C   UNL     1       1.336   7.264  17.967  0.00  0.00     0.228 C 
BRANCH  15  16
HETATM   16  O   UNL     1       0.417   6.213  17.637  0.00  0.00    -0.390 OA
HETATM   17  C   UNL     1       0.044   5.468  18.788  0.00  0.00     0.201 C 
ENDBRANCH  15  16
ENDBRANCH   8  15
BRANCH  14  18
HETATM   18  O   UNL     1       6.612   6.304  22.042  0.00  0.00    -0.360 OA
HETATM   19  H   UNL     1       6.347   5.992  22.928  0.00  0.00     0.217 HD
ENDBRANCH  14  18
ENDBRANCH   1   5
BRANCH   3  20
HETATM   20  C   UNL     1       3.177   6.284  25.434  0.00  0.00     0.037 A 
HETATM   21  C   UNL     1       1.804   6.233  25.697  0.00  0.00     0.032 A 
HETATM   22  C   UNL     1       1.276   6.612  26.943  0.00  0.00     0.031 A 
HETATM   23  C   UNL     1       2.091   7.066  27.982  0.00  0.00     0.030 A 
HETATM   24  C   UNL     1       3.469   7.084  27.721  0.00  0.00     0.031 A 
HETATM   25  C   UNL     1       4.008   6.691  26.482  0.00  0.00     0.032 A 
BRANCH  23  26
HETATM   26  N   UNL     1       1.600   7.421  29.221  0.00  0.00    -0.377 N 
HETATM   27  C   UNL     1       0.478   6.724  29.869  0.00  0.00     0.149 C 
HETATM   28  C   UNL     1       0.737   6.699  31.387  0.00  0.00     0.187 C 
HETATM   29  O   UNL     1       0.931   8.021  31.925  0.00  0.00    -0.388 OA
HETATM   30  C   UNL     1       2.034   8.674  31.271  0.00  0.00     0.187 C 
HETATM   31  C   UNL     1       1.801   8.781  29.756  0.00  0.00     0.149 C 
ENDBRANCH  23  26
ENDBRANCH   3  20
TORSDOF 6
ENDMDL
MODEL 3
REMARK VINA RESULT:    -6.425      4.276      4.912
REMARK INTER + INTRA:          -9.383
REMARK INTER:                  -8.481
REMARK INTRA:                  -0.902
REMARK UNBOUND:                -0.892
REMARK  6 active torsions:
REMARK  status: ('A' for Active; 'I' for Inactive)
REMARK    1  A    between atoms: O_2  and  C_3 
REMARK    2  A    between atoms: C_3  and  C_4 
REMARK    3  A    between atoms: C_11  and  C_15 
REMARK    4  A    between atoms: C_12  and  O_14 
REMARK       I    between atoms: C_15  and  N_17 
REMARK    5  A    between atoms: N_17  and  C_19 
REMARK    6  A    between atoms: C_22  and  N_25 
ROOT
HETATM    1  C   UNL     1       3.576   6.004  21.131  0.00  0.00     0.260 C 
HETATM    2  O   UNL     1       2.718   6.021  22.019  0.00  0.00    -0.267 OA
HETATM    3  N   UNL     1       4.875   5.479  21.334  0.00  0.00    -0.318 N 
HETATM    4  C   UNL     1       5.982   5.595  20.382  0.00  0.00     0.159 C 
ENDROOT
BRANCH   1   5
HETATM    5  C   UNL     1       3.108   6.587  19.835  0.00  0.00     0.066 A 
HETATM    6  C   UNL     1       2.380   5.695  19.010  0.00  0.00     0.035 A 
HETATM    7  C   UNL     1       1.788   6.151  17.811  0.00  0.00     0.022 A 
HETATM    8  C   UNL     1       0.935   5.612  16.805  0.00  0.00     0.090 A 
HETATM    9  C   UNL     1       2.000   7.469  17.430  0.00  0.00     0.065 A 
HETATM   10  N   UNL     1       0.703   6.503  15.828  0.00  0.00    -0.176 NA
HETATM   11  N   UNL     1       1.340   7.610  16.241  0.00  0.00    -0.277 N 
HETATM   12  H   UNL     1       1.279   8.440  15.663  0.00  0.00     0.189 HD
HETATM   13  C   UNL     1       2.714   8.382  18.209  0.00  0.00     0.069 A 
HETATM   14  C   UNL     1       3.192   7.930  19.449  0.00  0.00     0.083 A 
BRANCH   8  15
HETATM   15  C   UNL     1       0.311   4.250  16.754  0.00  0.00     0.228 C 
BRANCH  15  16
HETATM   16  O   UNL     1      -0.970   4.222  17.399  0.00  0.00    -0.390 OA
HETATM   17  C   UNL     1      -0.880   3.685  18.712  0.00  0.00     0.201 C 
ENDBRANCH  15  16
ENDBRANCH   8  15
BRANCH  14  18
HETATM   18  O   UNL     1       3.650   8.927  20.267  0.00  0.00    -0.360 OA
HETATM   19  H   UNL     1       4.620   8.957  20.163  0.00  0.00     0.217 HD
ENDBRANCH  14  18
ENDBRANCH   1   5
BRANCH   3  20
HETATM   20  C   UNL     1       5.177   4.796  22.572  0.00  0.00     0.037 A 
HETATM   21  C   UNL     1       4.911   3.431  22.736  0.00  0.00     0.032 A 
HETATM   22  C   UNL     1       5.195   2.763  23.939  0.00  0.00     0.031 A 
HETATM   23  C   UNL     1       5.749   3.425  25.037  0.00  0.00     0.030 A 
HETATM   24  C   UNL     1       6.041   4.784  24.854  0.00  0.00     0.031 A 
HETATM   25  C   UNL     1       5.777   5.457  23.648  0.00  0.00     0.032 A 
BRANCH  23  26
HETATM   26  N   UNL     1       6.059   2.787  26.221  0.00  0.00    -0.377 N 
HETATM   27  C   UNL     1       6.264   1.333  26.318  0.00  0.00     0.149 C 
HETATM   28  C   UNL     1       7.363   1.069  27.364  0.00  0.00     0.187 C 
HETATM   29  O   UNL     1       7.047   1.654  28.641  0.00  0.00    -0.388 OA
HETATM   30  C   UNL     1       6.853   3.074  28.510  0.00  0.00     0.187 C 
HETATM   31  C   UNL     1       5.722   3.395  27.521  0.00  0.00     0.149 C 
ENDBRANCH  23  26
ENDBRANCH   3  20
TORSDOF 6
ENDMDL
MODEL 4
REMARK VINA RESULT:    -6.219      3.060      5.131
REMARK INTER + INTRA:          -9.110
REMARK INTER:                  -8.200
REMARK INTRA:                  -0.910
REMARK UNBOUND:                -0.892
REMARK  6 active torsions:
REMARK  status: ('A' for Active; 'I' for Inactive)
REMARK    1  A    between atoms: O_2  and  C_3 
REMARK    2  A    between atoms: C_3  and  C_4 
REMARK    3  A    between atoms: C_11  and  C_15 
REMARK    4  A    between atoms: C_12  and  O_14 
REMARK       I    between atoms: C_15  and  N_17 
REMARK    5  A    between atoms: N_17  and  C_19 
REMARK    6  A    between atoms: C_22  and  N_25 
ROOT
HETATM    1  C   UNL     1       2.193   5.674  18.850  0.00  0.00     0.260 C 
HETATM    2  O   UNL     1       1.231   5.469  19.597  0.00  0.00    -0.267 OA
HETATM    3  N   UNL     1       3.490   5.966  19.336  0.00  0.00    -0.318 N 
HETATM    4  C   UNL     1       4.618   6.392  18.505  0.00  0.00     0.159 C 
ENDROOT
BRANCH   1   5
HETATM    5  C   UNL     1       1.852   5.581  17.396  0.00  0.00     0.066 A 
HETATM    6  C   UNL     1       1.758   4.261  16.890  0.00  0.00     0.035 A 
HETATM    7  C   UNL     1       1.335   4.032  15.562  0.00  0.00     0.022 A 
HETATM    8  C   UNL     1       1.032   2.901  14.749  0.00  0.00     0.090 A 
HETATM    9  C   UNL     1       1.087   5.131  14.750  0.00  0.00     0.065 A 
HETATM   10  N   UNL     1       0.701   3.267  13.500  0.00  0.00    -0.176 NA
HETATM   11  N   UNL     1       0.727   4.609  13.539  0.00  0.00    -0.277 N 
HETATM   12  H   UNL     1       0.478   5.115  12.697  0.00  0.00     0.189 HD
HETATM   13  C   UNL     1       1.170   6.449  15.204  0.00  0.00     0.069 A 
HETATM   14  C   UNL     1       1.481   6.640  16.559  0.00  0.00     0.083 A 
BRANCH   8  15
HETATM   15  C   UNL     1       1.035   1.454  15.141  0.00  0.00     0.228 C 
BRANCH  15  16
HETATM   16  O   UNL     1       2.256   0.801  14.770  0.00  0.00    -0.390 OA
HETATM   17  C   UNL     1       3.201   0.821  15.833  0.00  0.00     0.201 C 
ENDBRANCH  15  16
ENDBRANCH   8  15
BRANCH  14  18
HETATM   18  O   UNL     1       1.296   7.923  16.998  0.00  0.00    -0.360 OA
HETATM   19  H   UNL     1       1.749   8.510  16.362  0.00  0.00     0.217 HD
ENDBRANCH  14  18
ENDBRANCH   1   5
BRANCH   3  20
HETATM   20  C   UNL     1       3.750   5.877  20.755  0.00  0.00     0.037 A 
HETATM   21  C   UNL     1       4.067   4.657  21.364  0.00  0.00     0.032 A 
HETATM   22  C   UNL     1       4.314   4.562  22.744  0.00  0.00     0.031 A 
HETATM   23  C   UNL     1       4.248   5.676  23.583  0.00  0.00     0.030 A 
HETATM   24  C   UNL     1       3.961   6.899  22.961  0.00  0.00     0.031 A 
HETATM   25  C   UNL     1       3.730   7.007  21.578  0.00  0.00     0.032 A 
BRANCH  23  26
HETATM   26  N   UNL     1       4.508   5.613  24.937  0.00  0.00    -0.377 N 
HETATM   27  C   UNL     1       4.535   6.802  25.804  0.00  0.00     0.149 C 
HETATM   28  C   UNL     1       3.975   6.405  27.183  0.00  0.00     0.187 C 
HETATM   29  O   UNL     1       4.696   5.300  27.763  0.00  0.00    -0.388 OA
HETATM   30  C   UNL     1       4.651   4.157  26.890  0.00  0.00     0.187 C 
HETATM   31  C   UNL     1       5.254   4.479  25.514  0.00  0.00     0.149 C 
ENDBRANCH  23  26
ENDBRANCH   3  20
TORSDOF 6
ENDMDL
MODEL 5
REMARK VINA RESULT:    -6.183      2.483      9.994
REMARK INTER + INTRA:          -9.063
REMARK INTER:                  -8.891
REMARK INTRA:                  -0.172
REMARK UNBOUND:                -0.892
REMARK  6 active torsions:
REMARK  status: ('A' for Active; 'I' for Inactive)
REMARK    1  A    between atoms: O_2  and  C_3 
REMARK    2  A    between atoms: C_3  and  C_4 
REMARK    3  A    between atoms: C_11  and  C_15 
REMARK    4  A    between atoms: C_12  and  O_14 
REMARK       I    between atoms: C_15  and  N_17 
REMARK    5  A    between atoms: N_17  and  C_19 
REMARK    6  A    between atoms: C_22  and  N_25 
ROOT
HETATM    1  C   UNL     1       1.354   7.818  26.012  0.00  0.00     0.260 C 
HETATM    2  O   UNL     1       0.461   8.009  25.181  0.00  0.00    -0.267 OA
HETATM    3  N   UNL     1       2.640   7.345  25.657  0.00  0.00    -0.318 N 
HETATM    4  C   UNL     1       3.672   6.931  26.609  0.00  0.00     0.159 C 
ENDROOT
BRANCH   1   5
HETATM    5  C   UNL     1       0.943   8.135  27.415  0.00  0.00     0.066 A 
HETATM    6  C   UNL     1       1.602   7.377  28.414  0.00  0.00     0.035 A 
HETATM    7  C   UNL     1       1.386   7.654  29.782  0.00  0.00     0.022 A 
HETATM    8  C   UNL     1       1.911   7.202  31.028  0.00  0.00     0.090 A 
HETATM    9  C   UNL     1       0.461   8.634  30.119  0.00  0.00     0.065 A 
HETATM   10  N   UNL     1       1.297   7.796  32.064  0.00  0.00    -0.176 NA
HETATM   11  N   UNL     1       0.447   8.660  31.485  0.00  0.00    -0.277 N 
HETATM   12  H   UNL     1      -0.115   9.251  32.087  0.00  0.00     0.189 HD
HETATM   13  C   UNL     1      -0.215   9.403  29.169  0.00  0.00     0.069 A 
HETATM   14  C   UNL     1       0.107   9.182  27.820  0.00  0.00     0.083 A 
BRANCH   8  15
HETATM   15  C   UNL     1       3.011   6.212  31.263  0.00  0.00     0.228 C 
BRANCH  15  16
HETATM   16  O   UNL     1       2.613   4.877  30.921  0.00  0.00    -0.390 OA
HETATM   17  C   UNL     1       3.481   4.308  29.950  0.00  0.00     0.201 C 
ENDBRANCH  15  16
ENDBRANCH   8  15
BRANCH  14  18
HETATM   18  O   UNL     1      -0.389  10.130  26.967  0.00  0.00    -0.360 OA
HETATM   19  H   UNL     1      -0.667   9.665  26.155  0.00  0.00     0.217 HD
ENDBRANCH  14  18
ENDBRANCH   1   5
BRANCH   3  20
HETATM   20  C   UNL     1       2.986   7.220  24.258  0.00  0.00     0.037 A 
HETATM   21  C   UNL     1       2.747   6.037  23.550  0.00  0.00     0.032 A 
HETATM   22  C   UNL     1       3.088   5.907  22.193  0.00  0.00     0.031 A 
HETATM   23  C   UNL     1       3.690   6.946  21.481  0.00  0.00     0.030 A 
HETATM   24  C   UNL     1       3.898   8.138  22.189  0.00  0.00     0.031 A 
HETATM   25  C   UNL     1       3.544   8.284  23.543  0.00  0.00     0.032 A 
BRANCH  23  26
HETATM   26  N   UNL     1       4.014   6.851  20.143  0.00  0.00    -0.377 N 
HETATM   27  C   UNL     1       5.103   5.999  19.640  0.00  0.00     0.149 C 
HETATM   28  C   UNL     1       4.678   5.431  18.272  0.00  0.00     0.187 C 
HETATM   29  O   UNL     1       4.334   6.471  17.337  0.00  0.00    -0.388 OA
HETATM   30  C   UNL     1       3.268   7.284  17.860  0.00  0.00     0.187 C 
HETATM   31  C   UNL     1       3.661   7.928  19.199  0.00  0.00     0.149 C 
ENDBRANCH  23  26
ENDBRANCH   3  20
TORSDOF 6
ENDMDL
MODEL 6
REMARK VINA RESULT:    -6.097      2.569      3.105
REMARK INTER + INTRA:          -8.950
REMARK INTER:                  -8.199
REMARK INTRA:                  -0.751
REMARK UNBOUND:                -0.892
REMARK  6 active torsions:
REMARK  status: ('A' for Active; 'I' for Inactive)
REMARK    1  A    between atoms: O_2  and  C_3 
REMARK    2  A    between atoms: C_3  and  C_4 
REMARK    3  A    between atoms: C_11  and  C_15 
REMARK    4  A    between atoms: C_12  and  O_14 
REMARK       I    between atoms: C_15  and  N_17 
REMARK    5  A    between atoms: N_17  and  C_19 
REMARK    6  A    between atoms: C_22  and  N_25 
ROOT
HETATM    1  C   UNL     1       4.263   7.477  24.288  0.00  0.00     0.260 C 
HETATM    2  O   UNL     1       5.314   7.583  24.928  0.00  0.00    -0.267 OA
HETATM    3  N   UNL     1       3.008   7.267  24.908  0.00  0.00    -0.318 N 
HETATM    4  C   UNL     1       1.766   6.956  24.198  0.00  0.00     0.159 C 
ENDROOT
BRANCH   1   5
HETATM    5  C   UNL     1       4.450   7.594  22.808  0.00  0.00     0.066 A 
HETATM    6  C   UNL     1       4.696   6.368  22.141  0.00  0.00     0.035 A 
HETATM    7  C   UNL     1       4.781   6.325  20.732  0.00  0.00     0.022 A 
HETATM    8  C   UNL     1       4.913   5.320  19.730  0.00  0.00     0.090 A 
HETATM    9  C   UNL     1       4.691   7.519  20.028  0.00  0.00     0.065 A 
HETATM   10  N   UNL     1       4.984   5.856  18.501  0.00  0.00    -0.176 NA
HETATM   11  N   UNL     1       4.831   7.173  18.713  0.00  0.00    -0.277 N 
HETATM   12  H   UNL     1       4.823   7.788  17.908  0.00  0.00     0.189 HD
HETATM   13  C   UNL     1       4.453   8.750  20.643  0.00  0.00     0.069 A 
HETATM   14  C   UNL     1       4.259   8.744  22.033  0.00  0.00     0.083 A 
BRANCH   8  15
HETATM   15  C   UNL     1       4.959   3.833  19.914  0.00  0.00     0.228 C 
BRANCH  15  16
HETATM   16  O   UNL     1       4.670   3.132  18.696  0.00  0.00    -0.390 OA
HETATM   17  C   UNL     1       5.321   1.869  18.655  0.00  0.00     0.201 C 
ENDBRANCH  15  16
ENDBRANCH   8  15
BRANCH  14  18
HETATM   18  O   UNL     1       3.780   9.924  22.534  0.00  0.00    -0.360 OA
HETATM   19  H   UNL     1       4.217  10.642  22.038  0.00  0.00     0.217 HD
ENDBRANCH  14  18
ENDBRANCH   1   5
BRANCH   3  20
HETATM   20  C   UNL     1       2.913   7.328  26.350  0.00  0.00     0.037 A 
HETATM   21  C   UNL     1       2.475   8.485  27.004  0.00  0.00     0.032 A 
HETATM   22  C   UNL     1       2.387   8.553  28.405  0.00  0.00     0.031 A 
HETATM   23  C   UNL     1       2.738   7.475  29.219  0.00  0.00     0.030 A 
HETATM   24  C   UNL     1       3.146   6.308  28.555  0.00  0.00     0.031 A 
HETATM   25  C   UNL     1       3.220   6.225  27.152  0.00  0.00     0.032 A 
BRANCH  23  26
HETATM   26  N   UNL     1       2.638   7.508  30.594  0.00  0.00    -0.377 N 
HETATM   27  C   UNL     1       2.193   8.698  31.337  0.00  0.00     0.149 C 
HETATM   28  C   UNL     1       1.382   8.228  32.559  0.00  0.00     0.187 C 
HETATM   29  O   UNL     1       2.132   7.324  33.392  0.00  0.00    -0.388 OA
HETATM   30  C   UNL     1       2.552   6.174  32.636  0.00  0.00     0.187 C 
HETATM   31  C   UNL     1       3.419   6.581  31.435  0.00  0.00     0.149 C 
ENDBRANCH  23  26
ENDBRANCH   3  20
TORSDOF 6
ENDMDL
MODEL 7
REMARK VINA RESULT:    -6.056      3.789      9.041
REMARK INTER + INTRA:          -8.895
REMARK INTER:                  -8.132
REMARK INTRA:                  -0.763
REMARK UNBOUND:                -0.892
REMARK  6 active torsions:
REMARK  status: ('A' for Active; 'I' for Inactive)
REMARK    1  A    between atoms: O_2  and  C_3 
REMARK    2  A    between atoms: C_3  and  C_4 
REMARK    3  A    between atoms: C_11  and  C_15 
REMARK    4  A    between atoms: C_12  and  O_14 
REMARK       I    between atoms: C_15  and  N_17 
REMARK    5  A    between atoms: N_17  and  C_19 
REMARK    6  A    between atoms: C_22  and  N_25 
ROOT
HETATM    1  C   UNL     1       2.023   6.482  25.102  0.00  0.00     0.260 C 
HETATM    2  O   UNL     1       1.753   5.334  25.471  0.00  0.00    -0.267 OA
HETATM    3  N   UNL     1       2.818   6.751  23.962  0.00  0.00    -0.318 N 
HETATM    4  C   UNL     1       3.316   8.075  23.584  0.00  0.00     0.159 C 
ENDROOT
BRANCH   1   5
HETATM    5  C   UNL     1       1.431   7.544  25.973  0.00  0.00     0.066 A 
HETATM    6  C   UNL     1       0.466   8.364  25.338  0.00  0.00     0.035 A 
HETATM    7  C   UNL     1      -0.248   9.333  26.079  0.00  0.00     0.022 A 
HETATM    8  C   UNL     1      -1.319  10.242  25.837  0.00  0.00     0.090 A 
HETATM    9  C   UNL     1       0.072   9.508  27.419  0.00  0.00     0.065 A 
HETATM   10  N   UNL     1      -1.587  10.986  26.922  0.00  0.00    -0.176 NA
HETATM   11  N   UNL     1      -0.749  10.509  27.857  0.00  0.00    -0.277 N 
HETATM   12  H   UNL     1      -0.793  10.910  28.786  0.00  0.00     0.189 HD
HETATM   13  C   UNL     1       1.018   8.726  28.084  0.00  0.00     0.069 A 
HETATM   14  C   UNL     1       1.628   7.696  27.351  0.00  0.00     0.083 A 
BRANCH   8  15
HETATM   15  C   UNL     1      -2.118  10.416  24.581  0.00  0.00     0.228 C 
BRANCH  15  16
HETATM   16  O   UNL     1      -2.744  11.705  24.518  0.00  0.00    -0.390 OA
HETATM   17  C   UNL     1      -2.539  12.322  23.253  0.00  0.00     0.201 C 
ENDBRANCH  15  16
ENDBRANCH   8  15
BRANCH  14  18
HETATM   18  O   UNL     1       2.343   6.814  28.116  0.00  0.00    -0.360 OA
HETATM   19  H   UNL     1       3.011   6.408  27.533  0.00  0.00     0.217 HD
ENDBRANCH  14  18
ENDBRANCH   1   5
BRANCH   3  20
HETATM   20  C   UNL     1       3.210   5.660  23.099  0.00  0.00     0.037 A 
HETATM   21  C   UNL     1       2.426   5.278  22.004  0.00  0.00     0.032 A 
HETATM   22  C   UNL     1       2.797   4.214  21.165  0.00  0.00     0.031 A 
HETATM   23  C   UNL     1       3.962   3.475  21.383  0.00  0.00     0.030 A 
HETATM   24  C   UNL     1       4.758   3.883  22.463  0.00  0.00     0.031 A 
HETATM   25  C   UNL     1       4.403   4.959  23.298  0.00  0.00     0.032 A 
BRANCH  23  26
HETATM   26  N   UNL     1       4.360   2.441  20.561  0.00  0.00    -0.377 N 
HETATM   27  C   UNL     1       4.625   1.080  21.056  0.00  0.00     0.149 C 
HETATM   28  C   UNL     1       4.177   0.079  19.975  0.00  0.00     0.187 C 
HETATM   29  O   UNL     1       4.819   0.325  18.709  0.00  0.00    -0.388 OA
HETATM   30  C   UNL     1       4.541   1.662  18.255  0.00  0.00     0.187 C 
HETATM   31  C   UNL     1       5.023   2.709  19.271  0.00  0.00     0.149 C 
ENDBRANCH  23  26
ENDBRANCH   3  20
TORSDOF 6
ENDMDL
MODEL 8
REMARK VINA RESULT:    -6.011      2.624      9.686
REMARK INTER + INTRA:          -8.836
REMARK INTER:                  -7.944
REMARK INTRA:                  -0.892
REMARK UNBOUND:                -0.892
REMARK  6 active torsions:
REMARK  status: ('A' for Active; 'I' for Inactive)
REMARK    1  A    between atoms: O_2  and  C_3 
REMARK    2  A    between atoms: C_3  and  C_4 
REMARK    3  A    between atoms: C_11  and  C_15 
REMARK    4  A    between atoms: C_12  and  O_14 
REMARK       I    between atoms: C_15  and  N_17 
REMARK    5  A    between atoms: N_17  and  C_19 
REMARK    6  A    between atoms: C_22  and  N_25 
ROOT
HETATM    1  C   UNL     1       3.807   5.615  25.026  0.00  0.00     0.260 C 
HETATM    2  O   UNL     1       2.604   5.820  24.833  0.00  0.00    -0.267 OA
HETATM    3  N   UNL     1       4.757   5.591  23.978  0.00  0.00    -0.318 N 
HETATM    4  C   UNL     1       6.154   5.177  24.124  0.00  0.00     0.159 C 
ENDROOT
BRANCH   1   5
HETATM    5  C   UNL     1       4.151   5.396  26.466  0.00  0.00     0.066 A 
HETATM    6  C   UNL     1       4.136   6.565  27.266  0.00  0.00     0.035 A 
HETATM    7  C   UNL     1       4.335   6.479  28.662  0.00  0.00     0.022 A 
HETATM    8  C   UNL     1       4.296   7.372  29.772  0.00  0.00     0.090 A 
HETATM    9  C   UNL     1       4.617   5.236  29.213  0.00  0.00     0.065 A 
HETATM   10  N   UNL     1       4.614   6.747  30.917  0.00  0.00    -0.176 NA
HETATM   11  N   UNL     1       4.783   5.466  30.551  0.00  0.00    -0.277 N 
HETATM   12  H   UNL     1       5.006   4.789  31.271  0.00  0.00     0.189 HD
HETATM   13  C   UNL     1       4.647   4.059  28.464  0.00  0.00     0.069 A 
HETATM   14  C   UNL     1       4.332   4.160  27.099  0.00  0.00     0.083 A 
BRANCH   8  15
HETATM   15  C   UNL     1       3.945   8.829  29.775  0.00  0.00     0.228 C 
BRANCH  15  16
HETATM   16  O   UNL     1       2.638   9.067  29.235  0.00  0.00    -0.390 OA
HETATM   17  C   UNL     1       1.619   8.639  30.131  0.00  0.00     0.201 C 
ENDBRANCH  15  16
ENDBRANCH   8  15
BRANCH  14  18
HETATM   18  O   UNL     1       4.127   2.956  26.483  0.00  0.00    -0.360 OA
HETATM   19  H   UNL     1       3.851   3.147  25.567  0.00  0.00     0.217 HD
ENDBRANCH  14  18
ENDBRANCH   1   5
BRANCH   3  20
HETATM   20  C   UNL     1       4.348   5.971  22.644  0.00  0.00     0.037 A 
HETATM   21  C   UNL     1       4.298   7.313  22.250  0.00  0.00     0.032 A 
HETATM   22  C   UNL     1       3.894   7.689  20.958  0.00  0.00     0.031 A 
HETATM   23  C   UNL     1       3.515   6.746  20.001  0.00  0.00     0.030 A 
HETATM   24  C   UNL     1       3.598   5.402  20.392  0.00  0.00     0.031 A 
HETATM   25  C   UNL     1       4.017   5.015  21.678  0.00  0.00     0.032 A 
BRANCH  23  26
HETATM   26  N   UNL     1       3.137   7.088  18.718  0.00  0.00    -0.377 N 
HETATM   27  C   UNL     1       3.540   6.317  17.531  0.00  0.00     0.149 C 
HETATM   28  C   UNL     1       2.379   6.347  16.520  0.00  0.00     0.187 C 
HETATM   29  O   UNL     1       1.991   7.691  16.180  0.00  0.00    -0.388 OA
HETATM   30  C   UNL     1       1.604   8.417  17.362  0.00  0.00     0.187 C 
HETATM   31  C   UNL     1       2.750   8.471  18.384  0.00  0.00     0.149 C 
ENDBRANCH  23  26
ENDBRANCH   3  20
TORSDOF 6
ENDMDL
MODEL 9
REMARK VINA RESULT:    -5.994      3.567     10.576
REMARK INTER + INTRA:          -8.814
REMARK INTER:                  -8.010
REMARK INTRA:                  -0.804
REMARK UNBOUND:                -0.892
REMARK  6 active torsions:
REMARK  status: ('A' for Active; 'I' for Inactive)
REMARK    1  A    between atoms: O_2  and  C_3 
REMARK    2  A    between atoms: C_3  and  C_4 
REMARK    3  A    between atoms: C_11  and  C_15 
REMARK    4  A    between atoms: C_12  and  O_14 
REMARK       I    between atoms: C_15  and  N_17 
REMARK    5  A    between atoms: N_17  and  C_19 
REMARK    6  A    between atoms: C_22  and  N_25 
ROOT
HETATM    1  C   UNL     1       2.237   5.327  18.260  0.00  0.00     0.260 C 
HETATM    2  O   UNL     1       1.328   6.154  18.136  0.00  0.00    -0.267 OA
HETATM    3  N   UNL     1       2.176   4.033  17.692  0.00  0.00    -0.318 N 
HETATM    4  C   UNL     1       3.134   2.957  17.955  0.00  0.00     0.159 C 
ENDROOT
BRANCH   1   5
HETATM    5  C   UNL     1       3.397   5.829  19.062  0.00  0.00     0.066 A 
HETATM    6  C   UNL     1       3.227   5.749  20.466  0.00  0.00     0.035 A 
HETATM    7  C   UNL     1       4.289   6.088  21.335  0.00  0.00     0.022 A 
HETATM    8  C   UNL     1       4.534   6.047  22.738  0.00  0.00     0.090 A 
HETATM    9  C   UNL     1       5.469   6.567  20.781  0.00  0.00     0.065 A 
HETATM   10  N   UNL     1       5.745   6.544  23.041  0.00  0.00    -0.176 NA
HETATM   11  N   UNL     1       6.285   6.829  21.845  0.00  0.00    -0.277 N 
HETATM   12  H   UNL     1       7.229   7.198  21.824  0.00  0.00     0.189 HD
HETATM   13  C   UNL     1       5.678   6.666  19.404  0.00  0.00     0.069 A 
HETATM   14  C   UNL     1       4.647   6.214  18.565  0.00  0.00     0.083 A 
BRANCH   8  15
HETATM   15  C   UNL     1       3.636   5.527  23.819  0.00  0.00     0.228 C 
BRANCH  15  16
HETATM   16  O   UNL     1       2.370   6.202  23.837  0.00  0.00    -0.390 OA
HETATM   17  C   UNL     1       2.016   6.608  25.152  0.00  0.00     0.201 C 
ENDBRANCH  15  16
ENDBRANCH   8  15
BRANCH  14  18
HETATM   18  O   UNL     1       5.009   6.098  17.250  0.00  0.00    -0.360 OA
HETATM   19  H   UNL     1       5.900   5.699  17.234  0.00  0.00     0.217 HD
ENDBRANCH  14  18
ENDBRANCH   1   5
BRANCH   3  20
HETATM   20  C   UNL     1       1.084   3.701  16.803  0.00  0.00     0.037 A 
HETATM   21  C   UNL     1       1.116   4.047  15.447  0.00  0.00     0.032 A 
HETATM   22  C   UNL     1       0.056   3.735  14.580  0.00  0.00     0.031 A 
HETATM   23  C   UNL     1      -1.089   3.070  15.024  0.00  0.00     0.030 A 
HETATM   24  C   UNL     1      -1.100   2.699  16.377  0.00  0.00     0.031 A 
HETATM   25  C   UNL     1      -0.035   2.992  17.249  0.00  0.00     0.032 A 
BRANCH  23  26
HETATM   26  N   UNL     1      -2.133   2.732  14.189  0.00  0.00    -0.377 N 
HETATM   27  C   UNL     1      -2.493   1.339  13.880  0.00  0.00     0.149 C 
HETATM   28  C   UNL     1      -4.025   1.257  13.737  0.00  0.00     0.187 C 
HETATM   29  O   UNL     1      -4.527   2.174  12.746  0.00  0.00    -0.388 OA
HETATM   30  C   UNL     1      -4.156   3.525  13.078  0.00  0.00     0.187 C 
HETATM   31  C   UNL     1      -2.631   3.679  13.173  0.00  0.00     0.149 C 
ENDBRANCH  23  26
ENDBRANCH   3  20
TORSDOF 6
ENDMDL
