REMARK  6 active torsions:
REMARK  status: ('A' for Active; 'I' for Inactive)
REMARK    1  A    between atoms: O_2  and  C_3 
REMARK    2  A    between atoms: C_3  and  C_4 
REMARK    3  A    between atoms: C_11  and  C_15 
REMARK    4  A    between atoms: C_12  and  O_14 
REMARK       I    between atoms: C_15  and  N_17 
REMARK    5  A    between atoms: N_17  and  C_19 
REMARK    6  A    between atoms: C_22  and  N_25 
ROOT
HETATM    1  C   UNL     1       5.909  -3.505   0.137  0.00  0.00     0.260 C 
HETATM    2  O   UNL     1       4.820  -3.703   0.685  0.00  0.00    -0.267 OA
HETATM    3  N   UNL     1       6.825  -4.547  -0.142  0.00  0.00    -0.318 N 
HETATM    4  C   UNL     1       8.195  -4.351  -0.621  0.00  0.00     0.159 C 
ENDROOT
BRANCH   1   5
HETATM    5  C   UNL     1       6.157  -2.068  -0.198  0.00  0.00     0.066 A 
HETATM    6  C   UNL     1       5.023  -1.363  -0.671  0.00  0.00     0.035 A 
HETATM    7  C   UNL     1       5.096   0.026  -0.918  0.00  0.00     0.022 A 
HETATM    8  C   UNL     1       4.191   1.063  -1.288  0.00  0.00     0.090 A 
HETATM    9  C   UNL     1       6.320   0.662  -0.756  0.00  0.00     0.065 A 
HETATM   10  N   UNL     1       4.822   2.240  -1.428  0.00  0.00    -0.176 NA
HETATM   11  N   UNL     1       6.092   1.969  -1.085  0.00  0.00    -0.277 N 
HETATM   12  H   UNL     1       6.760   2.731  -1.089  0.00  0.00     0.189 HD
HETATM   13  C   UNL     1       7.464   0.007  -0.296  0.00  0.00     0.069 A 
HETATM   14  C   UNL     1       7.331  -1.347   0.050  0.00  0.00     0.083 A 
BRANCH   8  15
HETATM   15  C   UNL     1       2.711   0.965  -1.503  0.00  0.00     0.228 C 
BRANCH  15  16
HETATM   16  O   UNL     1       2.030   0.484  -0.336  0.00  0.00    -0.390 OA
HETATM   17  C   UNL     1       0.621   0.466  -0.526  0.00  0.00     0.201 C 
ENDBRANCH  15  16
ENDBRANCH   8  15
BRANCH  14  18
HETATM   18  O   UNL     1       8.405  -1.857   0.728  0.00  0.00    -0.360 OA
HETATM   19  H   UNL     1       8.050  -2.388   1.466  0.00  0.00     0.217 HD
ENDBRANCH  14  18
ENDBRANCH   1   5
BRANCH   3  20
HETATM   20  C   UNL     1       6.424  -5.919   0.077  0.00  0.00     0.037 A 
HETATM   21  C   UNL     1       5.112  -6.343  -0.164  0.00  0.00     0.032 A 
HETATM   22  C   UNL     1       4.714  -7.673   0.054  0.00  0.00     0.031 A 
HETATM   23  C   UNL     1       5.602  -8.640   0.529  0.00  0.00     0.030 A 
HETATM   24  C   UNL     1       6.922  -8.215   0.738  0.00  0.00     0.031 A 
HETATM   25  C   UNL     1       7.334  -6.890   0.506  0.00  0.00     0.032 A 
BRANCH  23  26
HETATM   26  N   UNL     1       5.242  -9.957   0.729  0.00  0.00    -0.377 N 
HETATM   27  C   UNL     1       4.056 -10.567   0.107  0.00  0.00     0.149 C 
HETATM   28  C   UNL     1       4.387 -12.034  -0.226  0.00  0.00     0.187 C 
HETATM   29  O   UNL     1       4.823 -12.768   0.934  0.00  0.00    -0.388 OA
HETATM   30  C   UNL     1       5.982 -12.145   1.517  0.00  0.00     0.187 C 
HETATM   31  C   UNL     1       5.690 -10.693   1.926  0.00  0.00     0.149 C 
ENDBRANCH  23  26
ENDBRANCH   3  20
TORSDOF 6
