MODEL 1
REMARK VINA RESULT:    -7.954      0.000      0.000
REMARK INTER + INTRA:         -12.487
REMARK INTER:                 -10.290
REMARK INTRA:                  -2.197
REMARK UNBOUND:                -1.743
REMARK  7 active torsions:
REMARK  status: ('A' for Active; 'I' for Inactive)
REMARK    1  A    between atoms: C_7  and  N_8 
REMARK    2  A    between atoms: C_14  and  C_15 
REMARK    3  A    between atoms: C_16  and  O_17 
REMARK    4  A    between atoms: C_19  and  O_20 
REMARK    5  A    between atoms: C_22  and  S_23 
REMARK    6  A    between atoms: S_23  and  N_26 
REMARK    7  A    between atoms: N_26  and  C_28 
ROOT
HETATM    1  C   UNL     1      -1.931  13.225  25.534  0.00  0.00     0.047 A 
HETATM    2  C   UNL     1      -1.935  14.029  26.690  0.00  0.00     0.082 A 
HETATM    3  C   UNL     1      -0.926  14.959  26.933  0.00  0.00     0.075 A 
HETATM    4  C   UNL     1       0.109  15.116  26.016  0.00  0.00     0.091 A 
HETATM    5  C   UNL     1      -0.893  13.406  24.605  0.00  0.00     0.046 A 
HETATM    6  C   UNL     1       0.134  14.346  24.848  0.00  0.00     0.108 A 
ENDROOT
BRANCH   1   7
HETATM    7  C   UNL     1      -3.067  12.286  25.326  0.00  0.00     0.172 A 
HETATM    8  N   UNL     1      -3.879  12.222  24.230  0.00  0.00    -0.243 N 
HETATM    9  C   UNL     1      -4.795  11.218  24.504  0.00  0.00     0.349 A 
HETATM   10  O   UNL     1      -5.643  10.717  23.784  0.00  0.00    -0.245 OA
HETATM   11  N   UNL     1      -4.498  10.794  25.793  0.00  0.00    -0.226 N 
HETATM   12  H   UNL     1      -4.966  10.042  26.280  0.00  0.00     0.194 HD
HETATM   13  N   UNL     1      -3.408  11.447  26.277  0.00  0.00    -0.151 NA
BRANCH   8  14
HETATM   14  C   UNL     1      -3.783  12.772  22.942  0.00  0.00     0.067 A 
HETATM   15  C   UNL     1      -2.828  12.278  22.034  0.00  0.00     0.061 A 
HETATM   16 CL   UNL     1      -1.978  10.796  22.326  0.00  0.00    -0.082 Cl
HETATM   17  C   UNL     1      -2.608  12.920  20.816  0.00  0.00     0.026 A 
HETATM   18  C   UNL     1      -3.342  14.059  20.490  0.00  0.00     0.002 A 
HETATM   19  C   UNL     1      -4.318  14.536  21.368  0.00  0.00     0.002 A 
HETATM   20  C   UNL     1      -4.547  13.893  22.590  0.00  0.00     0.032 A 
ENDBRANCH   8  14
ENDBRANCH   1   7
BRANCH   2  21
HETATM   21  O   UNL     1      -2.911  13.976  27.654  0.00  0.00    -0.360 OA
HETATM   22  H   UNL     1      -2.882  13.093  28.076  0.00  0.00     0.217 HD
ENDBRANCH   2  21
BRANCH   6  23
HETATM   23  S   UNL     1       1.526  14.376  23.726  0.00  0.00     0.246 S 
HETATM   24  O   UNL     1       2.770  14.413  24.465  0.00  0.00    -0.206 OA
HETATM   25  O   UNL     1       1.273  13.313  22.779  0.00  0.00    -0.206 OA
BRANCH  23  26
HETATM   26  N   UNL     1       1.439  15.888  22.847  0.00  0.00    -0.207 NA
HETATM   27  C   UNL     1       2.764  16.294  22.296  0.00  0.00     0.130 C 
BRANCH  26  28
HETATM   28  C   UNL     1       0.386  15.833  21.726  0.00  0.00     0.065 C 
HETATM   29  C   UNL     1      -0.983  16.367  22.159  0.00  0.00     0.027 C 
HETATM   30  C   UNL     1       0.811  16.642  20.492  0.00  0.00     0.027 C 
ENDBRANCH  26  28
ENDBRANCH  23  26
ENDBRANCH   6  23
BRANCH   4  31
HETATM   31  O   UNL     1       1.063  16.048  26.284  0.00  0.00    -0.359 OA
HETATM   32  H   UNL     1       1.952  15.662  26.199  0.00  0.00     0.217 HD
ENDBRANCH   4  31
TORSDOF 7
ENDMDL
MODEL 2
REMARK VINA RESULT:    -7.847      2.086      5.486
REMARK INTER + INTRA:         -12.342
REMARK INTER:                 -10.721
REMARK INTRA:                  -1.620
REMARK UNBOUND:                -1.743
REMARK  7 active torsions:
REMARK  status: ('A' for Active; 'I' for Inactive)
REMARK    1  A    between atoms: C_7  and  N_8 
REMARK    2  A    between atoms: C_14  and  C_15 
REMARK    3  A    between atoms: C_16  and  O_17 
REMARK    4  A    between atoms: C_19  and  O_20 
REMARK    5  A    between atoms: C_22  and  S_23 
REMARK    6  A    between atoms: S_23  and  N_26 
REMARK    7  A    between atoms: N_26  and  C_28 
ROOT
HETATM    1  C   UNL     1      -0.310  14.200  24.879  0.00  0.00     0.047 A 
HETATM    2  C   UNL     1      -0.075  15.129  25.910  0.00  0.00     0.082 A 
HETATM    3  C   UNL     1      -0.885  15.179  27.043  0.00  0.00     0.075 A 
HETATM    4  C   UNL     1      -1.947  14.290  27.177  0.00  0.00     0.091 A 
HETATM    5  C   UNL     1      -1.371  13.293  25.034  0.00  0.00     0.046 A 
HETATM    6  C   UNL     1      -2.198  13.342  26.179  0.00  0.00     0.108 A 
ENDROOT
BRANCH   1   7
HETATM    7  C   UNL     1       0.627  14.182  23.722  0.00  0.00     0.172 A 
HETATM    8  N   UNL     1       0.301  14.360  22.408  0.00  0.00    -0.243 N 
HETATM    9  C   UNL     1       1.492  14.235  21.709  0.00  0.00     0.349 A 
HETATM   10  O   UNL     1       1.727  14.429  20.528  0.00  0.00    -0.245 OA
HETATM   11  N   UNL     1       2.446  13.923  22.668  0.00  0.00    -0.226 N 
HETATM   12  H   UNL     1       3.434  13.800  22.487  0.00  0.00     0.194 HD
HETATM   13  N   UNL     1       1.900  13.921  23.913  0.00  0.00    -0.151 NA
BRANCH   8  14
HETATM   14  C   UNL     1      -0.857  14.833  21.771  0.00  0.00     0.067 A 
HETATM   15  C   UNL     1      -1.764  13.925  21.192  0.00  0.00     0.061 A 
HETATM   16 CL   UNL     1      -1.676  12.225  21.512  0.00  0.00    -0.082 Cl
HETATM   17  C   UNL     1      -2.827  14.383  20.416  0.00  0.00     0.026 A 
HETATM   18  C   UNL     1      -3.000  15.751  20.213  0.00  0.00     0.002 A 
HETATM   19  C   UNL     1      -2.128  16.661  20.814  0.00  0.00     0.002 A 
HETATM   20  C   UNL     1      -1.061  16.209  21.598  0.00  0.00     0.032 A 
ENDBRANCH   8  14
ENDBRANCH   1   7
BRANCH   2  21
HETATM   21  O   UNL     1       0.951  16.041  25.899  0.00  0.00    -0.360 OA
HETATM   22  H   UNL     1       1.024  16.436  26.792  0.00  0.00     0.217 HD
ENDBRANCH   2  21
BRANCH   6  23
HETATM   23  S   UNL     1      -3.649  12.297  26.211  0.00  0.00     0.246 S 
HETATM   24  O   UNL     1      -4.080  12.075  27.575  0.00  0.00    -0.206 OA
HETATM   25  O   UNL     1      -4.555  12.876  25.246  0.00  0.00    -0.206 OA
BRANCH  23  26
HETATM   26  N   UNL     1      -3.163  10.732  25.596  0.00  0.00    -0.207 NA
HETATM   27  C   UNL     1      -3.427  10.596  24.134  0.00  0.00     0.130 C 
BRANCH  26  28
HETATM   28  C   UNL     1      -1.684  10.435  25.903  0.00  0.00     0.065 C 
HETATM   29  C   UNL     1      -1.482   9.674  27.217  0.00  0.00     0.027 C 
HETATM   30  C   UNL     1      -1.019   9.602  24.798  0.00  0.00     0.027 C 
ENDBRANCH  26  28
ENDBRANCH  23  26
ENDBRANCH   6  23
BRANCH   4  31
HETATM   31  O   UNL     1      -2.701  14.362  28.307  0.00  0.00    -0.359 OA
HETATM   32  H   UNL     1      -3.604  14.658  28.097  0.00  0.00     0.217 HD
ENDBRANCH   4  31
TORSDOF 7
ENDMDL
MODEL 3
REMARK VINA RESULT:    -7.701      2.543      4.128
REMARK INTER + INTRA:         -12.145
REMARK INTER:                 -10.389
REMARK INTRA:                  -1.757
REMARK UNBOUND:                -1.743
REMARK  7 active torsions:
REMARK  status: ('A' for Active; 'I' for Inactive)
REMARK    1  A    between atoms: C_7  and  N_8 
REMARK    2  A    between atoms: C_14  and  C_15 
REMARK    3  A    between atoms: C_16  and  O_17 
REMARK    4  A    between atoms: C_19  and  O_20 
REMARK    5  A    between atoms: C_22  and  S_23 
REMARK    6  A    between atoms: S_23  and  N_26 
REMARK    7  A    between atoms: N_26  and  C_28 
ROOT
HETATM    1  C   UNL     1      -2.834  14.305  23.084  0.00  0.00     0.047 A 
HETATM    2  C   UNL     1      -3.747  14.804  22.136  0.00  0.00     0.082 A 
HETATM    3  C   UNL     1      -3.331  15.616  21.083  0.00  0.00     0.075 A 
HETATM    4  C   UNL     1      -1.985  15.940  20.945  0.00  0.00     0.091 A 
HETATM    5  C   UNL     1      -1.475  14.619  22.924  0.00  0.00     0.046 A 
HETATM    6  C   UNL     1      -1.048  15.445  21.860  0.00  0.00     0.108 A 
ENDROOT
BRANCH   1   7
HETATM    7  C   UNL     1      -3.351  13.408  24.154  0.00  0.00     0.172 A 
HETATM    8  N   UNL     1      -2.808  12.221  24.554  0.00  0.00    -0.243 N 
HETATM    9  C   UNL     1      -3.645  11.746  25.552  0.00  0.00     0.349 A 
HETATM   10  O   UNL     1      -3.511  10.784  26.290  0.00  0.00    -0.245 OA
HETATM   11  N   UNL     1      -4.679  12.669  25.630  0.00  0.00    -0.226 N 
HETATM   12  H   UNL     1      -5.444  12.630  26.291  0.00  0.00     0.194 HD
HETATM   13  N   UNL     1      -4.468  13.706  24.777  0.00  0.00    -0.151 NA
BRANCH   8  14
HETATM   14  C   UNL     1      -1.564  11.616  24.314  0.00  0.00     0.067 A 
HETATM   15  C   UNL     1      -1.329  10.945  23.099  0.00  0.00     0.061 A 
HETATM   16 CL   UNL     1      -2.403  11.108  21.749  0.00  0.00    -0.082 Cl
HETATM   17  C   UNL     1      -0.165  10.200  22.914  0.00  0.00     0.026 A 
HETATM   18  C   UNL     1       0.779  10.122  23.936  0.00  0.00     0.002 A 
HETATM   19  C   UNL     1       0.573  10.815  25.131  0.00  0.00     0.002 A 
HETATM   20  C   UNL     1      -0.591  11.568  25.322  0.00  0.00     0.032 A 
ENDBRANCH   8  14
ENDBRANCH   1   7
BRANCH   2  21
HETATM   21  O   UNL     1      -5.094  14.539  22.157  0.00  0.00    -0.360 OA
HETATM   22  H   UNL     1      -5.571  15.372  22.351  0.00  0.00     0.217 HD
ENDBRANCH   2  21
BRANCH   6  23
HETATM   23  S   UNL     1       0.662  15.970  21.838  0.00  0.00     0.246 S 
HETATM   24  O   UNL     1       1.003  16.527  20.547  0.00  0.00    -0.206 OA
HETATM   25  O   UNL     1       0.832  16.757  23.039  0.00  0.00    -0.206 OA
BRANCH  23  26
HETATM   26  N   UNL     1       1.639  14.529  22.018  0.00  0.00    -0.207 NA
HETATM   27  C   UNL     1       2.238  14.091  20.724  0.00  0.00     0.130 C 
BRANCH  26  28
HETATM   28  C   UNL     1       2.736  14.716  23.081  0.00  0.00     0.065 C 
HETATM   29  C   UNL     1       2.577  13.779  24.283  0.00  0.00     0.027 C 
HETATM   30  C   UNL     1       4.142  14.477  22.511  0.00  0.00     0.027 C 
ENDBRANCH  26  28
ENDBRANCH  23  26
ENDBRANCH   6  23
BRANCH   4  31
HETATM   31  O   UNL     1      -1.620  16.721  19.893  0.00  0.00    -0.359 OA
HETATM   32  H   UNL     1      -1.401  16.173  19.120  0.00  0.00     0.217 HD
ENDBRANCH   4  31
TORSDOF 7
ENDMDL
MODEL 4
REMARK VINA RESULT:    -7.573      2.348      5.481
REMARK INTER + INTRA:         -11.972
REMARK INTER:                 -10.342
REMARK INTRA:                  -1.631
REMARK UNBOUND:                -1.743
REMARK  7 active torsions:
REMARK  status: ('A' for Active; 'I' for Inactive)
REMARK    1  A    between atoms: C_7  and  N_8 
REMARK    2  A    between atoms: C_14  and  C_15 
REMARK    3  A    between atoms: C_16  and  O_17 
REMARK    4  A    between atoms: C_19  and  O_20 
REMARK    5  A    between atoms: C_22  and  S_23 
REMARK    6  A    between atoms: S_23  and  N_26 
REMARK    7  A    between atoms: N_26  and  C_28 
ROOT
HETATM    1  C   UNL     1      -0.297  13.962  24.919  0.00  0.00     0.047 A 
HETATM    2  C   UNL     1      -0.229  15.130  25.701  0.00  0.00     0.082 A 
HETATM    3  C   UNL     1      -1.033  15.301  26.826  0.00  0.00     0.075 A 
HETATM    4  C   UNL     1      -1.921  14.298  27.204  0.00  0.00     0.091 A 
HETATM    5  C   UNL     1      -1.180  12.946  25.321  0.00  0.00     0.046 A 
HETATM    6  C   UNL     1      -2.001  13.116  26.459  0.00  0.00     0.108 A 
ENDROOT
BRANCH   1   7
HETATM    7  C   UNL     1       0.627  13.837  23.759  0.00  0.00     0.172 A 
HETATM    8  N   UNL     1       0.275  13.790  22.440  0.00  0.00    -0.243 N 
HETATM    9  C   UNL     1       1.464  13.649  21.742  0.00  0.00     0.349 A 
HETATM   10  O   UNL     1       1.672  13.679  20.540  0.00  0.00    -0.245 OA
HETATM   11  N   UNL     1       2.450  13.557  22.716  0.00  0.00    -0.226 N 
HETATM   12  H   UNL     1       3.442  13.481  22.534  0.00  0.00     0.194 HD
HETATM   13  N   UNL     1       1.918  13.703  23.958  0.00  0.00    -0.151 NA
BRANCH   8  14
HETATM   14  C   UNL     1      -0.922  14.074  21.765  0.00  0.00     0.067 A 
HETATM   15  C   UNL     1      -1.416  15.392  21.730  0.00  0.00     0.061 A 
HETATM   16 CL   UNL     1      -0.441  16.741  22.212  0.00  0.00    -0.082 Cl
HETATM   17  C   UNL     1      -2.681  15.662  21.210  0.00  0.00     0.026 A 
HETATM   18  C   UNL     1      -3.465  14.621  20.715  0.00  0.00     0.002 A 
HETATM   19  C   UNL     1      -2.969  13.316  20.711  0.00  0.00     0.002 A 
HETATM   20  C   UNL     1      -1.698  13.038  21.226  0.00  0.00     0.032 A 
ENDBRANCH   8  14
ENDBRANCH   1   7
BRANCH   2  21
HETATM   21  O   UNL     1       0.619  16.177  25.439  0.00  0.00    -0.360 OA
HETATM   22  H   UNL     1       1.010  16.044  24.551  0.00  0.00     0.217 HD
ENDBRANCH   2  21
BRANCH   6  23
HETATM   23  S   UNL     1      -3.243  11.873  26.790  0.00  0.00     0.246 S 
HETATM   24  O   UNL     1      -2.661  10.549  26.730  0.00  0.00    -0.206 OA
HETATM   25  O   UNL     1      -3.916  12.319  27.989  0.00  0.00    -0.206 OA
BRANCH  23  26
HETATM   26  N   UNL     1      -4.403  11.951  25.481  0.00  0.00    -0.207 NA
HETATM   27  C   UNL     1      -4.162  13.118  24.585  0.00  0.00     0.130 C 
BRANCH  26  28
HETATM   28  C   UNL     1      -4.429  10.645  24.667  0.00  0.00     0.065 C 
HETATM   29  C   UNL     1      -5.839  10.234  24.231  0.00  0.00     0.027 C 
HETATM   30  C   UNL     1      -3.578  10.741  23.392  0.00  0.00     0.027 C 
ENDBRANCH  26  28
ENDBRANCH  23  26
ENDBRANCH   6  23
BRANCH   4  31
HETATM   31  O   UNL     1      -2.674  14.498  28.319  0.00  0.00    -0.359 OA
HETATM   32  H   UNL     1      -3.403  13.856  28.359  0.00  0.00     0.217 HD
ENDBRANCH   4  31
TORSDOF 7
ENDMDL
MODEL 5
REMARK VINA RESULT:    -7.488      2.716      5.937
REMARK INTER + INTRA:         -11.857
REMARK INTER:                  -9.628
REMARK INTRA:                  -2.229
REMARK UNBOUND:                -1.743
REMARK  7 active torsions:
REMARK  status: ('A' for Active; 'I' for Inactive)
REMARK    1  A    between atoms: C_7  and  N_8 
REMARK    2  A    between atoms: C_14  and  C_15 
REMARK    3  A    between atoms: C_16  and  O_17 
REMARK    4  A    between atoms: C_19  and  O_20 
REMARK    5  A    between atoms: C_22  and  S_23 
REMARK    6  A    between atoms: S_23  and  N_26 
REMARK    7  A    between atoms: N_26  and  C_28 
ROOT
HETATM    1  C   UNL     1       0.505  12.159  24.934  0.00  0.00     0.047 A 
HETATM    2  C   UNL     1       0.930  10.858  25.261  0.00  0.00     0.082 A 
HETATM    3  C   UNL     1       0.132   9.999  26.013  0.00  0.00     0.075 A 
HETATM    4  C   UNL     1      -1.122  10.418  26.449  0.00  0.00     0.091 A 
HETATM    5  C   UNL     1      -0.770  12.565  25.360  0.00  0.00     0.046 A 
HETATM    6  C   UNL     1      -1.582  11.699  26.126  0.00  0.00     0.108 A 
ENDROOT
BRANCH   1   7
HETATM    7  C   UNL     1       1.398  13.000  24.090  0.00  0.00     0.172 A 
HETATM    8  N   UNL     1       1.156  13.415  22.812  0.00  0.00    -0.243 N 
HETATM    9  C   UNL     1       2.273  14.146  22.440  0.00  0.00     0.349 A 
HETATM   10  O   UNL     1       2.472  14.812  21.437  0.00  0.00    -0.245 OA
HETATM   11  N   UNL     1       3.142  14.058  23.519  0.00  0.00    -0.226 N 
HETATM   12  H   UNL     1       4.042  14.516  23.580  0.00  0.00     0.194 HD
HETATM   13  N   UNL     1       2.574  13.368  24.543  0.00  0.00    -0.151 NA
BRANCH   8  14
HETATM   14  C   UNL     1      -0.002  13.422  22.018  0.00  0.00     0.067 A 
HETATM   15  C   UNL     1      -0.942  14.462  22.152  0.00  0.00     0.061 A 
HETATM   16 CL   UNL     1      -0.576  15.911  23.029  0.00  0.00    -0.082 Cl
HETATM   17  C   UNL     1      -2.170  14.396  21.495  0.00  0.00     0.026 A 
HETATM   18  C   UNL     1      -2.471  13.296  20.694  0.00  0.00     0.002 A 
HETATM   19  C   UNL     1      -1.531  12.278  20.525  0.00  0.00     0.002 A 
HETATM   20  C   UNL     1      -0.295  12.339  21.178  0.00  0.00     0.032 A 
ENDBRANCH   8  14
ENDBRANCH   1   7
BRANCH   2  21
HETATM   21  O   UNL     1       2.136  10.327  24.873  0.00  0.00    -0.360 OA
HETATM   22  H   UNL     1       1.963   9.578  24.266  0.00  0.00     0.217 HD
ENDBRANCH   2  21
BRANCH   6  23
HETATM   23  S   UNL     1      -3.102  12.356  26.805  0.00  0.00     0.246 S 
HETATM   24  O   UNL     1      -3.601  11.491  27.853  0.00  0.00    -0.206 OA
HETATM   25  O   UNL     1      -2.824  13.748  27.079  0.00  0.00    -0.206 OA
BRANCH  23  26
HETATM   26  N   UNL     1      -4.295  12.305  25.525  0.00  0.00    -0.207 NA
HETATM   27  C   UNL     1      -4.136  13.434  24.563  0.00  0.00     0.130 C 
BRANCH  26  28
HETATM   28  C   UNL     1      -4.272  10.959  24.780  0.00  0.00     0.065 C 
HETATM   29  C   UNL     1      -5.670  10.387  24.523  0.00  0.00     0.027 C 
HETATM   30  C   UNL     1      -3.574  11.064  23.416  0.00  0.00     0.027 C 
ENDBRANCH  26  28
ENDBRANCH  23  26
ENDBRANCH   6  23
BRANCH   4  31
HETATM   31  O   UNL     1      -1.875   9.541  27.165  0.00  0.00    -0.359 OA
HETATM   32  H   UNL     1      -1.430   9.308  27.997  0.00  0.00     0.217 HD
ENDBRANCH   4  31
TORSDOF 7
ENDMDL
MODEL 6
REMARK VINA RESULT:    -7.354      3.750      5.859
REMARK INTER + INTRA:         -11.676
REMARK INTER:                  -9.722
REMARK INTRA:                  -1.953
REMARK UNBOUND:                -1.743
REMARK  7 active torsions:
REMARK  status: ('A' for Active; 'I' for Inactive)
REMARK    1  A    between atoms: C_7  and  N_8 
REMARK    2  A    between atoms: C_14  and  C_15 
REMARK    3  A    between atoms: C_16  and  O_17 
REMARK    4  A    between atoms: C_19  and  O_20 
REMARK    5  A    between atoms: C_22  and  S_23 
REMARK    6  A    between atoms: S_23  and  N_26 
REMARK    7  A    between atoms: N_26  and  C_28 
ROOT
HETATM    1  C   UNL     1      -2.946  11.852  24.578  0.00  0.00     0.047 A 
HETATM    2  C   UNL     1      -3.664  11.878  25.787  0.00  0.00     0.082 A 
HETATM    3  C   UNL     1      -3.225  11.179  26.910  0.00  0.00     0.075 A 
HETATM    4  C   UNL     1      -2.044  10.444  26.853  0.00  0.00     0.091 A 
HETATM    5  C   UNL     1      -1.744  11.126  24.537  0.00  0.00     0.046 A 
HETATM    6  C   UNL     1      -1.296  10.413  25.671  0.00  0.00     0.108 A 
ENDROOT
BRANCH   1   7
HETATM    7  C   UNL     1      -3.458  12.660  23.438  0.00  0.00     0.172 A 
HETATM    8  N   UNL     1      -2.827  13.711  22.835  0.00  0.00    -0.243 N 
HETATM    9  C   UNL     1      -3.696  14.152  21.850  0.00  0.00     0.349 A 
HETATM   10  O   UNL     1      -3.527  14.988  20.978  0.00  0.00    -0.245 OA
HETATM   11  N   UNL     1      -4.829  13.360  21.981  0.00  0.00    -0.226 N 
HETATM   12  H   UNL     1      -5.643  13.406  21.383  0.00  0.00     0.194 HD
HETATM   13  N   UNL     1      -4.655  12.423  22.950  0.00  0.00    -0.151 NA
BRANCH   8  14
HETATM   14  C   UNL     1      -1.507  14.186  22.892  0.00  0.00     0.067 A 
HETATM   15  C   UNL     1      -0.492  13.532  22.169  0.00  0.00     0.061 A 
HETATM   16 CL   UNL     1      -0.857  12.355  20.951  0.00  0.00    -0.082 Cl
HETATM   17  C   UNL     1       0.845  13.887  22.345  0.00  0.00     0.026 A 
HETATM   18  C   UNL     1       1.182  14.901  23.240  0.00  0.00     0.002 A 
HETATM   19  C   UNL     1       0.179  15.580  23.934  0.00  0.00     0.002 A 
HETATM   20  C   UNL     1      -1.165  15.232  23.759  0.00  0.00     0.032 A 
ENDBRANCH   8  14
ENDBRANCH   1   7
BRANCH   2  21
HETATM   21  O   UNL     1      -4.830  12.580  25.970  0.00  0.00    -0.360 OA
HETATM   22  H   UNL     1      -4.903  12.818  26.917  0.00  0.00     0.217 HD
ENDBRANCH   2  21
BRANCH   6  23
HETATM   23  S   UNL     1       0.129   9.347  25.483  0.00  0.00     0.246 S 
HETATM   24  O   UNL     1       0.628   9.407  24.126  0.00  0.00    -0.206 OA
HETATM   25  O   UNL     1       0.996   9.675  26.593  0.00  0.00    -0.206 OA
BRANCH  23  26
HETATM   26  N   UNL     1      -0.428   7.705  25.724  0.00  0.00    -0.207 NA
HETATM   27  C   UNL     1      -0.086   6.821  24.572  0.00  0.00     0.130 C 
BRANCH  26  28
HETATM   28  C   UNL     1       0.113   7.109  27.036  0.00  0.00     0.065 C 
HETATM   29  C   UNL     1      -0.955   6.369  27.848  0.00  0.00     0.027 C 
HETATM   30  C   UNL     1       1.257   6.115  26.792  0.00  0.00     0.027 C 
ENDBRANCH  26  28
ENDBRANCH  23  26
ENDBRANCH   6  23
BRANCH   4  31
HETATM   31  O   UNL     1      -1.643   9.792  27.977  0.00  0.00    -0.359 OA
HETATM   32  H   UNL     1      -2.385   9.304  28.372  0.00  0.00     0.217 HD
ENDBRANCH   4  31
TORSDOF 7
ENDMDL
MODEL 7
REMARK VINA RESULT:    -7.353      3.873      5.968
REMARK INTER + INTRA:         -11.675
REMARK INTER:                  -9.932
REMARK INTRA:                  -1.743
REMARK UNBOUND:                -1.743
REMARK  7 active torsions:
REMARK  status: ('A' for Active; 'I' for Inactive)
REMARK    1  A    between atoms: C_7  and  N_8 
REMARK    2  A    between atoms: C_14  and  C_15 
REMARK    3  A    between atoms: C_16  and  O_17 
REMARK    4  A    between atoms: C_19  and  O_20 
REMARK    5  A    between atoms: C_22  and  S_23 
REMARK    6  A    between atoms: S_23  and  N_26 
REMARK    7  A    between atoms: N_26  and  C_28 
ROOT
HETATM    1  C   UNL     1      -2.882  11.775  24.328  0.00  0.00     0.047 A 
HETATM    2  C   UNL     1      -3.591  11.904  25.537  0.00  0.00     0.082 A 
HETATM    3  C   UNL     1      -3.161  11.273  26.703  0.00  0.00     0.075 A 
HETATM    4  C   UNL     1      -2.001  10.505  26.690  0.00  0.00     0.091 A 
HETATM    5  C   UNL     1      -1.701  11.015  24.330  0.00  0.00     0.046 A 
HETATM    6  C   UNL     1      -1.263  10.371  25.509  0.00  0.00     0.108 A 
ENDROOT
BRANCH   1   7
HETATM    7  C   UNL     1      -3.383  12.515  23.138  0.00  0.00     0.172 A 
HETATM    8  N   UNL     1      -2.634  13.247  22.260  0.00  0.00    -0.243 N 
HETATM    9  C   UNL     1      -3.535  13.762  21.341  0.00  0.00     0.349 A 
HETATM   10  O   UNL     1      -3.330  14.378  20.309  0.00  0.00    -0.245 OA
HETATM   11  N   UNL     1      -4.784  13.345  21.782  0.00  0.00    -0.226 N 
HETATM   12  H   UNL     1      -5.659  13.527  21.308  0.00  0.00     0.194 HD
HETATM   13  N   UNL     1      -4.670  12.551  22.880  0.00  0.00    -0.151 NA
BRANCH   8  14
HETATM   14  C   UNL     1      -1.251  13.338  22.036  0.00  0.00     0.067 A 
HETATM   15  C   UNL     1      -0.525  14.431  22.545  0.00  0.00     0.061 A 
HETATM   16 CL   UNL     1      -1.209  15.511  23.715  0.00  0.00    -0.082 Cl
HETATM   17  C   UNL     1       0.810  14.622  22.192  0.00  0.00     0.026 A 
HETATM   18  C   UNL     1       1.436  13.722  21.332  0.00  0.00     0.002 A 
HETATM   19  C   UNL     1       0.735  12.613  20.851  0.00  0.00     0.002 A 
HETATM   20  C   UNL     1      -0.603  12.413  21.206  0.00  0.00     0.032 A 
ENDBRANCH   8  14
ENDBRANCH   1   7
BRANCH   2  21
HETATM   21  O   UNL     1      -4.736  12.648  25.677  0.00  0.00    -0.360 OA
HETATM   22  H   UNL     1      -5.465  12.049  25.939  0.00  0.00     0.217 HD
ENDBRANCH   2  21
BRANCH   6  23
HETATM   23  S   UNL     1       0.132   9.257  25.387  0.00  0.00     0.246 S 
HETATM   24  O   UNL     1       0.619   9.206  24.025  0.00  0.00    -0.206 OA
HETATM   25  O   UNL     1       1.018   9.640  26.463  0.00  0.00    -0.206 OA
BRANCH  23  26
HETATM   26  N   UNL     1      -0.465   7.652  25.750  0.00  0.00    -0.207 NA
HETATM   27  C   UNL     1      -0.202   6.690  24.640  0.00  0.00     0.130 C 
BRANCH  26  28
HETATM   28  C   UNL     1       0.113   7.117  27.072  0.00  0.00     0.065 C 
HETATM   29  C   UNL     1      -0.943   6.466  27.972  0.00  0.00     0.027 C 
HETATM   30  C   UNL     1       1.211   6.069  26.841  0.00  0.00     0.027 C 
ENDBRANCH  26  28
ENDBRANCH  23  26
ENDBRANCH   6  23
BRANCH   4  31
HETATM   31  O   UNL     1      -1.608   9.922  27.855  0.00  0.00    -0.359 OA
HETATM   32  H   UNL     1      -1.017  10.513  28.351  0.00  0.00     0.217 HD
ENDBRANCH   4  31
TORSDOF 7
ENDMDL
MODEL 8
REMARK VINA RESULT:    -7.347      3.959      5.854
REMARK INTER + INTRA:         -11.666
REMARK INTER:                  -9.547
REMARK INTRA:                  -2.119
REMARK UNBOUND:                -1.743
REMARK  7 active torsions:
REMARK  status: ('A' for Active; 'I' for Inactive)
REMARK    1  A    between atoms: C_7  and  N_8 
REMARK    2  A    between atoms: C_14  and  C_15 
REMARK    3  A    between atoms: C_16  and  O_17 
REMARK    4  A    between atoms: C_19  and  O_20 
REMARK    5  A    between atoms: C_22  and  S_23 
REMARK    6  A    between atoms: S_23  and  N_26 
REMARK    7  A    between atoms: N_26  and  C_28 
ROOT
HETATM    1  C   UNL     1      -2.309  11.330  25.139  0.00  0.00     0.047 A 
HETATM    2  C   UNL     1      -3.205  11.790  26.122  0.00  0.00     0.082 A 
HETATM    3  C   UNL     1      -3.117  11.364  27.445  0.00  0.00     0.075 A 
HETATM    4  C   UNL     1      -2.118  10.471  27.822  0.00  0.00     0.091 A 
HETATM    5  C   UNL     1      -1.291  10.446  25.534  0.00  0.00     0.046 A 
HETATM    6  C   UNL     1      -1.199  10.008  26.875  0.00  0.00     0.108 A 
ENDROOT
BRANCH   1   7
HETATM    7  C   UNL     1      -2.442  11.867  23.758  0.00  0.00     0.172 A 
HETATM    8  N   UNL     1      -1.671  12.836  23.183  0.00  0.00    -0.243 N 
HETATM    9  C   UNL     1      -2.184  13.013  21.908  0.00  0.00     0.349 A 
HETATM   10  O   UNL     1      -1.759  13.684  20.981  0.00  0.00    -0.245 OA
HETATM   11  N   UNL     1      -3.284  12.169  21.837  0.00  0.00    -0.226 N 
HETATM   12  H   UNL     1      -3.864  12.037  21.018  0.00  0.00     0.194 HD
HETATM   13  N   UNL     1      -3.414  11.446  22.981  0.00  0.00    -0.151 NA
BRANCH   8  14
HETATM   14  C   UNL     1      -0.448  13.419  23.550  0.00  0.00     0.067 A 
HETATM   15  C   UNL     1      -0.432  14.619  24.287  0.00  0.00     0.061 A 
HETATM   16 CL   UNL     1      -1.863  15.240  25.042  0.00  0.00    -0.082 Cl
HETATM   17  C   UNL     1       0.765  15.296  24.515  0.00  0.00     0.026 A 
HETATM   18  C   UNL     1       1.959  14.781  24.014  0.00  0.00     0.002 A 
HETATM   19  C   UNL     1       1.960  13.573  23.314  0.00  0.00     0.002 A 
HETATM   20  C   UNL     1       0.763  12.886  23.086  0.00  0.00     0.032 A 
ENDBRANCH   8  14
ENDBRANCH   1   7
BRANCH   2  21
HETATM   21  O   UNL     1      -4.218  12.684  25.874  0.00  0.00    -0.360 OA
HETATM   22  H   UNL     1      -5.045  12.180  25.723  0.00  0.00     0.217 HD
ENDBRANCH   2  21
BRANCH   6  23
HETATM   23  S   UNL     1      -0.009   8.729  27.259  0.00  0.00     0.246 S 
HETATM   24  O   UNL     1       0.561   8.948  28.571  0.00  0.00    -0.206 OA
HETATM   25  O   UNL     1      -0.679   7.484  26.954  0.00  0.00    -0.206 OA
BRANCH  23  26
HETATM   26  N   UNL     1       1.311   8.903  26.122  0.00  0.00    -0.207 NA
HETATM   27  C   UNL     1       2.641   8.870  26.796  0.00  0.00     0.130 C 
BRANCH  26  28
HETATM   28  C   UNL     1       1.246   7.839  25.011  0.00  0.00     0.065 C 
HETATM   29  C   UNL     1       1.216   8.441  23.602  0.00  0.00     0.027 C 
HETATM   30  C   UNL     1       2.442   6.877  25.060  0.00  0.00     0.027 C 
ENDBRANCH  26  28
ENDBRANCH  23  26
ENDBRANCH   6  23
BRANCH   4  31
HETATM   31  O   UNL     1      -2.058  10.095  29.128  0.00  0.00    -0.359 OA
HETATM   32  H   UNL     1      -2.371  10.812  29.705  0.00  0.00     0.217 HD
ENDBRANCH   4  31
TORSDOF 7
ENDMDL
MODEL 9
REMARK VINA RESULT:    -7.313      4.055      5.780
REMARK INTER + INTRA:         -11.621
REMARK INTER:                  -9.688
REMARK INTRA:                  -1.932
REMARK UNBOUND:                -1.743
REMARK  7 active torsions:
REMARK  status: ('A' for Active; 'I' for Inactive)
REMARK    1  A    between atoms: C_7  and  N_8 
REMARK    2  A    between atoms: C_14  and  C_15 
REMARK    3  A    between atoms: C_16  and  O_17 
REMARK    4  A    between atoms: C_19  and  O_20 
REMARK    5  A    between atoms: C_22  and  S_23 
REMARK    6  A    between atoms: S_23  and  N_26 
REMARK    7  A    between atoms: N_26  and  C_28 
ROOT
HETATM    1  C   UNL     1      -2.476  11.062  25.200  0.00  0.00     0.047 A 
HETATM    2  C   UNL     1      -2.769  11.193  26.570  0.00  0.00     0.082 A 
HETATM    3  C   UNL     1      -2.166  10.377  27.525  0.00  0.00     0.075 A 
HETATM    4  C   UNL     1      -1.243   9.413  27.131  0.00  0.00     0.091 A 
HETATM    5  C   UNL     1      -1.527  10.101  24.815  0.00  0.00     0.046 A 
HETATM    6  C   UNL     1      -0.915   9.268  25.779  0.00  0.00     0.108 A 
ENDROOT
BRANCH   1   7
HETATM    7  C   UNL     1      -3.129  12.001  24.248  0.00  0.00     0.172 A 
HETATM    8  N   UNL     1      -2.756  13.289  23.989  0.00  0.00    -0.243 N 
HETATM    9  C   UNL     1      -3.668  13.762  23.060  0.00  0.00     0.349 A 
HETATM   10  O   UNL     1      -3.678  14.814  22.442  0.00  0.00    -0.245 OA
HETATM   11  N   UNL     1      -4.574  12.725  22.878  0.00  0.00    -0.226 N 
HETATM   12  H   UNL     1      -5.351  12.740  22.230  0.00  0.00     0.194 HD
HETATM   13  N   UNL     1      -4.210  11.633  23.599  0.00  0.00    -0.151 NA
BRANCH   8  14
HETATM   14  C   UNL     1      -1.597  14.021  24.294  0.00  0.00     0.067 A 
HETATM   15  C   UNL     1      -0.422  13.825  23.545  0.00  0.00     0.061 A 
HETATM   16 CL   UNL     1      -0.433  12.947  22.051  0.00  0.00    -0.082 Cl
HETATM   17  C   UNL     1       0.777  14.418  23.938  0.00  0.00     0.026 A 
HETATM   18  C   UNL     1       0.815  15.218  25.078  0.00  0.00     0.002 A 
HETATM   19  C   UNL     1      -0.354  15.449  25.807  0.00  0.00     0.002 A 
HETATM   20  C   UNL     1      -1.561  14.861  25.416  0.00  0.00     0.032 A 
ENDBRANCH   8  14
ENDBRANCH   1   7
BRANCH   2  21
HETATM   21  O   UNL     1      -3.648  12.118  27.079  0.00  0.00    -0.360 OA
HETATM   22  H   UNL     1      -3.591  12.092  28.057  0.00  0.00     0.217 HD
ENDBRANCH   2  21
BRANCH   6  23
HETATM   23  S   UNL     1       0.125   7.935  25.196  0.00  0.00     0.246 S 
HETATM   24  O   UNL     1      -0.477   6.654  25.502  0.00  0.00    -0.206 OA
HETATM   25  O   UNL     1       0.452   8.278  23.830  0.00  0.00    -0.206 OA
BRANCH  23  26
HETATM   26  N   UNL     1       1.610   8.005  26.121  0.00  0.00    -0.207 NA
HETATM   27  C   UNL     1       1.986   6.675  26.682  0.00  0.00     0.130 C 
BRANCH  26  28
HETATM   28  C   UNL     1       2.769   8.584  25.290  0.00  0.00     0.065 C 
HETATM   29  C   UNL     1       3.586   9.637  26.045  0.00  0.00     0.027 C 
HETATM   30  C   UNL     1       3.753   7.497  24.834  0.00  0.00     0.027 C 
ENDBRANCH  26  28
ENDBRANCH  23  26
ENDBRANCH   6  23
BRANCH   4  31
HETATM   31  O   UNL     1      -0.665   8.649  28.098  0.00  0.00    -0.359 OA
HETATM   32  H   UNL     1      -1.316   8.040  28.486  0.00  0.00     0.217 HD
ENDBRANCH   4  31
TORSDOF 7
ENDMDL
