MODEL 1
REMARK VINA RESULT:    -9.385      0.000      0.000
REMARK INTER + INTRA:         -15.255
REMARK INTER:                 -13.027
REMARK INTRA:                  -2.228
REMARK UNBOUND:                -2.029
REMARK  8 active torsions:
REMARK  status: ('A' for Active; 'I' for Inactive)
REMARK    1  A    between atoms: C_7  and  N_8 
REMARK    2  A    between atoms: C_14  and  C_15 
REMARK    3  A    between atoms: C_16  and  O_17 
REMARK    4  A    between atoms: C_19  and  O_20 
REMARK    5  A    between atoms: C_22  and  C_23 
REMARK       I    between atoms: C_23  and  N_25 
REMARK    6  A    between atoms: N_25  and  C_27 
REMARK    7  A    between atoms: C_27  and  C_28 
REMARK    8  A    between atoms: C_33  and  O_34 
ROOT
HETATM    1  C   UNL     1      -1.900  15.486  20.815  0.00  0.00     0.046 A 
HETATM    2  C   UNL     1      -3.178  16.069  20.630  0.00  0.00     0.082 A 
HETATM    3  C   UNL     1      -4.346  15.407  20.988  0.00  0.00     0.075 A 
HETATM    4  C   UNL     1      -4.276  14.145  21.567  0.00  0.00     0.084 A 
HETATM    5  C   UNL     1      -1.848  14.179  21.375  0.00  0.00     0.038 A 
HETATM    6  C   UNL     1      -3.033  13.509  21.809  0.00  0.00     0.066 A 
ENDROOT
BRANCH   1   7
HETATM    7  C   UNL     1      -0.719  16.362  20.457  0.00  0.00     0.172 A 
HETATM    8  N   UNL     1       0.577  16.316  20.940  0.00  0.00    -0.244 N 
HETATM    9  C   UNL     1       1.242  17.363  20.300  0.00  0.00     0.349 A 
HETATM   10  O   UNL     1       2.374  17.805  20.476  0.00  0.00    -0.245 OA
HETATM   11  N   UNL     1       0.316  17.933  19.452  0.00  0.00    -0.226 N 
HETATM   12  H   UNL     1       0.437  18.820  18.985  0.00  0.00     0.194 HD
HETATM   13  N   UNL     1      -0.890  17.317  19.575  0.00  0.00    -0.151 NA
BRANCH   8  14
HETATM   14  C   UNL     1       1.164  15.697  22.058  0.00  0.00     0.051 C 
HETATM   15  C   UNL     1       1.990  14.561  21.948  0.00  0.00    -0.035 C 
HETATM   16  C   UNL     1       2.043  13.732  20.688  0.00  0.00     0.050 C 
HETATM   17  C   UNL     1       2.594  14.041  23.102  0.00  0.00     0.009 C 
HETATM   18  C   UNL     1       2.247  14.515  24.369  0.00  0.00     0.001 C 
HETATM   19  C   UNL     1       1.294  15.516  24.489  0.00  0.00     0.002 C 
HETATM   20  C   UNL     1       0.778  16.118  23.340  0.00  0.00     0.031 C 
ENDBRANCH   8  14
ENDBRANCH   1   7
BRANCH   2  21
HETATM   21  O   UNL     1      -3.400  17.326  20.126  0.00  0.00    -0.360 OA
HETATM   22  H   UNL     1      -4.332  17.577  20.310  0.00  0.00     0.217 HD
ENDBRANCH   2  21
BRANCH   6  23
HETATM   23  C   UNL     1      -3.052  12.356  22.798  0.00  0.00     0.256 C 
HETATM   24  O   UNL     1      -3.243  11.238  22.305  0.00  0.00    -0.267 OA
HETATM   25  N   UNL     1      -2.956  12.481  24.200  0.00  0.00    -0.348 N 
HETATM   26  C   UNL     1      -2.836  13.746  24.894  0.00  0.00     0.153 C 
BRANCH  25  27
HETATM   27  C   UNL     1      -3.436  11.316  24.991  0.00  0.00     0.167 C 
BRANCH  27  28
HETATM   28  C   UNL     1      -2.506  10.685  26.016  0.00  0.00    -0.007 C 
HETATM   29  C   UNL     1      -2.611  10.937  27.389  0.00  0.00     0.011 C 
HETATM   30  C   UNL     1      -1.776  10.280  28.309  0.00  0.00     0.001 C 
HETATM   31  C   UNL     1      -0.833   9.347  27.874  0.00  0.00     0.003 C 
HETATM   32  C   UNL     1      -0.649   9.160  26.506  0.00  0.00     0.037 C 
HETATM   33  C   UNL     1      -1.424   9.882  25.598  0.00  0.00     0.076 C 
BRANCH  33  34
HETATM   34  O   UNL     1      -1.068   9.789  24.273  0.00  0.00    -0.355 OA
HETATM   35  C   UNL     1       0.145  10.523  24.046  0.00  0.00     0.210 C 
ENDBRANCH  33  34
ENDBRANCH  27  28
ENDBRANCH  25  27
ENDBRANCH   6  23
BRANCH   4  36
HETATM   36  O   UNL     1      -5.467  13.544  21.891  0.00  0.00    -0.360 OA
HETATM   37  H   UNL     1      -5.351  12.579  21.906  0.00  0.00     0.217 HD
ENDBRANCH   4  36
TORSDOF 8
ENDMDL
MODEL 2
REMARK VINA RESULT:    -9.047      0.852      1.472
REMARK INTER + INTRA:         -14.779
REMARK INTER:                 -13.024
REMARK INTRA:                  -1.755
REMARK UNBOUND:                -2.029
REMARK  8 active torsions:
REMARK  status: ('A' for Active; 'I' for Inactive)
REMARK    1  A    between atoms: C_7  and  N_8 
REMARK    2  A    between atoms: C_14  and  C_15 
REMARK    3  A    between atoms: C_16  and  O_17 
REMARK    4  A    between atoms: C_19  and  O_20 
REMARK    5  A    between atoms: C_22  and  C_23 
REMARK       I    between atoms: C_23  and  N_25 
REMARK    6  A    between atoms: N_25  and  C_27 
REMARK    7  A    between atoms: C_27  and  C_28 
REMARK    8  A    between atoms: C_33  and  O_34 
ROOT
HETATM    1  C   UNL     1      -1.774  15.561  20.707  0.00  0.00     0.046 A 
HETATM    2  C   UNL     1      -3.058  16.138  20.556  0.00  0.00     0.082 A 
HETATM    3  C   UNL     1      -4.218  15.449  20.891  0.00  0.00     0.075 A 
HETATM    4  C   UNL     1      -4.133  14.163  21.411  0.00  0.00     0.084 A 
HETATM    5  C   UNL     1      -1.707  14.230  21.207  0.00  0.00     0.038 A 
HETATM    6  C   UNL     1      -2.882  13.529  21.617  0.00  0.00     0.066 A 
ENDROOT
BRANCH   1   7
HETATM    7  C   UNL     1      -0.603  16.464  20.383  0.00  0.00     0.172 A 
HETATM    8  N   UNL     1       0.691  16.418  20.868  0.00  0.00    -0.244 N 
HETATM    9  C   UNL     1       1.345  17.495  20.265  0.00  0.00     0.349 A 
HETATM   10  O   UNL     1       2.470  17.945  20.460  0.00  0.00    -0.245 OA
HETATM   11  N   UNL     1       0.414  18.080  19.434  0.00  0.00    -0.226 N 
HETATM   12  H   UNL     1       0.524  18.984  18.998  0.00  0.00     0.194 HD
HETATM   13  N   UNL     1      -0.784  17.445  19.532  0.00  0.00    -0.151 NA
BRANCH   8  14
HETATM   14  C   UNL     1       1.283  15.770  21.967  0.00  0.00     0.051 C 
HETATM   15  C   UNL     1       2.202  14.712  21.818  0.00  0.00    -0.035 C 
HETATM   16  C   UNL     1       2.369  13.980  20.509  0.00  0.00     0.050 C 
HETATM   17  C   UNL     1       2.801  14.161  22.960  0.00  0.00     0.009 C 
HETATM   18  C   UNL     1       2.369  14.517  24.239  0.00  0.00     0.001 C 
HETATM   19  C   UNL     1       1.334  15.430  24.384  0.00  0.00     0.002 C 
HETATM   20  C   UNL     1       0.815  16.069  23.256  0.00  0.00     0.031 C 
ENDBRANCH   8  14
ENDBRANCH   1   7
BRANCH   2  21
HETATM   21  O   UNL     1      -3.296  17.415  20.112  0.00  0.00    -0.360 OA
HETATM   22  H   UNL     1      -4.177  17.702  20.438  0.00  0.00     0.217 HD
ENDBRANCH   2  21
BRANCH   6  23
HETATM   23  C   UNL     1      -2.884  12.332  22.553  0.00  0.00     0.256 C 
HETATM   24  O   UNL     1      -3.199  11.254  22.033  0.00  0.00    -0.267 OA
HETATM   25  N   UNL     1      -2.644  12.381  23.942  0.00  0.00    -0.348 N 
HETATM   26  C   UNL     1      -2.370  13.600  24.674  0.00  0.00     0.153 C 
BRANCH  25  27
HETATM   27  C   UNL     1      -3.124  11.212  24.726  0.00  0.00     0.167 C 
BRANCH  27  28
HETATM   28  C   UNL     1      -2.114  10.373  25.495  0.00  0.00    -0.007 C 
HETATM   29  C   UNL     1      -1.190   9.535  24.861  0.00  0.00     0.011 C 
HETATM   30  C   UNL     1      -0.228   8.829  25.605  0.00  0.00     0.001 C 
HETATM   31  C   UNL     1      -0.161   8.964  26.993  0.00  0.00     0.003 C 
HETATM   32  C   UNL     1      -1.135   9.716  27.645  0.00  0.00     0.037 C 
HETATM   33  C   UNL     1      -2.139  10.342  26.905  0.00  0.00     0.076 C 
BRANCH  33  34
HETATM   34  O   UNL     1      -3.168  10.910  27.618  0.00  0.00    -0.355 OA
HETATM   35  C   UNL     1      -2.904  12.307  27.818  0.00  0.00     0.210 C 
ENDBRANCH  33  34
ENDBRANCH  27  28
ENDBRANCH  25  27
ENDBRANCH   6  23
BRANCH   4  36
HETATM   36  O   UNL     1      -5.316  13.537  21.715  0.00  0.00    -0.360 OA
HETATM   37  H   UNL     1      -5.619  13.025  20.945  0.00  0.00     0.217 HD
ENDBRANCH   4  36
TORSDOF 8
ENDMDL
MODEL 3
REMARK VINA RESULT:    -9.018      1.403      1.890
REMARK INTER + INTRA:         -14.738
REMARK INTER:                 -12.414
REMARK INTRA:                  -2.323
REMARK UNBOUND:                -2.029
REMARK  8 active torsions:
REMARK  status: ('A' for Active; 'I' for Inactive)
REMARK    1  A    between atoms: C_7  and  N_8 
REMARK    2  A    between atoms: C_14  and  C_15 
REMARK    3  A    between atoms: C_16  and  O_17 
REMARK    4  A    between atoms: C_19  and  O_20 
REMARK    5  A    between atoms: C_22  and  C_23 
REMARK       I    between atoms: C_23  and  N_25 
REMARK    6  A    between atoms: N_25  and  C_27 
REMARK    7  A    between atoms: C_27  and  C_28 
REMARK    8  A    between atoms: C_33  and  O_34 
ROOT
HETATM    1  C   UNL     1      -1.950  15.653  20.727  0.00  0.00     0.046 A 
HETATM    2  C   UNL     1      -3.198  16.285  20.507  0.00  0.00     0.082 A 
HETATM    3  C   UNL     1      -4.401  15.670  20.831  0.00  0.00     0.075 A 
HETATM    4  C   UNL     1      -4.398  14.405  21.409  0.00  0.00     0.084 A 
HETATM    5  C   UNL     1      -1.966  14.345  21.285  0.00  0.00     0.038 A 
HETATM    6  C   UNL     1      -3.188  13.721  21.685  0.00  0.00     0.066 A 
ENDROOT
BRANCH   1   7
HETATM    7  C   UNL     1      -0.726  16.482  20.405  0.00  0.00     0.172 A 
HETATM    8  N   UNL     1       0.550  16.391  20.932  0.00  0.00    -0.244 N 
HETATM    9  C   UNL     1       1.275  17.409  20.309  0.00  0.00     0.349 A 
HETATM   10  O   UNL     1       2.416  17.810  20.521  0.00  0.00    -0.245 OA
HETATM   11  N   UNL     1       0.401  18.005  19.426  0.00  0.00    -0.226 N 
HETATM   12  H   UNL     1       0.570  18.885  18.958  0.00  0.00     0.194 HD
HETATM   13  N   UNL     1      -0.831  17.436  19.511  0.00  0.00    -0.151 NA
BRANCH   8  14
HETATM   14  C   UNL     1       1.075  15.760  22.073  0.00  0.00     0.051 C 
HETATM   15  C   UNL     1       1.876  14.603  21.998  0.00  0.00    -0.035 C 
HETATM   16  C   UNL     1       1.958  13.770  20.742  0.00  0.00     0.050 C 
HETATM   17  C   UNL     1       2.418  14.070  23.176  0.00  0.00     0.009 C 
HETATM   18  C   UNL     1       2.033  14.555  24.427  0.00  0.00     0.001 C 
HETATM   19  C   UNL     1       1.102  15.580  24.508  0.00  0.00     0.002 C 
HETATM   20  C   UNL     1       0.648  16.193  23.339  0.00  0.00     0.031 C 
ENDBRANCH   8  14
ENDBRANCH   1   7
BRANCH   2  21
HETATM   21  O   UNL     1      -3.357  17.552  20.000  0.00  0.00    -0.360 OA
HETATM   22  H   UNL     1      -3.808  18.105  20.675  0.00  0.00     0.217 HD
ENDBRANCH   2  21
BRANCH   6  23
HETATM   23  C   UNL     1      -3.280  12.568  22.671  0.00  0.00     0.256 C 
HETATM   24  O   UNL     1      -3.931  12.800  23.697  0.00  0.00    -0.267 OA
HETATM   25  N   UNL     1      -2.623  11.327  22.539  0.00  0.00    -0.348 N 
HETATM   26  C   UNL     1      -1.752  10.985  21.435  0.00  0.00     0.153 C 
BRANCH  25  27
HETATM   27  C   UNL     1      -2.479  10.532  23.788  0.00  0.00     0.167 C 
BRANCH  27  28
HETATM   28  C   UNL     1      -1.084  10.228  24.314  0.00  0.00    -0.007 C 
HETATM   29  C   UNL     1      -0.610   8.923  24.489  0.00  0.00     0.011 C 
HETATM   30  C   UNL     1       0.709   8.686  24.912  0.00  0.00     0.001 C 
HETATM   31  C   UNL     1       1.583   9.748  25.149  0.00  0.00     0.003 C 
HETATM   32  C   UNL     1       1.097  11.052  25.075  0.00  0.00     0.037 C 
HETATM   33  C   UNL     1      -0.239  11.275  24.739  0.00  0.00     0.076 C 
BRANCH  33  34
HETATM   34  O   UNL     1      -0.699  12.564  24.865  0.00  0.00    -0.355 OA
HETATM   35  C   UNL     1      -1.373  12.717  26.122  0.00  0.00     0.210 C 
ENDBRANCH  33  34
ENDBRANCH  27  28
ENDBRANCH  25  27
ENDBRANCH   6  23
BRANCH   4  36
HETATM   36  O   UNL     1      -5.621  13.852  21.698  0.00  0.00    -0.360 OA
HETATM   37  H   UNL     1      -5.933  13.338  20.934  0.00  0.00     0.217 HD
ENDBRANCH   4  36
TORSDOF 8
ENDMDL
MODEL 4
REMARK VINA RESULT:    -8.680      1.566      2.338
REMARK INTER + INTRA:         -14.261
REMARK INTER:                 -13.041
REMARK INTRA:                  -1.220
REMARK UNBOUND:                -2.029
REMARK  8 active torsions:
REMARK  status: ('A' for Active; 'I' for Inactive)
REMARK    1  A    between atoms: C_7  and  N_8 
REMARK    2  A    between atoms: C_14  and  C_15 
REMARK    3  A    between atoms: C_16  and  O_17 
REMARK    4  A    between atoms: C_19  and  O_20 
REMARK    5  A    between atoms: C_22  and  C_23 
REMARK       I    between atoms: C_23  and  N_25 
REMARK    6  A    between atoms: N_25  and  C_27 
REMARK    7  A    between atoms: C_27  and  C_28 
REMARK    8  A    between atoms: C_33  and  O_34 
ROOT
HETATM    1  C   UNL     1      -1.866  15.596  20.649  0.00  0.00     0.046 A 
HETATM    2  C   UNL     1      -3.087  15.961  20.032  0.00  0.00     0.082 A 
HETATM    3  C   UNL     1      -4.275  15.293  20.303  0.00  0.00     0.075 A 
HETATM    4  C   UNL     1      -4.289  14.249  21.221  0.00  0.00     0.084 A 
HETATM    5  C   UNL     1      -1.890  14.502  21.558  0.00  0.00     0.038 A 
HETATM    6  C   UNL     1      -3.112  13.845  21.899  0.00  0.00     0.066 A 
ENDROOT
BRANCH   1   7
HETATM    7  C   UNL     1      -0.675  16.470  20.320  0.00  0.00     0.172 A 
HETATM    8  N   UNL     1       0.615  16.406  20.816  0.00  0.00    -0.244 N 
HETATM    9  C   UNL     1       1.295  17.460  20.201  0.00  0.00     0.349 A 
HETATM   10  O   UNL     1       2.427  17.891  20.398  0.00  0.00    -0.245 OA
HETATM   11  N   UNL     1       0.383  18.049  19.353  0.00  0.00    -0.226 N 
HETATM   12  H   UNL     1       0.514  18.944  18.902  0.00  0.00     0.194 HD
HETATM   13  N   UNL     1      -0.829  17.440  19.451  0.00  0.00    -0.151 NA
BRANCH   8  14
HETATM   14  C   UNL     1       1.185  15.765  21.931  0.00  0.00     0.051 C 
HETATM   15  C   UNL     1       1.983  14.610  21.814  0.00  0.00    -0.035 C 
HETATM   16  C   UNL     1       2.016  13.789  20.549  0.00  0.00     0.050 C 
HETATM   17  C   UNL     1       2.571  14.067  22.965  0.00  0.00     0.009 C 
HETATM   18  C   UNL     1       2.235  14.541  24.235  0.00  0.00     0.001 C 
HETATM   19  C   UNL     1       1.307  15.565  24.361  0.00  0.00     0.002 C 
HETATM   20  C   UNL     1       0.807  16.188  23.216  0.00  0.00     0.031 C 
ENDBRANCH   8  14
ENDBRANCH   1   7
BRANCH   2  21
HETATM   21  O   UNL     1      -3.240  17.004  19.152  0.00  0.00    -0.360 OA
HETATM   22  H   UNL     1      -2.762  17.785  19.507  0.00  0.00     0.217 HD
ENDBRANCH   2  21
BRANCH   6  23
HETATM   23  C   UNL     1      -3.314  13.006  23.150  0.00  0.00     0.256 C 
HETATM   24  O   UNL     1      -4.263  13.346  23.868  0.00  0.00    -0.267 OA
HETATM   25  N   UNL     1      -2.471  11.959  23.576  0.00  0.00    -0.348 N 
HETATM   26  C   UNL     1      -1.275  11.545  22.872  0.00  0.00     0.153 C 
BRANCH  25  27
HETATM   27  C   UNL     1      -2.579  11.579  25.010  0.00  0.00     0.167 C 
BRANCH  27  28
HETATM   28  C   UNL     1      -2.321  12.633  26.075  0.00  0.00    -0.007 C 
HETATM   29  C   UNL     1      -1.450  13.710  25.876  0.00  0.00     0.011 C 
HETATM   30  C   UNL     1      -1.291  14.701  26.861  0.00  0.00     0.001 C 
HETATM   31  C   UNL     1      -2.015  14.642  28.054  0.00  0.00     0.003 C 
HETATM   32  C   UNL     1      -2.809  13.525  28.306  0.00  0.00     0.037 C 
HETATM   33  C   UNL     1      -2.891  12.505  27.359  0.00  0.00     0.076 C 
BRANCH  33  34
HETATM   34  O   UNL     1      -3.539  11.355  27.746  0.00  0.00    -0.355 OA
HETATM   35  C   UNL     1      -4.842  11.310  27.148  0.00  0.00     0.210 C 
ENDBRANCH  33  34
ENDBRANCH  27  28
ENDBRANCH  25  27
ENDBRANCH   6  23
BRANCH   4  36
HETATM   36  O   UNL     1      -5.494  13.629  21.438  0.00  0.00    -0.360 OA
HETATM   37  H   UNL     1      -5.560  12.841  20.872  0.00  0.00     0.217 HD
ENDBRANCH   4  36
TORSDOF 8
ENDMDL
MODEL 5
REMARK VINA RESULT:    -8.619      2.732      7.727
REMARK INTER + INTRA:         -14.176
REMARK INTER:                 -12.539
REMARK INTRA:                  -1.637
REMARK UNBOUND:                -2.029
REMARK  8 active torsions:
REMARK  status: ('A' for Active; 'I' for Inactive)
REMARK    1  A    between atoms: C_7  and  N_8 
REMARK    2  A    between atoms: C_14  and  C_15 
REMARK    3  A    between atoms: C_16  and  O_17 
REMARK    4  A    between atoms: C_19  and  O_20 
REMARK    5  A    between atoms: C_22  and  C_23 
REMARK       I    between atoms: C_23  and  N_25 
REMARK    6  A    between atoms: N_25  and  C_27 
REMARK    7  A    between atoms: C_27  and  C_28 
REMARK    8  A    between atoms: C_33  and  O_34 
ROOT
HETATM    1  C   UNL     1      -2.133  13.358  26.108  0.00  0.00     0.046 A 
HETATM    2  C   UNL     1      -2.192  14.033  27.352  0.00  0.00     0.082 A 
HETATM    3  C   UNL     1      -1.224  14.951  27.736  0.00  0.00     0.075 A 
HETATM    4  C   UNL     1      -0.170  15.246  26.879  0.00  0.00     0.084 A 
HETATM    5  C   UNL     1      -1.028  13.643  25.258  0.00  0.00     0.038 A 
HETATM    6  C   UNL     1      -0.057  14.632  25.607  0.00  0.00     0.066 A 
ENDROOT
BRANCH   1   7
HETATM    7  C   UNL     1      -3.303  12.452  25.793  0.00  0.00     0.172 A 
HETATM    8  N   UNL     1      -3.731  11.978  24.566  0.00  0.00    -0.244 N 
HETATM    9  C   UNL     1      -4.866  11.214  24.846  0.00  0.00     0.349 A 
HETATM   10  O   UNL     1      -5.669  10.683  24.083  0.00  0.00    -0.245 OA
HETATM   11  N   UNL     1      -5.013  11.248  26.215  0.00  0.00    -0.226 N 
HETATM   12  H   UNL     1      -5.838  10.943  26.711  0.00  0.00     0.194 HD
HETATM   13  N   UNL     1      -4.054  12.029  26.782  0.00  0.00    -0.151 NA
BRANCH   8  14
HETATM   14  C   UNL     1      -3.456  12.358  23.240  0.00  0.00     0.051 C 
HETATM   15  C   UNL     1      -2.517  11.681  22.438  0.00  0.00    -0.035 C 
HETATM   16  C   UNL     1      -1.507  10.726  23.025  0.00  0.00     0.050 C 
HETATM   17  C   UNL     1      -2.347  12.078  21.103  0.00  0.00     0.009 C 
HETATM   18  C   UNL     1      -2.954  13.237  20.616  0.00  0.00     0.001 C 
HETATM   19  C   UNL     1      -3.739  14.007  21.462  0.00  0.00     0.002 C 
HETATM   20  C   UNL     1      -4.008  13.555  22.755  0.00  0.00     0.031 C 
ENDBRANCH   8  14
ENDBRANCH   1   7
BRANCH   2  21
HETATM   21  O   UNL     1      -3.200  13.889  28.274  0.00  0.00    -0.360 OA
HETATM   22  H   UNL     1      -3.163  12.977  28.637  0.00  0.00     0.217 HD
ENDBRANCH   2  21
BRANCH   6  23
HETATM   23  C   UNL     1       0.865  15.316  24.612  0.00  0.00     0.256 C 
HETATM   24  O   UNL     1       0.905  16.550  24.689  0.00  0.00    -0.267 OA
HETATM   25  N   UNL     1       1.585  14.668  23.586  0.00  0.00    -0.348 N 
HETATM   26  C   UNL     1       1.532  13.243  23.336  0.00  0.00     0.153 C 
BRANCH  25  27
HETATM   27  C   UNL     1       2.055  15.535  22.473  0.00  0.00     0.167 C 
BRANCH  27  28
HETATM   28  C   UNL     1       1.030  16.132  21.519  0.00  0.00    -0.007 C 
HETATM   29  C   UNL     1      -0.319  15.759  21.530  0.00  0.00     0.011 C 
HETATM   30  C   UNL     1      -1.246  16.384  20.679  0.00  0.00     0.001 C 
HETATM   31  C   UNL     1      -0.845  17.405  19.815  0.00  0.00     0.003 C 
HETATM   32  C   UNL     1       0.510  17.717  19.723  0.00  0.00     0.037 C 
HETATM   33  C   UNL     1       1.434  17.030  20.509  0.00  0.00     0.076 C 
BRANCH  33  34
HETATM   34  O   UNL     1       2.763  17.255  20.237  0.00  0.00    -0.355 OA
HETATM   35  C   UNL     1       3.297  16.153  19.488  0.00  0.00     0.210 C 
ENDBRANCH  33  34
ENDBRANCH  27  28
ENDBRANCH  25  27
ENDBRANCH   6  23
BRANCH   4  36
HETATM   36  O   UNL     1       0.755  16.158  27.323  0.00  0.00    -0.360 OA
HETATM   37  H   UNL     1       1.609  15.993  26.887  0.00  0.00     0.217 HD
ENDBRANCH   4  36
TORSDOF 8
ENDMDL
MODEL 6
REMARK VINA RESULT:    -8.304      2.070      6.865
REMARK INTER + INTRA:         -13.731
REMARK INTER:                 -12.213
REMARK INTRA:                  -1.518
REMARK UNBOUND:                -2.029
REMARK  8 active torsions:
REMARK  status: ('A' for Active; 'I' for Inactive)
REMARK    1  A    between atoms: C_7  and  N_8 
REMARK    2  A    between atoms: C_14  and  C_15 
REMARK    3  A    between atoms: C_16  and  O_17 
REMARK    4  A    between atoms: C_19  and  O_20 
REMARK    5  A    between atoms: C_22  and  C_23 
REMARK       I    between atoms: C_23  and  N_25 
REMARK    6  A    between atoms: N_25  and  C_27 
REMARK    7  A    between atoms: C_27  and  C_28 
REMARK    8  A    between atoms: C_33  and  O_34 
ROOT
HETATM    1  C   UNL     1      -3.057  14.132  23.628  0.00  0.00     0.046 A 
HETATM    2  C   UNL     1      -3.919  14.308  22.517  0.00  0.00     0.082 A 
HETATM    3  C   UNL     1      -3.585  15.135  21.452  0.00  0.00     0.075 A 
HETATM    4  C   UNL     1      -2.364  15.800  21.448  0.00  0.00     0.084 A 
HETATM    5  C   UNL     1      -1.828  14.849  23.626  0.00  0.00     0.038 A 
HETATM    6  C   UNL     1      -1.439  15.654  22.511  0.00  0.00     0.066 A 
ENDROOT
BRANCH   1   7
HETATM    7  C   UNL     1      -3.518  13.134  24.668  0.00  0.00     0.172 A 
HETATM    8  N   UNL     1      -2.822  12.081  25.232  0.00  0.00    -0.244 N 
HETATM    9  C   UNL     1      -3.725  11.472  26.105  0.00  0.00     0.349 A 
HETATM   10  O   UNL     1      -3.623  10.432  26.750  0.00  0.00    -0.245 OA
HETATM   11  N   UNL     1      -4.878  12.224  26.036  0.00  0.00    -0.226 N 
HETATM   12  H   UNL     1      -5.771  11.939  26.411  0.00  0.00     0.194 HD
HETATM   13  N   UNL     1      -4.740  13.232  25.134  0.00  0.00    -0.151 NA
BRANCH   8  14
HETATM   14  C   UNL     1      -1.639  11.410  24.874  0.00  0.00     0.051 C 
HETATM   15  C   UNL     1      -1.383  10.975  23.559  0.00  0.00    -0.035 C 
HETATM   16  C   UNL     1      -2.473  10.895  22.519  0.00  0.00     0.050 C 
HETATM   17  C   UNL     1      -0.151  10.373  23.266  0.00  0.00     0.009 C 
HETATM   18  C   UNL     1       0.743  10.036  24.284  0.00  0.00     0.001 C 
HETATM   19  C   UNL     1       0.411  10.302  25.604  0.00  0.00     0.002 C 
HETATM   20  C   UNL     1      -0.759  11.007  25.892  0.00  0.00     0.031 C 
ENDBRANCH   8  14
ENDBRANCH   1   7
BRANCH   2  21
HETATM   21  O   UNL     1      -5.125  13.673  22.354  0.00  0.00    -0.360 OA
HETATM   22  H   UNL     1      -5.492  13.465  23.241  0.00  0.00     0.217 HD
ENDBRANCH   2  21
BRANCH   6  23
HETATM   23  C   UNL     1      -0.009  16.075  22.216  0.00  0.00     0.256 C 
HETATM   24  O   UNL     1       0.245  17.268  22.426  0.00  0.00    -0.267 OA
HETATM   25  N   UNL     1       0.988  15.248  21.657  0.00  0.00    -0.348 N 
HETATM   26  C   UNL     1       0.774  13.868  21.274  0.00  0.00     0.153 C 
BRANCH  25  27
HETATM   27  C   UNL     1       2.148  15.950  21.045  0.00  0.00     0.167 C 
BRANCH  27  28
HETATM   28  C   UNL     1       3.557  15.518  21.424  0.00  0.00    -0.007 C 
HETATM   29  C   UNL     1       4.582  15.376  20.483  0.00  0.00     0.011 C 
HETATM   30  C   UNL     1       5.888  15.042  20.883  0.00  0.00     0.001 C 
HETATM   31  C   UNL     1       6.194  14.862  22.234  0.00  0.00     0.003 C 
HETATM   32  C   UNL     1       5.164  14.902  23.171  0.00  0.00     0.037 C 
HETATM   33  C   UNL     1       3.856  15.149  22.752  0.00  0.00     0.076 C 
BRANCH  33  34
HETATM   34  O   UNL     1       2.867  14.992  23.695  0.00  0.00    -0.355 OA
HETATM   35  C   UNL     1       2.955  13.682  24.274  0.00  0.00     0.210 C 
ENDBRANCH  33  34
ENDBRANCH  27  28
ENDBRANCH  25  27
ENDBRANCH   6  23
BRANCH   4  36
HETATM   36  O   UNL     1      -2.100  16.606  20.369  0.00  0.00    -0.360 OA
HETATM   37  H   UNL     1      -1.820  17.484  20.680  0.00  0.00     0.217 HD
ENDBRANCH   4  36
TORSDOF 8
ENDMDL
MODEL 7
REMARK VINA RESULT:    -8.096      3.036      5.092
REMARK INTER + INTRA:         -13.438
REMARK INTER:                 -11.159
REMARK INTRA:                  -2.279
REMARK UNBOUND:                -2.029
REMARK  8 active torsions:
REMARK  status: ('A' for Active; 'I' for Inactive)
REMARK    1  A    between atoms: C_7  and  N_8 
REMARK    2  A    between atoms: C_14  and  C_15 
REMARK    3  A    between atoms: C_16  and  O_17 
REMARK    4  A    between atoms: C_19  and  O_20 
REMARK    5  A    between atoms: C_22  and  C_23 
REMARK       I    between atoms: C_23  and  N_25 
REMARK    6  A    between atoms: N_25  and  C_27 
REMARK    7  A    between atoms: C_27  and  C_28 
REMARK    8  A    between atoms: C_33  and  O_34 
ROOT
HETATM    1  C   UNL     1      -3.115  12.301  23.536  0.00  0.00     0.046 A 
HETATM    2  C   UNL     1      -3.838  12.678  24.694  0.00  0.00     0.082 A 
HETATM    3  C   UNL     1      -3.660  12.036  25.913  0.00  0.00     0.075 A 
HETATM    4  C   UNL     1      -2.733  11.007  26.024  0.00  0.00     0.084 A 
HETATM    5  C   UNL     1      -2.198  11.220  23.657  0.00  0.00     0.038 A 
HETATM    6  C   UNL     1      -1.953  10.591  24.917  0.00  0.00     0.066 A 
ENDROOT
BRANCH   1   7
HETATM    7  C   UNL     1      -3.355  13.147  22.304  0.00  0.00     0.172 A 
HETATM    8  N   UNL     1      -2.462  13.943  21.609  0.00  0.00    -0.244 N 
HETATM    9  C   UNL     1      -3.212  14.520  20.581  0.00  0.00     0.349 A 
HETATM   10  O   UNL     1      -2.903  15.387  19.769  0.00  0.00    -0.245 OA
HETATM   11  N   UNL     1      -4.481  13.999  20.707  0.00  0.00    -0.226 N 
HETATM   12  H   UNL     1      -5.296  14.354  20.227  0.00  0.00     0.194 HD
HETATM   13  N   UNL     1      -4.557  13.171  21.782  0.00  0.00    -0.151 NA
BRANCH   8  14
HETATM   14  C   UNL     1      -1.192  14.460  21.919  0.00  0.00     0.051 C 
HETATM   15  C   UNL     1       0.002  13.829  21.518  0.00  0.00    -0.035 C 
HETATM   16  C   UNL     1       0.023  12.404  21.023  0.00  0.00     0.050 C 
HETATM   17  C   UNL     1       1.230  14.441  21.809  0.00  0.00     0.009 C 
HETATM   18  C   UNL     1       1.294  15.562  22.639  0.00  0.00     0.001 C 
HETATM   19  C   UNL     1       0.127  16.079  23.184  0.00  0.00     0.002 C 
HETATM   20  C   UNL     1      -1.106  15.547  22.805  0.00  0.00     0.031 C 
ENDBRANCH   8  14
ENDBRANCH   1   7
BRANCH   2  21
HETATM   21  O   UNL     1      -4.742  13.711  24.751  0.00  0.00    -0.360 OA
HETATM   22  H   UNL     1      -5.129  13.838  23.857  0.00  0.00     0.217 HD
ENDBRANCH   2  21
BRANCH   6  23
HETATM   23  C   UNL     1      -0.713   9.774  25.240  0.00  0.00     0.256 C 
HETATM   24  O   UNL     1      -0.927   8.652  25.714  0.00  0.00    -0.267 OA
HETATM   25  N   UNL     1       0.618  10.227  25.121  0.00  0.00    -0.348 N 
HETATM   26  C   UNL     1       0.984  11.556  24.678  0.00  0.00     0.153 C 
BRANCH  25  27
HETATM   27  C   UNL     1       1.636   9.464  25.892  0.00  0.00     0.167 C 
BRANCH  27  28
HETATM   28  C   UNL     1       2.575   8.525  25.148  0.00  0.00    -0.007 C 
HETATM   29  C   UNL     1       2.291   8.030  23.871  0.00  0.00     0.011 C 
HETATM   30  C   UNL     1       3.216   7.220  23.190  0.00  0.00     0.001 C 
HETATM   31  C   UNL     1       4.448   6.907  23.767  0.00  0.00     0.003 C 
HETATM   32  C   UNL     1       4.703   7.310  25.076  0.00  0.00     0.037 C 
HETATM   33  C   UNL     1       3.741   8.040  25.775  0.00  0.00     0.076 C 
BRANCH  33  34
HETATM   34  O   UNL     1       3.976   8.245  27.114  0.00  0.00    -0.355 OA
HETATM   35  C   UNL     1       4.542   7.060  27.693  0.00  0.00     0.210 C 
ENDBRANCH  33  34
ENDBRANCH  27  28
ENDBRANCH  25  27
ENDBRANCH   6  23
BRANCH   4  36
HETATM   36  O   UNL     1      -2.611  10.412  27.255  0.00  0.00    -0.360 OA
HETATM   37  H   UNL     1      -3.483  10.369  27.682  0.00  0.00     0.217 HD
ENDBRANCH   4  36
TORSDOF 8
ENDMDL
MODEL 8
REMARK VINA RESULT:    -8.068      2.661      8.137
REMARK INTER + INTRA:         -13.399
REMARK INTER:                 -11.370
REMARK INTRA:                  -2.029
REMARK UNBOUND:                -2.029
REMARK  8 active torsions:
REMARK  status: ('A' for Active; 'I' for Inactive)
REMARK    1  A    between atoms: C_7  and  N_8 
REMARK    2  A    between atoms: C_14  and  C_15 
REMARK    3  A    between atoms: C_16  and  O_17 
REMARK    4  A    between atoms: C_19  and  O_20 
REMARK    5  A    between atoms: C_22  and  C_23 
REMARK       I    between atoms: C_23  and  N_25 
REMARK    6  A    between atoms: N_25  and  C_27 
REMARK    7  A    between atoms: C_27  and  C_28 
REMARK    8  A    between atoms: C_33  and  O_34 
ROOT
HETATM    1  C   UNL     1      -2.177  11.007  26.617  0.00  0.00     0.046 A 
HETATM    2  C   UNL     1      -3.589  10.942  26.695  0.00  0.00     0.082 A 
HETATM    3  C   UNL     1      -4.407  11.627  25.805  0.00  0.00     0.075 A 
HETATM    4  C   UNL     1      -3.839  12.385  24.787  0.00  0.00     0.084 A 
HETATM    5  C   UNL     1      -1.612  11.817  25.592  0.00  0.00     0.038 A 
HETATM    6  C   UNL     1      -2.435  12.477  24.628  0.00  0.00     0.066 A 
ENDROOT
BRANCH   1   7
HETATM    7  C   UNL     1      -1.422  10.140  27.601  0.00  0.00     0.172 A 
HETATM    8  N   UNL     1      -0.403   9.235  27.360  0.00  0.00    -0.244 N 
HETATM    9  C   UNL     1      -0.094   8.693  28.609  0.00  0.00     0.349 A 
HETATM   10  O   UNL     1       0.659   7.769  28.905  0.00  0.00    -0.245 OA
HETATM   11  N   UNL     1      -0.913   9.338  29.510  0.00  0.00    -0.226 N 
HETATM   12  H   UNL     1      -1.057   9.045  30.466  0.00  0.00     0.194 HD
HETATM   13  N   UNL     1      -1.737  10.212  28.872  0.00  0.00    -0.151 NA
BRANCH   8  14
HETATM   14  C   UNL     1       0.071   8.610  26.192  0.00  0.00     0.051 C 
HETATM   15  C   UNL     1       1.099   9.161  25.403  0.00  0.00    -0.035 C 
HETATM   16  C   UNL     1       1.536  10.598  25.552  0.00  0.00     0.050 C 
HETATM   17  C   UNL     1       1.564   8.446  24.290  0.00  0.00     0.009 C 
HETATM   18  C   UNL     1       0.906   7.294  23.851  0.00  0.00     0.001 C 
HETATM   19  C   UNL     1      -0.221   6.849  24.527  0.00  0.00     0.002 C 
HETATM   20  C   UNL     1      -0.618   7.489  25.702  0.00  0.00     0.031 C 
ENDBRANCH   8  14
ENDBRANCH   1   7
BRANCH   2  21
HETATM   21  O   UNL     1      -4.290  10.191  27.606  0.00  0.00    -0.360 OA
HETATM   22  H   UNL     1      -5.211  10.531  27.650  0.00  0.00     0.217 HD
ENDBRANCH   2  21
BRANCH   6  23
HETATM   23  C   UNL     1      -1.944  12.969  23.276  0.00  0.00     0.256 C 
HETATM   24  O   UNL     1      -2.138  12.197  22.330  0.00  0.00    -0.267 OA
HETATM   25  N   UNL     1      -1.229  14.165  23.053  0.00  0.00    -0.348 N 
HETATM   26  C   UNL     1      -0.853  15.091  24.100  0.00  0.00     0.153 C 
BRANCH  25  27
HETATM   27  C   UNL     1      -0.469  14.239  21.777  0.00  0.00     0.167 C 
BRANCH  27  28
HETATM   28  C   UNL     1      -0.458  15.547  20.999  0.00  0.00    -0.007 C 
HETATM   29  C   UNL     1      -1.626  16.153  20.524  0.00  0.00     0.011 C 
HETATM   30  C   UNL     1      -1.578  17.396  19.869  0.00  0.00     0.001 C 
HETATM   31  C   UNL     1      -0.364  18.063  19.695  0.00  0.00     0.003 C 
HETATM   32  C   UNL     1       0.816  17.427  20.074  0.00  0.00     0.037 C 
HETATM   33  C   UNL     1       0.765  16.154  20.643  0.00  0.00     0.076 C 
BRANCH  33  34
HETATM   34  O   UNL     1       1.966  15.510  20.822  0.00  0.00    -0.355 OA
HETATM   35  C   UNL     1       2.989  16.176  20.066  0.00  0.00     0.210 C 
ENDBRANCH  33  34
ENDBRANCH  27  28
ENDBRANCH  25  27
ENDBRANCH   6  23
BRANCH   4  36
HETATM   36  O   UNL     1      -4.704  13.041  23.946  0.00  0.00    -0.360 OA
HETATM   37  H   UNL     1      -5.096  12.406  23.324  0.00  0.00     0.217 HD
ENDBRANCH   4  36
TORSDOF 8
ENDMDL
MODEL 9
REMARK VINA RESULT:    -8.025      3.418      5.746
REMARK INTER + INTRA:         -13.338
REMARK INTER:                 -10.994
REMARK INTRA:                  -2.345
REMARK UNBOUND:                -2.029
REMARK  8 active torsions:
REMARK  status: ('A' for Active; 'I' for Inactive)
REMARK    1  A    between atoms: C_7  and  N_8 
REMARK    2  A    between atoms: C_14  and  C_15 
REMARK    3  A    between atoms: C_16  and  O_17 
REMARK    4  A    between atoms: C_19  and  O_20 
REMARK    5  A    between atoms: C_22  and  C_23 
REMARK       I    between atoms: C_23  and  N_25 
REMARK    6  A    between atoms: N_25  and  C_27 
REMARK    7  A    between atoms: C_27  and  C_28 
REMARK    8  A    between atoms: C_33  and  O_34 
ROOT
HETATM    1  C   UNL     1      -2.603  11.720  23.956  0.00  0.00     0.046 A 
HETATM    2  C   UNL     1      -2.972  12.187  25.241  0.00  0.00     0.082 A 
HETATM    3  C   UNL     1      -2.610  11.513  26.400  0.00  0.00     0.075 A 
HETATM    4  C   UNL     1      -1.844  10.356  26.317  0.00  0.00     0.084 A 
HETATM    5  C   UNL     1      -1.851  10.514  23.887  0.00  0.00     0.038 A 
HETATM    6  C   UNL     1      -1.414   9.841  25.069  0.00  0.00     0.066 A 
ENDROOT
BRANCH   1   7
HETATM    7  C   UNL     1      -2.996  12.607  22.794  0.00  0.00     0.172 A 
HETATM    8  N   UNL     1      -2.184  13.332  21.940  0.00  0.00    -0.244 N 
HETATM    9  C   UNL     1      -3.061  13.992  21.077  0.00  0.00     0.349 A 
HETATM   10  O   UNL     1      -2.837  14.842  20.220  0.00  0.00    -0.245 OA
HETATM   11  N   UNL     1      -4.326  13.584  21.444  0.00  0.00    -0.226 N 
HETATM   12  H   UNL     1      -5.182  14.018  21.130  0.00  0.00     0.194 HD
HETATM   13  N   UNL     1      -4.269  12.746  22.513  0.00  0.00    -0.151 NA
BRANCH   8  14
HETATM   14  C   UNL     1      -0.836  13.729  22.001  0.00  0.00     0.051 C 
HETATM   15  C   UNL     1       0.181  13.069  21.285  0.00  0.00    -0.035 C 
HETATM   16  C   UNL     1      -0.032  11.707  20.671  0.00  0.00     0.050 C 
HETATM   17  C   UNL     1       1.491  13.565  21.345  0.00  0.00     0.009 C 
HETATM   18  C   UNL     1       1.833  14.583  22.237  0.00  0.00     0.001 C 
HETATM   19  C   UNL     1       0.864  15.113  23.076  0.00  0.00     0.002 C 
HETATM   20  C   UNL     1      -0.465  14.706  22.939  0.00  0.00     0.031 C 
ENDBRANCH   8  14
ENDBRANCH   1   7
BRANCH   2  21
HETATM   21  O   UNL     1      -3.675  13.342  25.482  0.00  0.00    -0.360 OA
HETATM   22  H   UNL     1      -3.133  14.106  25.185  0.00  0.00     0.217 HD
ENDBRANCH   2  21
BRANCH   6  23
HETATM   23  C   UNL     1      -0.266   8.846  25.115  0.00  0.00     0.256 C 
HETATM   24  O   UNL     1      -0.599   7.659  25.222  0.00  0.00    -0.267 OA
HETATM   25  N   UNL     1       1.104   9.179  25.131  0.00  0.00    -0.348 N 
HETATM   26  C   UNL     1       1.607  10.536  25.117  0.00  0.00     0.153 C 
BRANCH  25  27
HETATM   27  C   UNL     1       2.025   8.119  25.621  0.00  0.00     0.167 C 
BRANCH  27  28
HETATM   28  C   UNL     1       3.157   7.650  24.719  0.00  0.00    -0.007 C 
HETATM   29  C   UNL     1       3.014   7.518  23.333  0.00  0.00     0.011 C 
HETATM   30  C   UNL     1       4.104   7.147  22.527  0.00  0.00     0.001 C 
HETATM   31  C   UNL     1       5.361   6.920  23.091  0.00  0.00     0.003 C 
HETATM   32  C   UNL     1       5.495   6.950  24.477  0.00  0.00     0.037 C 
HETATM   33  C   UNL     1       4.385   7.233  25.274  0.00  0.00     0.076 C 
BRANCH  33  34
HETATM   34  O   UNL     1       4.541   7.066  26.630  0.00  0.00    -0.355 OA
HETATM   35  C   UNL     1       4.998   5.733  26.903  0.00  0.00     0.210 C 
ENDBRANCH  33  34
ENDBRANCH  27  28
ENDBRANCH  25  27
ENDBRANCH   6  23
BRANCH   4  36
HETATM   36  O   UNL     1      -1.527   9.735  27.500  0.00  0.00    -0.360 OA
HETATM   37  H   UNL     1      -2.080  10.096  28.214  0.00  0.00     0.217 HD
ENDBRANCH   4  36
TORSDOF 8
ENDMDL
