REMARK  8 active torsions:
REMARK  status: ('A' for Active; 'I' for Inactive)
REMARK    1  A    between atoms: C_7  and  N_8 
REMARK    2  A    between atoms: C_14  and  C_15 
REMARK    3  A    between atoms: C_16  and  O_17 
REMARK    4  A    between atoms: C_19  and  O_20 
REMARK    5  A    between atoms: C_22  and  C_23 
REMARK       I    between atoms: C_23  and  N_25 
REMARK    6  A    between atoms: N_25  and  C_27 
REMARK    7  A    between atoms: C_27  and  C_28 
REMARK    8  A    between atoms: C_33  and  O_34 
ROOT
HETATM    1  C   UNL     1       0.075  -1.443  -0.159  0.00  0.00     0.046 A 
HETATM    2  C   UNL     1      -1.150  -1.657  -0.837  0.00  0.00     0.082 A 
HETATM    3  C   UNL     1      -2.035  -0.619  -1.101  0.00  0.00     0.075 A 
HETATM    4  C   UNL     1      -1.715   0.678  -0.716  0.00  0.00     0.084 A 
HETATM    5  C   UNL     1       0.370  -0.116   0.261  0.00  0.00     0.038 A 
HETATM    6  C   UNL     1      -0.496   0.975  -0.058  0.00  0.00     0.066 A 
ENDROOT
BRANCH   1   7
HETATM    7  C   UNL     1       0.972  -2.654  -0.021  0.00  0.00     0.172 A 
HETATM    8  N   UNL     1       2.330  -2.706   0.237  0.00  0.00    -0.244 N 
HETATM    9  C   UNL     1       2.651  -4.065   0.229  0.00  0.00     0.349 A 
HETATM   10  O   UNL     1       3.745  -4.619   0.293  0.00  0.00    -0.245 OA
HETATM   11  N   UNL     1       1.463  -4.729   0.012  0.00  0.00    -0.226 N 
HETATM   12  H   UNL     1       1.389  -5.708  -0.225  0.00  0.00     0.194 HD
HETATM   13  N   UNL     1       0.443  -3.846  -0.158  0.00  0.00    -0.151 NA
BRANCH   8  14
HETATM   14  C   UNL     1       3.357  -1.747   0.176  0.00  0.00     0.051 C 
HETATM   15  C   UNL     1       3.456  -0.809  -0.870  0.00  0.00    -0.035 C 
HETATM   16  C   UNL     1       2.684  -0.965  -2.157  0.00  0.00     0.050 C 
HETATM   17  C   UNL     1       4.470   0.159  -0.826  0.00  0.00     0.009 C 
HETATM   18  C   UNL     1       5.482   0.095   0.134  0.00  0.00     0.001 C 
HETATM   19  C   UNL     1       5.485  -0.939   1.059  0.00  0.00     0.002 C 
HETATM   20  C   UNL     1       4.416  -1.836   1.094  0.00  0.00     0.031 C 
ENDBRANCH   8  14
ENDBRANCH   1   7
BRANCH   2  21
HETATM   21  O   UNL     1      -1.573  -2.868  -1.327  0.00  0.00    -0.360 OA
HETATM   22  H   UNL     1      -0.963  -3.567  -1.003  0.00  0.00     0.217 HD
ENDBRANCH   2  21
BRANCH   6  23
HETATM   23  C   UNL     1      -0.071   2.434  -0.061  0.00  0.00     0.256 C 
HETATM   24  O   UNL     1      -0.359   3.067  -1.084  0.00  0.00    -0.267 OA
HETATM   25  N   UNL     1       0.680   3.068   0.951  0.00  0.00    -0.348 N 
HETATM   26  C   UNL     1       1.162   2.399   2.141  0.00  0.00     0.153 C 
BRANCH  25  27
HETATM   27  C   UNL     1       1.360   4.332   0.561  0.00  0.00     0.167 C 
BRANCH  27  28
HETATM   28  C   UNL     1       1.285   5.530   1.496  0.00  0.00    -0.007 C 
HETATM   29  C   UNL     1       0.170   5.792   2.300  0.00  0.00     0.011 C 
HETATM   30  C   UNL     1       0.168   6.871   3.201  0.00  0.00     0.001 C 
HETATM   31  C   UNL     1       1.288   7.695   3.327  0.00  0.00     0.003 C 
HETATM   32  C   UNL     1       2.365   7.507   2.464  0.00  0.00     0.037 C 
HETATM   33  C   UNL     1       2.321   6.487   1.513  0.00  0.00     0.076 C 
BRANCH  33  34
HETATM   34  O   UNL     1       3.328   6.473   0.577  0.00  0.00    -0.355 OA
HETATM   35  C   UNL     1       2.848   7.024  -0.658  0.00  0.00     0.210 C 
ENDBRANCH  33  34
ENDBRANCH  27  28
ENDBRANCH  25  27
ENDBRANCH   6  23
BRANCH   4  36
HETATM   36  O   UNL     1      -2.636   1.655  -1.002  0.00  0.00    -0.360 OA
HETATM   37  H   UNL     1      -3.215   1.354  -1.723  0.00  0.00     0.217 HD
ENDBRANCH   4  36
TORSDOF 8
