MODEL 1
REMARK VINA RESULT:    -7.224      0.000      0.000
REMARK INTER + INTRA:         -10.634
REMARK INTER:                  -9.474
REMARK INTRA:                  -1.159
REMARK UNBOUND:                -1.299
REMARK  5 active torsions:
REMARK  status: ('A' for Active; 'I' for Inactive)
REMARK    1  A    between atoms: N8_1  and  C24_2 
REMARK    2  A    between atoms: N8_1  and  C7_8 
REMARK    3  A    between atoms: C2_13  and  N1_14 
REMARK    4  A    between atoms: N1_14  and  C17_15 
REMARK    5  A    between atoms: C14_16  and  C13_19 
ROOT
ATOM      1  C17 FTA A   1       4.106  15.314  23.360  1.00  0.00     0.142 C 
ATOM      2  C14 FTA A   1       4.593  16.025  22.324  1.00  0.00     0.158 C 
ATOM      3  C18 FTA A   1       5.260  17.288  22.558  1.00  0.00     0.069 C 
ATOM      4  N21 FTA A   1       5.721  18.313  22.891  1.00  0.00    -0.197 NA
ENDROOT
BRANCH   2   5
ATOM      5  C13 FTA A   1       4.453  15.497  20.947  1.00  0.00     0.197 A 
ATOM      6  N15 FTA A   1       4.249  14.164  20.595  1.00  0.00    -0.093 NA
ATOM      7  N19 FTA A   1       4.221  14.098  19.208  1.00  0.00    -0.231 N 
ATOM      8  N20 FTA A   1       4.407  15.371  18.688  1.00  0.00    -0.017 NA
ATOM      9  H15 FTA A   1       4.084  13.241  18.653  1.00  0.00     0.200 HD
ATOM     10  N16 FTA A   1       4.540  16.241  19.765  1.00  0.00    -0.090 NA
ENDBRANCH   2   5
BRANCH   1  11
ATOM     11  N1  FTA A   1       2.819  14.918  23.331  1.00  0.00    -0.389 N 
ATOM     12  H11 FTA A   1       2.122  15.593  22.983  1.00  0.00     0.159 HD
BRANCH  11  13
ATOM     13  C2  FTA A   1       2.349  13.642  23.744  1.00  0.00     0.028 A 
ATOM     14  C4  FTA A   1       3.059  12.843  24.636  1.00  0.00     0.031 A 
ATOM     15  C6  FTA A   1       2.663  11.512  24.822  1.00  0.00     0.031 A 
ATOM     16  C7  FTA A   1       1.581  10.960  24.141  1.00  0.00     0.032 A 
ATOM     17  C5  FTA A   1       0.870  11.774  23.277  1.00  0.00     0.031 A 
ATOM     18  C3  FTA A   1       1.255  13.092  23.069  1.00  0.00     0.031 A 
BRANCH  16  19
ATOM     19  N8  FTA A   1       1.291   9.572  24.153  1.00  0.00    -0.356 N 
ATOM     20  H1  FTA A   1       0.652   9.229  24.884  1.00  0.00     0.166 HD
BRANCH  19  21
ATOM     21  C24 FTA A   1       1.812   8.611  23.234  1.00  0.00     0.032 A 
ATOM     22  C26 FTA A   1       3.147   8.286  23.212  1.00  0.00     0.029 A 
ATOM     23  C28 FTA A   1       3.616   7.482  22.190  1.00  0.00     0.002 A 
ATOM     24  C30 FTA A   1       2.786   6.968  21.209  1.00  0.00     0.000 A 
ATOM     25  C29 FTA A   1       1.447   7.254  21.242  1.00  0.00     0.002 A 
ATOM     26  C27 FTA A   1       0.970   8.070  22.273  1.00  0.00     0.029 A 
ENDBRANCH  19  21
ENDBRANCH  16  19
ENDBRANCH  11  13
ENDBRANCH   1  11
TORSDOF 5
ENDMDL
MODEL 2
REMARK VINA RESULT:    -7.133      1.788      2.886
REMARK INTER + INTRA:         -10.516
REMARK INTER:                  -9.132
REMARK INTRA:                  -1.384
REMARK UNBOUND:                -1.299
REMARK  5 active torsions:
REMARK  status: ('A' for Active; 'I' for Inactive)
REMARK    1  A    between atoms: N8_1  and  C24_2 
REMARK    2  A    between atoms: N8_1  and  C7_8 
REMARK    3  A    between atoms: C2_13  and  N1_14 
REMARK    4  A    between atoms: N1_14  and  C17_15 
REMARK    5  A    between atoms: C14_16  and  C13_19 
ROOT
ATOM      1  C17 FTA A   1       0.680  14.512  21.573  1.00  0.00     0.142 C 
ATOM      2  C14 FTA A   1       1.354  14.094  20.483  1.00  0.00     0.158 C 
ATOM      3  C18 FTA A   1       0.701  13.253  19.502  1.00  0.00     0.069 C 
ATOM      4  N21 FTA A   1       0.067  12.534  18.827  1.00  0.00    -0.197 NA
ENDROOT
BRANCH   2   5
ATOM      5  C13 FTA A   1       2.760  14.516  20.290  1.00  0.00     0.197 A 
ATOM      6  N15 FTA A   1       3.607  14.109  19.261  1.00  0.00    -0.093 NA
ATOM      7  N19 FTA A   1       4.844  14.700  19.480  1.00  0.00    -0.231 N 
ATOM      8  N20 FTA A   1       4.784  15.469  20.634  1.00  0.00    -0.017 NA
ATOM      9  H15 FTA A   1       5.675  14.585  18.882  1.00  0.00     0.200 HD
ATOM     10  N16 FTA A   1       3.489  15.364  21.131  1.00  0.00    -0.090 NA
ENDBRANCH   2   5
BRANCH   1  11
ATOM     11  N1  FTA A   1       1.215  14.299  22.790  1.00  0.00    -0.389 N 
ATOM     12  H11 FTA A   1       1.477  15.127  23.346  1.00  0.00     0.159 HD
BRANCH  11  13
ATOM     13  C2  FTA A   1       1.445  13.021  23.368  1.00  0.00     0.028 A 
ATOM     14  C4  FTA A   1       2.720  12.587  23.722  1.00  0.00     0.031 A 
ATOM     15  C6  FTA A   1       2.908  11.242  24.068  1.00  0.00     0.031 A 
ATOM     16  C7  FTA A   1       1.862  10.323  24.066  1.00  0.00     0.032 A 
ATOM     17  C5  FTA A   1       0.597  10.776  23.736  1.00  0.00     0.031 A 
ATOM     18  C3  FTA A   1       0.392  12.103  23.377  1.00  0.00     0.031 A 
BRANCH  16  19
ATOM     19  N8  FTA A   1       2.063   8.926  24.206  1.00  0.00    -0.356 N 
ATOM     20  H1  FTA A   1       1.853   8.509  25.124  1.00  0.00     0.166 HD
BRANCH  19  21
ATOM     21  C24 FTA A   1       2.533   8.052  23.180  1.00  0.00     0.032 A 
ATOM     22  C26 FTA A   1       3.864   7.729  23.062  1.00  0.00     0.029 A 
ATOM     23  C28 FTA A   1       4.278   7.021  21.950  1.00  0.00     0.002 A 
ATOM     24  C30 FTA A   1       3.398   6.598  20.969  1.00  0.00     0.000 A 
ATOM     25  C29 FTA A   1       2.064   6.880  21.093  1.00  0.00     0.002 A 
ATOM     26  C27 FTA A   1       1.642   7.601  22.217  1.00  0.00     0.029 A 
ENDBRANCH  19  21
ENDBRANCH  16  19
ENDBRANCH  11  13
ENDBRANCH   1  11
TORSDOF 5
ENDMDL
MODEL 3
REMARK VINA RESULT:    -7.075      1.702      2.676
REMARK INTER + INTRA:         -10.441
REMARK INTER:                  -9.721
REMARK INTRA:                  -0.720
REMARK UNBOUND:                -1.299
REMARK  5 active torsions:
REMARK  status: ('A' for Active; 'I' for Inactive)
REMARK    1  A    between atoms: N8_1  and  C24_2 
REMARK    2  A    between atoms: N8_1  and  C7_8 
REMARK    3  A    between atoms: C2_13  and  N1_14 
REMARK    4  A    between atoms: N1_14  and  C17_15 
REMARK    5  A    between atoms: C14_16  and  C13_19 
ROOT
ATOM      1  C17 FTA A   1       3.513  15.099  22.131  1.00  0.00     0.142 C 
ATOM      2  C14 FTA A   1       3.963  14.059  21.401  1.00  0.00     0.158 C 
ATOM      3  C18 FTA A   1       3.543  13.900  20.025  1.00  0.00     0.069 C 
ATOM      4  N21 FTA A   1       3.076  13.866  18.950  1.00  0.00    -0.197 NA
ENDROOT
BRANCH   2   5
ATOM      5  C13 FTA A   1       4.902  13.091  22.013  1.00  0.00     0.197 A 
ATOM      6  N15 FTA A   1       4.937  11.718  21.779  1.00  0.00    -0.093 NA
ATOM      7  N19 FTA A   1       5.933  11.182  22.585  1.00  0.00    -0.231 N 
ATOM      8  N20 FTA A   1       6.520  12.201  23.322  1.00  0.00    -0.017 NA
ATOM      9  H15 FTA A   1       6.195  10.187  22.630  1.00  0.00     0.200 HD
ATOM     10  N16 FTA A   1       5.889  13.387  22.961  1.00  0.00    -0.090 NA
ENDBRANCH   2   5
BRANCH   1  11
ATOM     11  N1  FTA A   1       2.940  14.856  23.326  1.00  0.00    -0.389 N 
ATOM     12  H11 FTA A   1       2.910  15.630  24.005  1.00  0.00     0.159 HD
BRANCH  11  13
ATOM     13  C2  FTA A   1       2.374  13.614  23.721  1.00  0.00     0.028 A 
ATOM     14  C4  FTA A   1       2.964  12.804  24.689  1.00  0.00     0.031 A 
ATOM     15  C6  FTA A   1       2.488  11.498  24.865  1.00  0.00     0.031 A 
ATOM     16  C7  FTA A   1       1.444  10.982  24.102  1.00  0.00     0.032 A 
ATOM     17  C5  FTA A   1       0.852  11.807  23.162  1.00  0.00     0.031 A 
ATOM     18  C3  FTA A   1       1.318  13.100  22.963  1.00  0.00     0.031 A 
BRANCH  16  19
ATOM     19  N8  FTA A   1       1.086   9.609  24.116  1.00  0.00    -0.356 N 
ATOM     20  H1  FTA A   1       0.384   9.311  24.808  1.00  0.00     0.166 HD
BRANCH  19  21
ATOM     21  C24 FTA A   1       1.619   8.607  23.249  1.00  0.00     0.032 A 
ATOM     22  C26 FTA A   1       2.908   8.150  23.385  1.00  0.00     0.029 A 
ATOM     23  C28 FTA A   1       3.418   7.310  22.412  1.00  0.00     0.002 A 
ATOM     24  C30 FTA A   1       2.669   6.890  21.327  1.00  0.00     0.000 A 
ATOM     25  C29 FTA A   1       1.371   7.308  21.201  1.00  0.00     0.002 A 
ATOM     26  C27 FTA A   1       0.853   8.161  22.182  1.00  0.00     0.029 A 
ENDBRANCH  19  21
ENDBRANCH  16  19
ENDBRANCH  11  13
ENDBRANCH   1  11
TORSDOF 5
ENDMDL
MODEL 4
REMARK VINA RESULT:    -7.021      1.113      2.293
REMARK INTER + INTRA:         -10.371
REMARK INTER:                  -9.147
REMARK INTRA:                  -1.224
REMARK UNBOUND:                -1.299
REMARK  5 active torsions:
REMARK  status: ('A' for Active; 'I' for Inactive)
REMARK    1  A    between atoms: N8_1  and  C24_2 
REMARK    2  A    between atoms: N8_1  and  C7_8 
REMARK    3  A    between atoms: C2_13  and  N1_14 
REMARK    4  A    between atoms: N1_14  and  C17_15 
REMARK    5  A    between atoms: C14_16  and  C13_19 
ROOT
ATOM      1  C17 FTA A   1       2.433  15.278  21.836  1.00  0.00     0.142 C 
ATOM      2  C14 FTA A   1       3.524  15.197  21.048  1.00  0.00     0.158 C 
ATOM      3  C18 FTA A   1       3.471  14.456  19.806  1.00  0.00     0.069 C 
ATOM      4  N21 FTA A   1       3.299  13.778  18.865  1.00  0.00    -0.197 NA
ENDROOT
BRANCH   2   5
ATOM      5  C13 FTA A   1       4.770  15.885  21.457  1.00  0.00     0.197 A 
ATOM      6  N15 FTA A   1       5.473  15.678  22.642  1.00  0.00    -0.093 NA
ATOM      7  N19 FTA A   1       6.550  16.555  22.647  1.00  0.00    -0.231 N 
ATOM      8  N20 FTA A   1       6.529  17.309  21.484  1.00  0.00    -0.017 NA
ATOM      9  H15 FTA A   1       7.253  16.633  23.397  1.00  0.00     0.200 HD
ATOM     10  N16 FTA A   1       5.432  16.888  20.739  1.00  0.00    -0.090 NA
ENDBRANCH   2   5
BRANCH   1  11
ATOM     11  N1  FTA A   1       2.540  14.936  23.134  1.00  0.00    -0.389 N 
ATOM     12  H11 FTA A   1       2.846  15.665  23.795  1.00  0.00     0.159 HD
BRANCH  11  13
ATOM     13  C2  FTA A   1       2.263  13.645  23.662  1.00  0.00     0.028 A 
ATOM     14  C4  FTA A   1       3.199  12.934  24.409  1.00  0.00     0.031 A 
ATOM     15  C6  FTA A   1       2.952  11.585  24.701  1.00  0.00     0.031 A 
ATOM     16  C7  FTA A   1       1.801  10.932  24.266  1.00  0.00     0.032 A 
ATOM     17  C5  FTA A   1       0.870  11.660  23.547  1.00  0.00     0.031 A 
ATOM     18  C3  FTA A   1       1.102  12.994  23.236  1.00  0.00     0.031 A 
BRANCH  16  19
ATOM     19  N8  FTA A   1       1.628   9.528  24.368  1.00  0.00    -0.356 N 
ATOM     20  H1  FTA A   1       1.233   9.163  25.246  1.00  0.00     0.166 HD
BRANCH  19  21
ATOM     21  C24 FTA A   1       1.957   8.580  23.353  1.00  0.00     0.032 A 
ATOM     22  C26 FTA A   1       3.246   8.136  23.171  1.00  0.00     0.029 A 
ATOM     23  C28 FTA A   1       3.528   7.355  22.067  1.00  0.00     0.002 A 
ATOM     24  C30 FTA A   1       2.556   6.977  21.156  1.00  0.00     0.000 A 
ATOM     25  C29 FTA A   1       1.261   7.381  21.347  1.00  0.00     0.002 A 
ATOM     26  C27 FTA A   1       0.973   8.175  22.462  1.00  0.00     0.029 A 
ENDBRANCH  19  21
ENDBRANCH  16  19
ENDBRANCH  11  13
ENDBRANCH   1  11
TORSDOF 5
ENDMDL
MODEL 5
REMARK VINA RESULT:    -6.899      1.053      2.659
REMARK INTER + INTRA:         -10.214
REMARK INTER:                  -9.270
REMARK INTRA:                  -0.944
REMARK UNBOUND:                -1.299
REMARK  5 active torsions:
REMARK  status: ('A' for Active; 'I' for Inactive)
REMARK    1  A    between atoms: N8_1  and  C24_2 
REMARK    2  A    between atoms: N8_1  and  C7_8 
REMARK    3  A    between atoms: C2_13  and  N1_14 
REMARK    4  A    between atoms: N1_14  and  C17_15 
REMARK    5  A    between atoms: C14_16  and  C13_19 
ROOT
ATOM      1  C17 FTA A   1       3.172  15.515  21.692  1.00  0.00     0.142 C 
ATOM      2  C14 FTA A   1       4.072  16.415  21.247  1.00  0.00     0.158 C 
ATOM      3  C18 FTA A   1       4.888  16.116  20.090  1.00  0.00     0.069 C 
ATOM      4  N21 FTA A   1       5.516  15.717  19.184  1.00  0.00    -0.197 NA
ENDROOT
BRANCH   2   5
ATOM      5  C13 FTA A   1       4.206  17.716  21.942  1.00  0.00     0.197 A 
ATOM      6  N15 FTA A   1       3.657  18.928  21.530  1.00  0.00    -0.093 NA
ATOM      7  N19 FTA A   1       4.061  19.899  22.437  1.00  0.00    -0.231 N 
ATOM      8  N20 FTA A   1       4.856  19.311  23.409  1.00  0.00    -0.017 NA
ATOM      9  H15 FTA A   1       3.810  20.898  22.394  1.00  0.00     0.200 HD
ATOM     10  N16 FTA A   1       4.938  17.955  23.110  1.00  0.00    -0.090 NA
ENDBRANCH   2   5
BRANCH   1  11
ATOM     11  N1  FTA A   1       3.204  15.149  22.988  1.00  0.00    -0.389 N 
ATOM     12  H11 FTA A   1       3.670  15.785  23.651  1.00  0.00     0.159 HD
BRANCH  11  13
ATOM     13  C2  FTA A   1       2.642  13.952  23.511  1.00  0.00     0.028 A 
ATOM     14  C4  FTA A   1       3.320  13.156  24.431  1.00  0.00     0.031 A 
ATOM     15  C6  FTA A   1       2.816  11.883  24.729  1.00  0.00     0.031 A 
ATOM     16  C7  FTA A   1       1.661  11.385  24.132  1.00  0.00     0.032 A 
ATOM     17  C5  FTA A   1       0.986  12.198  23.239  1.00  0.00     0.031 A 
ATOM     18  C3  FTA A   1       1.476  13.459  22.920  1.00  0.00     0.031 A 
BRANCH  16  19
ATOM     19  N8  FTA A   1       1.251  10.033  24.256  1.00  0.00    -0.356 N 
ATOM     20  H1  FTA A   1       0.613   9.802  25.031  1.00  0.00     0.166 HD
BRANCH  19  21
ATOM     21  C24 FTA A   1       1.651   8.966  23.396  1.00  0.00     0.032 A 
ATOM     22  C26 FTA A   1       2.936   8.479  23.402  1.00  0.00     0.029 A 
ATOM     23  C28 FTA A   1       3.304   7.568  22.430  1.00  0.00     0.002 A 
ATOM     24  C30 FTA A   1       2.418   7.106  21.472  1.00  0.00     0.000 A 
ATOM     25  C29 FTA A   1       1.124   7.555  21.479  1.00  0.00     0.002 A 
ATOM     26  C27 FTA A   1       0.750   8.480  22.460  1.00  0.00     0.029 A 
ENDBRANCH  19  21
ENDBRANCH  16  19
ENDBRANCH  11  13
ENDBRANCH   1  11
TORSDOF 5
ENDMDL
MODEL 6
REMARK VINA RESULT:    -6.806      1.805      2.701
REMARK INTER + INTRA:         -10.095
REMARK INTER:                  -9.074
REMARK INTRA:                  -1.020
REMARK UNBOUND:                -1.299
REMARK  5 active torsions:
REMARK  status: ('A' for Active; 'I' for Inactive)
REMARK    1  A    between atoms: N8_1  and  C24_2 
REMARK    2  A    between atoms: N8_1  and  C7_8 
REMARK    3  A    between atoms: C2_13  and  N1_14 
REMARK    4  A    between atoms: N1_14  and  C17_15 
REMARK    5  A    between atoms: C14_16  and  C13_19 
ROOT
ATOM      1  C17 FTA A   1       3.419  15.717  22.102  1.00  0.00     0.142 C 
ATOM      2  C14 FTA A   1       4.624  15.379  22.602  1.00  0.00     0.158 C 
ATOM      3  C18 FTA A   1       5.710  16.335  22.593  1.00  0.00     0.069 C 
ATOM      4  N21 FTA A   1       6.507  17.185  22.467  1.00  0.00    -0.197 NA
ENDROOT
BRANCH   2   5
ATOM      5  C13 FTA A   1       4.820  14.027  23.175  1.00  0.00     0.197 A 
ATOM      6  N15 FTA A   1       5.463  12.957  22.556  1.00  0.00    -0.093 NA
ATOM      7  N19 FTA A   1       5.386  11.870  23.416  1.00  0.00    -0.231 N 
ATOM      8  N20 FTA A   1       4.702  12.244  24.563  1.00  0.00    -0.017 NA
ATOM      9  H15 FTA A   1       5.775  10.934  23.231  1.00  0.00     0.200 HD
ATOM     10  N16 FTA A   1       4.360  13.585  24.421  1.00  0.00    -0.090 NA
ENDBRANCH   2   5
BRANCH   1  11
ATOM     11  N1  FTA A   1       2.853  14.924  21.172  1.00  0.00    -0.389 N 
ATOM     12  H11 FTA A   1       2.996  15.174  20.182  1.00  0.00     0.159 HD
BRANCH  11  13
ATOM     13  C2  FTA A   1       2.075  13.767  21.451  1.00  0.00     0.028 A 
ATOM     14  C4  FTA A   1       1.236  13.689  22.560  1.00  0.00     0.031 A 
ATOM     15  C6  FTA A   1       0.679  12.450  22.905  1.00  0.00     0.031 A 
ATOM     16  C7  FTA A   1       0.939  11.293  22.174  1.00  0.00     0.032 A 
ATOM     17  C5  FTA A   1       1.753  11.393  21.061  1.00  0.00     0.031 A 
ATOM     18  C3  FTA A   1       2.326  12.609  20.710  1.00  0.00     0.031 A 
BRANCH  16  19
ATOM     19  N8  FTA A   1       0.560  10.001  22.620  1.00  0.00    -0.356 N 
ATOM     20  H1  FTA A   1      -0.367   9.905  23.059  1.00  0.00     0.166 HD
BRANCH  19  21
ATOM     21  C24 FTA A   1       1.358   8.822  22.509  1.00  0.00     0.032 A 
ATOM     22  C26 FTA A   1       2.540   8.684  23.197  1.00  0.00     0.029 A 
ATOM     23  C28 FTA A   1       3.348   7.599  22.916  1.00  0.00     0.002 A 
ATOM     24  C30 FTA A   1       2.996   6.631  21.991  1.00  0.00     0.000 A 
ATOM     25  C29 FTA A   1       1.803   6.736  21.327  1.00  0.00     0.002 A 
ATOM     26  C27 FTA A   1       0.984   7.836  21.607  1.00  0.00     0.029 A 
ENDBRANCH  19  21
ENDBRANCH  16  19
ENDBRANCH  11  13
ENDBRANCH   1  11
TORSDOF 5
ENDMDL
MODEL 7
REMARK VINA RESULT:    -6.777      1.631      2.160
REMARK INTER + INTRA:         -10.056
REMARK INTER:                  -8.917
REMARK INTRA:                  -1.139
REMARK UNBOUND:                -1.299
REMARK  5 active torsions:
REMARK  status: ('A' for Active; 'I' for Inactive)
REMARK    1  A    between atoms: N8_1  and  C24_2 
REMARK    2  A    between atoms: N8_1  and  C7_8 
REMARK    3  A    between atoms: C2_13  and  N1_14 
REMARK    4  A    between atoms: N1_14  and  C17_15 
REMARK    5  A    between atoms: C14_16  and  C13_19 
ROOT
ATOM      1  C17 FTA A   1       4.873  15.015  21.587  1.00  0.00     0.142 C 
ATOM      2  C14 FTA A   1       4.083  15.388  20.561  1.00  0.00     0.158 C 
ATOM      3  C18 FTA A   1       4.386  16.586  19.808  1.00  0.00     0.069 C 
ATOM      4  N21 FTA A   1       4.718  17.603  19.328  1.00  0.00    -0.197 NA
ENDROOT
BRANCH   2   5
ATOM      5  C13 FTA A   1       2.914  14.553  20.202  1.00  0.00     0.197 A 
ATOM      6  N15 FTA A   1       2.837  13.661  19.134  1.00  0.00    -0.093 NA
ATOM      7  N19 FTA A   1       1.556  13.124  19.130  1.00  0.00    -0.231 N 
ATOM      8  N20 FTA A   1       0.831  13.669  20.179  1.00  0.00    -0.017 NA
ATOM      9  H15 FTA A   1       1.201  12.431  18.455  1.00  0.00     0.200 HD
ATOM     10  N16 FTA A   1       1.674  14.547  20.851  1.00  0.00    -0.090 NA
ENDBRANCH   2   5
BRANCH   1  11
ATOM     11  N1  FTA A   1       4.312  14.772  22.787  1.00  0.00    -0.389 N 
ATOM     12  H11 FTA A   1       4.085  15.585  23.379  1.00  0.00     0.159 HD
BRANCH  11  13
ATOM     13  C2  FTA A   1       4.007  13.482  23.298  1.00  0.00     0.028 A 
ATOM     14  C4  FTA A   1       4.723  12.348  22.923  1.00  0.00     0.031 A 
ATOM     15  C6  FTA A   1       4.231  11.084  23.279  1.00  0.00     0.031 A 
ATOM     16  C7  FTA A   1       3.047  10.926  23.994  1.00  0.00     0.032 A 
ATOM     17  C5  FTA A   1       2.360  12.063  24.381  1.00  0.00     0.031 A 
ATOM     18  C3  FTA A   1       2.824  13.324  24.027  1.00  0.00     0.031 A 
BRANCH  16  19
ATOM     19  N8  FTA A   1       2.424   9.665  24.182  1.00  0.00    -0.356 N 
ATOM     20  H1  FTA A   1       2.076   9.447  25.127  1.00  0.00     0.166 HD
BRANCH  19  21
ATOM     21  C24 FTA A   1       2.241   8.674  23.171  1.00  0.00     0.032 A 
ATOM     22  C26 FTA A   1       3.187   7.705  22.932  1.00  0.00     0.029 A 
ATOM     23  C28 FTA A   1       3.031   6.885  21.831  1.00  0.00     0.002 A 
ATOM     24  C30 FTA A   1       1.944   6.984  20.979  1.00  0.00     0.000 A 
ATOM     25  C29 FTA A   1       0.976   7.920  21.228  1.00  0.00     0.002 A 
ATOM     26  C27 FTA A   1       1.133   8.754  22.340  1.00  0.00     0.029 A 
ENDBRANCH  19  21
ENDBRANCH  16  19
ENDBRANCH  11  13
ENDBRANCH   1  11
TORSDOF 5
ENDMDL
MODEL 8
REMARK VINA RESULT:    -6.669      2.115      7.194
REMARK INTER + INTRA:          -9.917
REMARK INTER:                  -8.619
REMARK INTRA:                  -1.299
REMARK UNBOUND:                -1.299
REMARK  5 active torsions:
REMARK  status: ('A' for Active; 'I' for Inactive)
REMARK    1  A    between atoms: N8_1  and  C24_2 
REMARK    2  A    between atoms: N8_1  and  C7_8 
REMARK    3  A    between atoms: C2_13  and  N1_14 
REMARK    4  A    between atoms: N1_14  and  C17_15 
REMARK    5  A    between atoms: C14_16  and  C13_19 
ROOT
ATOM      1  C17 FTA A   1       0.216  11.196  24.206  1.00  0.00     0.142 C 
ATOM      2  C14 FTA A   1       1.396  10.551  24.293  1.00  0.00     0.158 C 
ATOM      3  C18 FTA A   1       2.408  11.009  25.220  1.00  0.00     0.069 C 
ATOM      4  N21 FTA A   1       3.150  11.523  25.968  1.00  0.00    -0.197 NA
ENDROOT
BRANCH   2   5
ATOM      5  C13 FTA A   1       1.640   9.362  23.445  1.00  0.00     0.197 A 
ATOM      6  N15 FTA A   1       0.680   8.655  22.724  1.00  0.00    -0.093 NA
ATOM      7  N19 FTA A   1       1.322   7.590  22.107  1.00  0.00    -0.231 N 
ATOM      8  N20 FTA A   1       2.670   7.619  22.434  1.00  0.00    -0.017 NA
ATOM      9  H15 FTA A   1       0.870   6.889  21.502  1.00  0.00     0.200 HD
ATOM     10  N16 FTA A   1       2.871   8.723  23.255  1.00  0.00    -0.090 NA
ENDBRANCH   2   5
BRANCH   1  11
ATOM     11  N1  FTA A   1      -0.212  11.610  22.997  1.00  0.00    -0.389 N 
ATOM     12  H11 FTA A   1      -1.121  11.254  22.667  1.00  0.00     0.159 HD
BRANCH  11  13
ATOM     13  C2  FTA A   1       0.494  12.501  22.144  1.00  0.00     0.028 A 
ATOM     14  C4  FTA A   1       1.110  12.072  20.971  1.00  0.00     0.031 A 
ATOM     15  C6  FTA A   1       1.978  12.945  20.301  1.00  0.00     0.031 A 
ATOM     16  C7  FTA A   1       2.246  14.228  20.770  1.00  0.00     0.032 A 
ATOM     17  C5  FTA A   1       1.607  14.648  21.923  1.00  0.00     0.031 A 
ATOM     18  C3  FTA A   1       0.753  13.793  22.610  1.00  0.00     0.031 A 
BRANCH  16  19
ATOM     19  N8  FTA A   1       3.271  15.046  20.231  1.00  0.00    -0.356 N 
ATOM     20  H1  FTA A   1       3.355  15.084  19.205  1.00  0.00     0.166 HD
BRANCH  19  21
ATOM     21  C24 FTA A   1       4.197  15.821  20.993  1.00  0.00     0.032 A 
ATOM     22  C26 FTA A   1       5.130  15.230  21.811  1.00  0.00     0.029 A 
ATOM     23  C28 FTA A   1       5.879  16.033  22.650  1.00  0.00     0.002 A 
ATOM     24  C30 FTA A   1       5.745  17.411  22.675  1.00  0.00     0.000 A 
ATOM     25  C29 FTA A   1       4.846  18.015  21.837  1.00  0.00     0.002 A 
ATOM     26  C27 FTA A   1       4.084  17.204  20.989  1.00  0.00     0.029 A 
ENDBRANCH  19  21
ENDBRANCH  16  19
ENDBRANCH  11  13
ENDBRANCH   1  11
TORSDOF 5
ENDMDL
MODEL 9
REMARK VINA RESULT:    -6.645      1.869      2.352
REMARK INTER + INTRA:          -9.885
REMARK INTER:                  -8.828
REMARK INTRA:                  -1.057
REMARK UNBOUND:                -1.299
REMARK  5 active torsions:
REMARK  status: ('A' for Active; 'I' for Inactive)
REMARK    1  A    between atoms: N8_1  and  C24_2 
REMARK    2  A    between atoms: N8_1  and  C7_8 
REMARK    3  A    between atoms: C2_13  and  N1_14 
REMARK    4  A    between atoms: N1_14  and  C17_15 
REMARK    5  A    between atoms: C14_16  and  C13_19 
ROOT
ATOM      1  C17 FTA A   1       4.373  16.483  22.819  1.00  0.00     0.142 C 
ATOM      2  C14 FTA A   1       5.000  17.521  22.231  1.00  0.00     0.158 C 
ATOM      3  C18 FTA A   1       5.273  18.727  22.982  1.00  0.00     0.069 C 
ATOM      4  N21 FTA A   1       5.374  19.655  23.691  1.00  0.00    -0.197 NA
ENDROOT
BRANCH   2   5
ATOM      5  C13 FTA A   1       5.422  17.409  20.816  1.00  0.00     0.197 A 
ATOM      6  N15 FTA A   1       4.586  17.189  19.723  1.00  0.00    -0.093 NA
ATOM      7  N19 FTA A   1       5.389  17.106  18.593  1.00  0.00    -0.231 N 
ATOM      8  N20 FTA A   1       6.716  17.267  18.964  1.00  0.00    -0.017 NA
ATOM      9  H15 FTA A   1       5.053  16.948  17.632  1.00  0.00     0.200 HD
ATOM     10  N16 FTA A   1       6.738  17.466  20.340  1.00  0.00    -0.090 NA
ENDBRANCH   2   5
BRANCH   1  11
ATOM     11  N1  FTA A   1       3.277  15.966  22.230  1.00  0.00    -0.389 N 
ATOM     12  H11 FTA A   1       2.542  16.624  21.931  1.00  0.00     0.159 HD
BRANCH  11  13
ATOM     13  C2  FTA A   1       3.057  14.583  21.990  1.00  0.00     0.028 A 
ATOM     14  C4  FTA A   1       3.782  13.871  21.038  1.00  0.00     0.031 A 
ATOM     15  C6  FTA A   1       3.363  12.580  20.689  1.00  0.00     0.031 A 
ATOM     16  C7  FTA A   1       2.242  11.985  21.263  1.00  0.00     0.032 A 
ATOM     17  C5  FTA A   1       1.547  12.696  22.226  1.00  0.00     0.031 A 
ATOM     18  C3  FTA A   1       1.938  13.982  22.576  1.00  0.00     0.031 A 
BRANCH  16  19
ATOM     19  N8  FTA A   1       1.680  10.776  20.780  1.00  0.00    -0.356 N 
ATOM     20  H1  FTA A   1       1.000  10.846  20.009  1.00  0.00     0.166 HD
BRANCH  19  21
ATOM     21  C24 FTA A   1       1.978   9.470  21.275  1.00  0.00     0.032 A 
ATOM     22  C26 FTA A   1       2.975   9.260  22.199  1.00  0.00     0.029 A 
ATOM     23  C28 FTA A   1       3.329   7.960  22.506  1.00  0.00     0.002 A 
ATOM     24  C30 FTA A   1       2.697   6.865  21.943  1.00  0.00     0.000 A 
ATOM     25  C29 FTA A   1       1.677   7.061  21.050  1.00  0.00     0.002 A 
ATOM     26  C27 FTA A   1       1.318   8.376  20.734  1.00  0.00     0.029 A 
ENDBRANCH  19  21
ENDBRANCH  16  19
ENDBRANCH  11  13
ENDBRANCH   1  11
TORSDOF 5
ENDMDL
