MODEL 1
REMARK VINA RESULT:    -7.949      0.000      0.000
REMARK INTER + INTRA:         -12.422
REMARK INTER:                 -10.661
REMARK INTRA:                  -1.761
REMARK UNBOUND:                -1.684
REMARK  7 active torsions:
REMARK  status: ('A' for Active; 'I' for Inactive)
REMARK    1  A    between atoms: C_2  and  N_4 
REMARK    2  A    between atoms: N_4  and  S_6 
REMARK    3  A    between atoms: S_6  and  C_9 
REMARK    4  A    between atoms: C_11  and  C_12 
REMARK    5  A    between atoms: N_17  and  C_18 
REMARK    6  A    between atoms: C_25  and  O_26 
REMARK    7  A    between atoms: C_28  and  O_29 
ROOT
HETATM    1  C   UNL     1       4.639   7.102  20.774  0.00  0.00     0.108 C 
HETATM    2  C   UNL     1       3.650   6.745  21.713  0.00  0.00     0.041 C 
HETATM    3  C   UNL     1       3.987   6.318  23.006  0.00  0.00     0.023 C 
HETATM    4  C   UNL     1       5.341   6.072  23.262  0.00  0.00     0.078 C 
HETATM    5  C   UNL     1       6.321   6.302  22.291  0.00  0.00     0.075 C 
HETATM    6  C   UNL     1       5.976   6.858  21.059  0.00  0.00     0.091 C 
ENDROOT
BRANCH   3   7
HETATM    7  C   UNL     1       2.939   6.366  24.108  0.00  0.00     0.277 C 
HETATM    8  N   UNL     1       3.102   5.178  24.984  0.00  0.00    -0.156 NA
HETATM    9  N   UNL     1       3.090   5.525  26.192  0.00  0.00    -0.093 NA
HETATM   10  C   UNL     1       2.941   6.896  26.285  0.00  0.00     0.369 C 
HETATM   11  O   UNL     1       2.750   7.484  27.338  0.00  0.00    -0.243 OA
HETATM   12  N   UNL     1       2.990   7.460  25.019  0.00  0.00    -0.264 N 
BRANCH  12  13
HETATM   13  C   UNL     1       2.813   8.829  24.703  0.00  0.00     0.080 A 
HETATM   14  C   UNL     1       3.855   9.566  24.125  0.00  0.00     0.033 A 
HETATM   15  C   UNL     1       3.704  10.924  23.810  0.00  0.00     0.002 A 
HETATM   16  C   UNL     1       2.500  11.567  24.068  0.00  0.00     0.003 A 
HETATM   17  C   UNL     1       1.445  10.853  24.631  0.00  0.00     0.044 A 
HETATM   18  C   UNL     1       1.605   9.503  24.942  0.00  0.00     0.143 A 
HETATM   19  F   UNL     1       0.575   8.879  25.539  0.00  0.00    -0.204 F 
ENDBRANCH  12  13
ENDBRANCH   3   7
BRANCH   4  20
HETATM   20  O   UNL     1       5.811   5.647  24.472  0.00  0.00    -0.360 OA
HETATM   21  H   UNL     1       6.412   6.308  24.855  0.00  0.00     0.217 HD
ENDBRANCH   4  20
BRANCH   1  22
HETATM   22  S   UNL     1       4.099   7.970  19.308  0.00  0.00     0.246 S 
HETATM   23  O   UNL     1       5.268   8.141  18.469  0.00  0.00    -0.206 OA
HETATM   24  O   UNL     1       3.331   9.136  19.683  0.00  0.00    -0.206 OA
BRANCH  22  25
HETATM   25  N   UNL     1       3.042   6.813  18.547  0.00  0.00    -0.207 NA
HETATM   26  C   UNL     1       3.773   5.932  17.591  0.00  0.00     0.130 C 
BRANCH  25  27
HETATM   27  C   UNL     1       1.706   7.292  18.014  0.00  0.00     0.065 C 
HETATM   28  C   UNL     1       1.735   7.451  16.486  0.00  0.00     0.027 C 
HETATM   29  C   UNL     1       0.550   6.332  18.309  0.00  0.00     0.027 C 
ENDBRANCH  25  27
ENDBRANCH  22  25
ENDBRANCH   1  22
BRANCH   6  30
HETATM   30  O   UNL     1       6.968   7.205  20.194  0.00  0.00    -0.359 OA
HETATM   31  H   UNL     1       7.317   6.414  19.749  0.00  0.00     0.217 HD
ENDBRANCH   6  30
TORSDOF 7
ENDMDL
MODEL 2
REMARK VINA RESULT:    -7.896      5.426      7.824
REMARK INTER + INTRA:         -12.350
REMARK INTER:                 -10.823
REMARK INTRA:                  -1.526
REMARK UNBOUND:                -1.684
REMARK  7 active torsions:
REMARK  status: ('A' for Active; 'I' for Inactive)
REMARK    1  A    between atoms: C_2  and  N_4 
REMARK    2  A    between atoms: N_4  and  S_6 
REMARK    3  A    between atoms: S_6  and  C_9 
REMARK    4  A    between atoms: C_11  and  C_12 
REMARK    5  A    between atoms: N_17  and  C_18 
REMARK    6  A    between atoms: C_25  and  O_26 
REMARK    7  A    between atoms: C_28  and  O_29 
ROOT
HETATM    1  C   UNL     1       2.079   7.185  26.942  0.00  0.00     0.108 C 
HETATM    2  C   UNL     1       1.227   8.271  27.230  0.00  0.00     0.041 C 
HETATM    3  C   UNL     1       0.137   8.587  26.406  0.00  0.00     0.023 C 
HETATM    4  C   UNL     1       0.045   7.908  25.185  0.00  0.00     0.078 C 
HETATM    5  C   UNL     1       0.964   6.915  24.831  0.00  0.00     0.075 C 
HETATM    6  C   UNL     1       1.958   6.522  25.728  0.00  0.00     0.091 C 
ENDROOT
BRANCH   3   7
HETATM    7  C   UNL     1      -0.991   9.448  26.953  0.00  0.00     0.277 C 
HETATM    8  N   UNL     1      -1.023   9.322  28.433  0.00  0.00    -0.156 NA
HETATM    9  N   UNL     1      -1.104  10.459  28.963  0.00  0.00    -0.093 NA
HETATM   10  C   UNL     1      -1.124  11.433  27.984  0.00  0.00     0.369 C 
HETATM   11  O   UNL     1      -1.345  12.613  28.209  0.00  0.00    -0.243 OA
HETATM   12  N   UNL     1      -0.910  10.855  26.742  0.00  0.00    -0.264 N 
BRANCH  12  13
HETATM   13  C   UNL     1      -0.921  11.521  25.491  0.00  0.00     0.080 A 
HETATM   14  C   UNL     1       0.172  12.300  25.091  0.00  0.00     0.033 A 
HETATM   15  C   UNL     1       0.178  12.974  23.861  0.00  0.00     0.002 A 
HETATM   16  C   UNL     1      -0.914  12.874  23.008  0.00  0.00     0.003 A 
HETATM   17  C   UNL     1      -2.007  12.095  23.378  0.00  0.00     0.044 A 
HETATM   18  C   UNL     1      -2.006  11.430  24.604  0.00  0.00     0.143 A 
HETATM   19  F   UNL     1      -3.111  10.743  24.937  0.00  0.00    -0.204 F 
ENDBRANCH  12  13
ENDBRANCH   3   7
BRANCH   4  20
HETATM   20  O   UNL     1      -0.958   8.118  24.283  0.00  0.00    -0.360 OA
HETATM   21  H   UNL     1      -1.444   8.933  24.496  0.00  0.00     0.217 HD
ENDBRANCH   4  20
BRANCH   1  22
HETATM   22  S   UNL     1       3.194   6.655  28.233  0.00  0.00     0.246 S 
HETATM   23  O   UNL     1       4.539   6.851  27.731  0.00  0.00    -0.206 OA
HETATM   24  O   UNL     1       2.809   5.345  28.708  0.00  0.00    -0.206 OA
BRANCH  22  25
HETATM   25  N   UNL     1       2.904   7.825  29.492  0.00  0.00    -0.207 NA
HETATM   26  C   UNL     1       4.121   8.632  29.797  0.00  0.00     0.130 C 
BRANCH  25  27
HETATM   27  C   UNL     1       2.154   7.383  30.733  0.00  0.00     0.065 C 
HETATM   28  C   UNL     1       1.897   8.563  31.684  0.00  0.00     0.027 C 
HETATM   29  C   UNL     1       0.777   6.784  30.435  0.00  0.00     0.027 C 
ENDBRANCH  25  27
ENDBRANCH  22  25
ENDBRANCH   1  22
BRANCH   6  30
HETATM   30  O   UNL     1       2.742   5.455  25.413  0.00  0.00    -0.359 OA
HETATM   31  H   UNL     1       3.625   5.560  25.808  0.00  0.00     0.217 HD
ENDBRANCH   6  30
TORSDOF 7
ENDMDL
MODEL 3
REMARK VINA RESULT:    -7.651      2.424      3.738
REMARK INTER + INTRA:         -12.019
REMARK INTER:                 -10.143
REMARK INTRA:                  -1.876
REMARK UNBOUND:                -1.684
REMARK  7 active torsions:
REMARK  status: ('A' for Active; 'I' for Inactive)
REMARK    1  A    between atoms: C_2  and  N_4 
REMARK    2  A    between atoms: N_4  and  S_6 
REMARK    3  A    between atoms: S_6  and  C_9 
REMARK    4  A    between atoms: C_11  and  C_12 
REMARK    5  A    between atoms: N_17  and  C_18 
REMARK    6  A    between atoms: C_25  and  O_26 
REMARK    7  A    between atoms: C_28  and  O_29 
ROOT
HETATM    1  C   UNL     1       4.456   7.589  22.480  0.00  0.00     0.108 C 
HETATM    2  C   UNL     1       3.417   8.248  23.167  0.00  0.00     0.041 C 
HETATM    3  C   UNL     1       3.339   8.236  24.567  0.00  0.00     0.023 C 
HETATM    4  C   UNL     1       4.218   7.383  25.245  0.00  0.00     0.078 C 
HETATM    5  C   UNL     1       5.172   6.624  24.560  0.00  0.00     0.075 C 
HETATM    6  C   UNL     1       5.321   6.758  23.179  0.00  0.00     0.091 C 
ENDROOT
BRANCH   3   7
HETATM    7  C   UNL     1       2.502   9.287  25.281  0.00  0.00     0.277 C 
HETATM    8  N   UNL     1       2.439  10.510  24.441  0.00  0.00    -0.156 NA
HETATM    9  N   UNL     1       1.253  10.917  24.355  0.00  0.00    -0.093 NA
HETATM   10  C   UNL     1       0.416  10.077  25.064  0.00  0.00     0.369 C 
HETATM   11  O   UNL     1      -0.764  10.317  25.271  0.00  0.00    -0.243 OA
HETATM   12  N   UNL     1       1.131   8.983  25.526  0.00  0.00    -0.264 N 
BRANCH  12  13
HETATM   13  C   UNL     1       0.632   7.937  26.342  0.00  0.00     0.080 A 
HETATM   14  C   UNL     1       1.014   7.840  27.686  0.00  0.00     0.033 A 
HETATM   15  C   UNL     1       0.537   6.809  28.509  0.00  0.00     0.002 A 
HETATM   16  C   UNL     1      -0.335   5.858  27.996  0.00  0.00     0.003 A 
HETATM   17  C   UNL     1      -0.739   5.940  26.666  0.00  0.00     0.044 A 
HETATM   18  C   UNL     1      -0.258   6.968  25.854  0.00  0.00     0.143 A 
HETATM   19  F   UNL     1      -0.633   6.964  24.564  0.00  0.00    -0.204 F 
ENDBRANCH  12  13
ENDBRANCH   3   7
BRANCH   4  20
HETATM   20  O   UNL     1       4.250   7.266  26.605  0.00  0.00    -0.360 OA
HETATM   21  H   UNL     1       3.453   7.657  27.000  0.00  0.00     0.217 HD
ENDBRANCH   4  20
BRANCH   1  22
HETATM   22  S   UNL     1       4.663   7.972  20.747  0.00  0.00     0.246 S 
HETATM   23  O   UNL     1       6.064   8.284  20.552  0.00  0.00    -0.206 OA
HETATM   24  O   UNL     1       3.668   8.937  20.335  0.00  0.00    -0.206 OA
BRANCH  22  25
HETATM   25  N   UNL     1       4.329   6.445  19.976  0.00  0.00    -0.207 NA
HETATM   26  C   UNL     1       4.775   6.429  18.552  0.00  0.00     0.130 C 
BRANCH  25  27
HETATM   27  C   UNL     1       2.968   5.811  20.182  0.00  0.00     0.065 C 
HETATM   28  C   UNL     1       2.042   6.066  18.983  0.00  0.00     0.027 C 
HETATM   29  C   UNL     1       3.021   4.289  20.349  0.00  0.00     0.027 C 
ENDBRANCH  25  27
ENDBRANCH  22  25
ENDBRANCH   1  22
BRANCH   6  30
HETATM   30  O   UNL     1       6.353   6.117  22.564  0.00  0.00    -0.359 OA
HETATM   31  H   UNL     1       6.011   5.437  21.958  0.00  0.00     0.217 HD
ENDBRANCH   6  30
TORSDOF 7
ENDMDL
MODEL 4
REMARK VINA RESULT:    -7.603      2.736      6.631
REMARK INTER + INTRA:         -11.954
REMARK INTER:                 -10.171
REMARK INTRA:                  -1.782
REMARK UNBOUND:                -1.684
REMARK  7 active torsions:
REMARK  status: ('A' for Active; 'I' for Inactive)
REMARK    1  A    between atoms: C_2  and  N_4 
REMARK    2  A    between atoms: N_4  and  S_6 
REMARK    3  A    between atoms: S_6  and  C_9 
REMARK    4  A    between atoms: C_11  and  C_12 
REMARK    5  A    between atoms: N_17  and  C_18 
REMARK    6  A    between atoms: C_25  and  O_26 
REMARK    7  A    between atoms: C_28  and  O_29 
ROOT
HETATM    1  C   UNL     1       3.578   7.620  24.054  0.00  0.00     0.108 C 
HETATM    2  C   UNL     1       3.640   8.153  22.751  0.00  0.00     0.041 C 
HETATM    3  C   UNL     1       4.615   7.736  21.833  0.00  0.00     0.023 C 
HETATM    4  C   UNL     1       5.641   6.919  22.322  0.00  0.00     0.078 C 
HETATM    5  C   UNL     1       5.658   6.487  23.652  0.00  0.00     0.075 C 
HETATM    6  C   UNL     1       4.604   6.802  24.510  0.00  0.00     0.091 C 
ENDROOT
BRANCH   3   7
HETATM    7  C   UNL     1       4.399   7.980  20.347  0.00  0.00     0.277 C 
HETATM    8  N   UNL     1       5.658   8.498  19.752  0.00  0.00    -0.156 NA
HETATM    9  N   UNL     1       5.927   7.873  18.695  0.00  0.00    -0.093 NA
HETATM   10  C   UNL     1       4.962   6.912  18.459  0.00  0.00     0.369 C 
HETATM   11  O   UNL     1       4.896   6.262  17.427  0.00  0.00    -0.243 OA
HETATM   12  N   UNL     1       4.086   6.854  19.532  0.00  0.00    -0.264 N 
BRANCH  12  13
HETATM   13  C   UNL     1       2.933   6.036  19.631  0.00  0.00     0.080 A 
HETATM   14  C   UNL     1       2.942   4.889  20.436  0.00  0.00     0.033 A 
HETATM   15  C   UNL     1       1.814   4.062  20.542  0.00  0.00     0.002 A 
HETATM   16  C   UNL     1       0.655   4.375  19.844  0.00  0.00     0.003 A 
HETATM   17  C   UNL     1       0.617   5.517  19.048  0.00  0.00     0.044 A 
HETATM   18  C   UNL     1       1.744   6.332  18.946  0.00  0.00     0.143 A 
HETATM   19  F   UNL     1       1.672   7.387  18.117  0.00  0.00    -0.204 F 
ENDBRANCH  12  13
ENDBRANCH   3   7
BRANCH   4  20
HETATM   20  O   UNL     1       6.657   6.443  21.544  0.00  0.00    -0.360 OA
HETATM   21  H   UNL     1       6.345   6.280  20.638  0.00  0.00     0.217 HD
ENDBRANCH   4  20
BRANCH   1  22
HETATM   22  S   UNL     1       2.098   7.944  25.001  0.00  0.00     0.246 S 
HETATM   23  O   UNL     1       2.492   7.979  26.395  0.00  0.00    -0.206 OA
HETATM   24  O   UNL     1       1.047   7.038  24.594  0.00  0.00    -0.206 OA
BRANCH  22  25
HETATM   25  N   UNL     1       1.677   9.562  24.510  0.00  0.00    -0.207 NA
HETATM   26  C   UNL     1       2.729  10.551  24.883  0.00  0.00     0.130 C 
BRANCH  25  27
HETATM   27  C   UNL     1       0.270  10.058  24.778  0.00  0.00     0.065 C 
HETATM   28  C   UNL     1      -0.107   9.903  26.260  0.00  0.00     0.027 C 
HETATM   29  C   UNL     1       0.072  11.542  24.454  0.00  0.00     0.027 C 
ENDBRANCH  25  27
ENDBRANCH  22  25
ENDBRANCH   1  22
BRANCH   6  30
HETATM   30  O   UNL     1       4.578   6.246  25.752  0.00  0.00    -0.359 OA
HETATM   31  H   UNL     1       5.337   6.559  26.275  0.00  0.00     0.217 HD
ENDBRANCH   6  30
TORSDOF 7
ENDMDL
MODEL 5
REMARK VINA RESULT:    -7.560      2.804      6.662
REMARK INTER + INTRA:         -11.896
REMARK INTER:                  -9.852
REMARK INTRA:                  -2.044
REMARK UNBOUND:                -1.684
REMARK  7 active torsions:
REMARK  status: ('A' for Active; 'I' for Inactive)
REMARK    1  A    between atoms: C_2  and  N_4 
REMARK    2  A    between atoms: N_4  and  S_6 
REMARK    3  A    between atoms: S_6  and  C_9 
REMARK    4  A    between atoms: C_11  and  C_12 
REMARK    5  A    between atoms: N_17  and  C_18 
REMARK    6  A    between atoms: C_25  and  O_26 
REMARK    7  A    between atoms: C_28  and  O_29 
ROOT
HETATM    1  C   UNL     1       3.577   8.083  24.157  0.00  0.00     0.108 C 
HETATM    2  C   UNL     1       3.699   8.542  22.830  0.00  0.00     0.041 C 
HETATM    3  C   UNL     1       4.583   7.939  21.922  0.00  0.00     0.023 C 
HETATM    4  C   UNL     1       5.478   6.995  22.439  0.00  0.00     0.078 C 
HETATM    5  C   UNL     1       5.450   6.625  23.787  0.00  0.00     0.075 C 
HETATM    6  C   UNL     1       4.472   7.136  24.639  0.00  0.00     0.091 C 
ENDROOT
BRANCH   3   7
HETATM    7  C   UNL     1       4.382   8.148  20.429  0.00  0.00     0.277 C 
HETATM    8  N   UNL     1       5.645   8.658  19.837  0.00  0.00    -0.156 NA
HETATM    9  N   UNL     1       5.929   8.011  18.797  0.00  0.00    -0.093 NA
HETATM   10  C   UNL     1       4.972   7.040  18.572  0.00  0.00     0.369 C 
HETATM   11  O   UNL     1       4.920   6.366  17.555  0.00  0.00    -0.243 OA
HETATM   12  N   UNL     1       4.084   7.002  19.636  0.00  0.00    -0.264 N 
BRANCH  12  13
HETATM   13  C   UNL     1       2.934   6.181  19.742  0.00  0.00     0.080 A 
HETATM   14  C   UNL     1       2.918   5.087  20.617  0.00  0.00     0.033 A 
HETATM   15  C   UNL     1       1.793   4.258  20.731  0.00  0.00     0.002 A 
HETATM   16  C   UNL     1       0.660   4.515  19.969  0.00  0.00     0.003 A 
HETATM   17  C   UNL     1       0.647   5.603  19.101  0.00  0.00     0.044 A 
HETATM   18  C   UNL     1       1.771   6.422  18.992  0.00  0.00     0.143 A 
HETATM   19  F   UNL     1       1.725   7.421  18.095  0.00  0.00    -0.204 F 
ENDBRANCH  12  13
ENDBRANCH   3   7
BRANCH   4  20
HETATM   20  O   UNL     1       6.396   6.334  21.674  0.00  0.00    -0.360 OA
HETATM   21  H   UNL     1       5.951   5.775  21.015  0.00  0.00     0.217 HD
ENDBRANCH   4  20
BRANCH   1  22
HETATM   22  S   UNL     1       2.180   8.673  25.101  0.00  0.00     0.246 S 
HETATM   23  O   UNL     1       1.482   9.627  24.264  0.00  0.00    -0.206 OA
HETATM   24  O   UNL     1       2.616   9.084  26.417  0.00  0.00    -0.206 OA
BRANCH  22  25
HETATM   25  N   UNL     1       1.190   7.246  25.250  0.00  0.00    -0.207 NA
HETATM   26  C   UNL     1      -0.164   7.441  24.655  0.00  0.00     0.130 C 
BRANCH  25  27
HETATM   27  C   UNL     1       1.158   6.522  26.581  0.00  0.00     0.065 C 
HETATM   28  C   UNL     1      -0.228   6.616  27.239  0.00  0.00     0.027 C 
HETATM   29  C   UNL     1       1.463   5.025  26.471  0.00  0.00     0.027 C 
ENDBRANCH  25  27
ENDBRANCH  22  25
ENDBRANCH   1  22
BRANCH   6  30
HETATM   30  O   UNL     1       4.381   6.646  25.906  0.00  0.00    -0.359 OA
HETATM   31  H   UNL     1       3.736   7.162  26.420  0.00  0.00     0.217 HD
ENDBRANCH   6  30
TORSDOF 7
ENDMDL
MODEL 6
REMARK VINA RESULT:    -7.557      3.971      6.302
REMARK INTER + INTRA:         -11.892
REMARK INTER:                  -9.596
REMARK INTRA:                  -2.296
REMARK UNBOUND:                -1.684
REMARK  7 active torsions:
REMARK  status: ('A' for Active; 'I' for Inactive)
REMARK    1  A    between atoms: C_2  and  N_4 
REMARK    2  A    between atoms: N_4  and  S_6 
REMARK    3  A    between atoms: S_6  and  C_9 
REMARK    4  A    between atoms: C_11  and  C_12 
REMARK    5  A    between atoms: N_17  and  C_18 
REMARK    6  A    between atoms: C_25  and  O_26 
REMARK    7  A    between atoms: C_28  and  O_29 
ROOT
HETATM    1  C   UNL     1       1.593   5.552  17.357  0.00  0.00     0.108 C 
HETATM    2  C   UNL     1       2.986   5.511  17.572  0.00  0.00     0.041 C 
HETATM    3  C   UNL     1       3.674   6.596  18.133  0.00  0.00     0.023 C 
HETATM    4  C   UNL     1       2.960   7.790  18.288  0.00  0.00     0.078 C 
HETATM    5  C   UNL     1       1.604   7.878  17.957  0.00  0.00     0.075 C 
HETATM    6  C   UNL     1       0.908   6.747  17.531  0.00  0.00     0.091 C 
ENDROOT
BRANCH   3   7
HETATM    7  C   UNL     1       5.047   6.375  18.750  0.00  0.00     0.277 C 
HETATM    8  N   UNL     1       5.891   7.571  18.496  0.00  0.00    -0.156 NA
HETATM    9  N   UNL     1       6.463   7.931  19.556  0.00  0.00    -0.093 NA
HETATM   10  C   UNL     1       6.100   7.094  20.593  0.00  0.00     0.369 C 
HETATM   11  O   UNL     1       6.619   7.123  21.698  0.00  0.00    -0.243 OA
HETATM   12  N   UNL     1       5.117   6.215  20.164  0.00  0.00    -0.264 N 
BRANCH  12  13
HETATM   13  C   UNL     1       4.537   5.168  20.923  0.00  0.00     0.080 A 
HETATM   14  C   UNL     1       4.867   3.832  20.663  0.00  0.00     0.033 A 
HETATM   15  C   UNL     1       4.299   2.782  21.398  0.00  0.00     0.002 A 
HETATM   16  C   UNL     1       3.390   3.056  22.411  0.00  0.00     0.003 A 
HETATM   17  C   UNL     1       3.055   4.377  22.698  0.00  0.00     0.044 A 
HETATM   18  C   UNL     1       3.623   5.415  21.960  0.00  0.00     0.143 A 
HETATM   19  F   UNL     1       3.219   6.666  22.239  0.00  0.00    -0.204 F 
ENDBRANCH  12  13
ENDBRANCH   3   7
BRANCH   4  20
HETATM   20  O   UNL     1       3.503   8.927  18.815  0.00  0.00    -0.360 OA
HETATM   21  H   UNL     1       2.866   9.371  19.399  0.00  0.00     0.217 HD
ENDBRANCH   4  20
BRANCH   1  22
HETATM   22  S   UNL     1       0.777   4.006  16.988  0.00  0.00     0.246 S 
HETATM   23  O   UNL     1       1.818   3.015  16.807  0.00  0.00    -0.206 OA
HETATM   24  O   UNL     1      -0.193   4.202  15.934  0.00  0.00    -0.206 OA
BRANCH  22  25
HETATM   25  N   UNL     1      -0.062   3.653  18.474  0.00  0.00    -0.207 NA
HETATM   26  C   UNL     1       0.838   3.745  19.660  0.00  0.00     0.130 C 
BRANCH  25  27
HETATM   27  C   UNL     1      -0.985   2.452  18.518  0.00  0.00     0.065 C 
HETATM   28  C   UNL     1      -0.492   1.401  19.526  0.00  0.00     0.027 C 
HETATM   29  C   UNL     1      -2.416   2.794  18.944  0.00  0.00     0.027 C 
ENDBRANCH  25  27
ENDBRANCH  22  25
ENDBRANCH   1  22
BRANCH   6  30
HETATM   30  O   UNL     1      -0.440   6.832  17.357  0.00  0.00    -0.359 OA
HETATM   31  H   UNL     1      -0.643   7.178  16.471  0.00  0.00     0.217 HD
ENDBRANCH   6  30
TORSDOF 7
ENDMDL
MODEL 7
REMARK VINA RESULT:    -7.539      2.076      3.156
REMARK INTER + INTRA:         -11.868
REMARK INTER:                 -10.154
REMARK INTRA:                  -1.714
REMARK UNBOUND:                -1.684
REMARK  7 active torsions:
REMARK  status: ('A' for Active; 'I' for Inactive)
REMARK    1  A    between atoms: C_2  and  N_4 
REMARK    2  A    between atoms: N_4  and  S_6 
REMARK    3  A    between atoms: S_6  and  C_9 
REMARK    4  A    between atoms: C_11  and  C_12 
REMARK    5  A    between atoms: N_17  and  C_18 
REMARK    6  A    between atoms: C_25  and  O_26 
REMARK    7  A    between atoms: C_28  and  O_29 
ROOT
HETATM    1  C   UNL     1       4.405   7.677  21.234  0.00  0.00     0.108 C 
HETATM    2  C   UNL     1       3.690   8.445  22.176  0.00  0.00     0.041 C 
HETATM    3  C   UNL     1       4.001   8.407  23.543  0.00  0.00     0.023 C 
HETATM    4  C   UNL     1       4.914   7.431  23.959  0.00  0.00     0.078 C 
HETATM    5  C   UNL     1       5.536   6.575  23.045  0.00  0.00     0.075 C 
HETATM    6  C   UNL     1       5.314   6.725  21.676  0.00  0.00     0.091 C 
ENDROOT
BRANCH   3   7
HETATM    7  C   UNL     1       3.536   9.536  24.449  0.00  0.00     0.277 C 
HETATM    8  N   UNL     1       3.753  10.833  23.759  0.00  0.00    -0.156 NA
HETATM    9  N   UNL     1       2.721  11.546  23.841  0.00  0.00    -0.093 NA
HETATM   10  C   UNL     1       1.737  10.870  24.537  0.00  0.00     0.369 C 
HETATM   11  O   UNL     1       0.687  11.383  24.891  0.00  0.00    -0.243 OA
HETATM   12  N   UNL     1       2.156   9.575  24.801  0.00  0.00    -0.264 N 
BRANCH  12  13
HETATM   13  C   UNL     1       1.448   8.599  25.545  0.00  0.00     0.080 A 
HETATM   14  C   UNL     1       0.368   7.913  24.974  0.00  0.00     0.033 A 
HETATM   15  C   UNL     1      -0.350   6.949  25.696  0.00  0.00     0.002 A 
HETATM   16  C   UNL     1       0.006   6.653  27.005  0.00  0.00     0.003 A 
HETATM   17  C   UNL     1       1.084   7.312  27.591  0.00  0.00     0.044 A 
HETATM   18  C   UNL     1       1.791   8.271  26.867  0.00  0.00     0.143 A 
HETATM   19  F   UNL     1       2.783   8.919  27.501  0.00  0.00    -0.204 F 
ENDBRANCH  12  13
ENDBRANCH   3   7
BRANCH   4  20
HETATM   20  O   UNL     1       5.305   7.275  25.258  0.00  0.00    -0.360 OA
HETATM   21  H   UNL     1       5.445   6.335  25.463  0.00  0.00     0.217 HD
ENDBRANCH   4  20
BRANCH   1  22
HETATM   22  S   UNL     1       4.174   8.076  19.508  0.00  0.00     0.246 S 
HETATM   23  O   UNL     1       5.495   8.179  18.922  0.00  0.00    -0.206 OA
HETATM   24  O   UNL     1       3.263   9.191  19.379  0.00  0.00    -0.206 OA
BRANCH  22  25
HETATM   25  N   UNL     1       3.409   6.640  18.884  0.00  0.00    -0.207 NA
HETATM   26  C   UNL     1       4.234   5.980  17.831  0.00  0.00     0.130 C 
BRANCH  25  27
HETATM   27  C   UNL     1       1.934   6.696  18.538  0.00  0.00     0.065 C 
HETATM   28  C   UNL     1       1.717   6.810  17.021  0.00  0.00     0.027 C 
HETATM   29  C   UNL     1       1.155   5.453  18.977  0.00  0.00     0.027 C 
ENDBRANCH  25  27
ENDBRANCH  22  25
ENDBRANCH   1  22
BRANCH   6  30
HETATM   30  O   UNL     1       6.044   5.974  20.806  0.00  0.00    -0.359 OA
HETATM   31  H   UNL     1       5.463   5.360  20.324  0.00  0.00     0.217 HD
ENDBRANCH   6  30
TORSDOF 7
ENDMDL
MODEL 8
REMARK VINA RESULT:    -7.508      2.778      6.774
REMARK INTER + INTRA:         -11.825
REMARK INTER:                 -10.141
REMARK INTRA:                  -1.684
REMARK UNBOUND:                -1.684
REMARK  7 active torsions:
REMARK  status: ('A' for Active; 'I' for Inactive)
REMARK    1  A    between atoms: C_2  and  N_4 
REMARK    2  A    between atoms: N_4  and  S_6 
REMARK    3  A    between atoms: S_6  and  C_9 
REMARK    4  A    between atoms: C_11  and  C_12 
REMARK    5  A    between atoms: N_17  and  C_18 
REMARK    6  A    between atoms: C_25  and  O_26 
REMARK    7  A    between atoms: C_28  and  O_29 
ROOT
HETATM    1  C   UNL     1       4.698   6.345  23.527  0.00  0.00     0.108 C 
HETATM    2  C   UNL     1       4.399   6.557  22.165  0.00  0.00     0.041 C 
HETATM    3  C   UNL     1       4.152   7.841  21.659  0.00  0.00     0.023 C 
HETATM    4  C   UNL     1       4.019   8.877  22.591  0.00  0.00     0.078 C 
HETATM    5  C   UNL     1       4.187   8.652  23.961  0.00  0.00     0.075 C 
HETATM    6  C   UNL     1       4.569   7.394  24.427  0.00  0.00     0.091 C 
ENDROOT
BRANCH   3   7
HETATM    7  C   UNL     1       4.272   8.093  20.163  0.00  0.00     0.277 C 
HETATM    8  N   UNL     1       5.698   8.326  19.823  0.00  0.00    -0.156 NA
HETATM    9  N   UNL     1       6.025   7.637  18.824  0.00  0.00    -0.093 NA
HETATM   10  C   UNL     1       4.943   6.892  18.395  0.00  0.00     0.369 C 
HETATM   11  O   UNL     1       4.937   6.247  17.357  0.00  0.00    -0.243 OA
HETATM   12  N   UNL     1       3.890   7.038  19.284  0.00  0.00    -0.264 N 
BRANCH  12  13
HETATM   13  C   UNL     1       2.595   6.478  19.152  0.00  0.00     0.080 A 
HETATM   14  C   UNL     1       2.226   5.354  19.901  0.00  0.00     0.033 A 
HETATM   15  C   UNL     1       0.953   4.779  19.780  0.00  0.00     0.002 A 
HETATM   16  C   UNL     1       0.024   5.328  18.906  0.00  0.00     0.003 A 
HETATM   17  C   UNL     1       0.362   6.454  18.159  0.00  0.00     0.044 A 
HETATM   18  C   UNL     1       1.631   7.017  18.284  0.00  0.00     0.143 A 
HETATM   19  F   UNL     1       1.924   8.065  17.496  0.00  0.00    -0.204 F 
ENDBRANCH  12  13
ENDBRANCH   3   7
BRANCH   4  20
HETATM   20  O   UNL     1       3.773  10.174  22.241  0.00  0.00    -0.360 OA
HETATM   21  H   UNL     1       2.851  10.279  21.949  0.00  0.00     0.217 HD
ENDBRANCH   4  20
BRANCH   1  22
HETATM   22  S   UNL     1       5.349   4.745  23.983  0.00  0.00     0.246 S 
HETATM   23  O   UNL     1       6.709   4.960  24.434  0.00  0.00    -0.206 OA
HETATM   24  O   UNL     1       5.106   3.795  22.920  0.00  0.00    -0.206 OA
BRANCH  22  25
HETATM   25  N   UNL     1       4.375   4.316  25.362  0.00  0.00    -0.207 NA
HETATM   26  C   UNL     1       4.993   3.221  26.165  0.00  0.00     0.130 C 
BRANCH  25  27
HETATM   27  C   UNL     1       2.881   4.144  25.170  0.00  0.00     0.065 C 
HETATM   28  C   UNL     1       2.447   2.690  25.416  0.00  0.00     0.027 C 
HETATM   29  C   UNL     1       2.039   4.994  26.126  0.00  0.00     0.027 C 
ENDBRANCH  25  27
ENDBRANCH  22  25
ENDBRANCH   1  22
BRANCH   6  30
HETATM   30  O   UNL     1       4.867   7.246  25.748  0.00  0.00    -0.359 OA
HETATM   31  H   UNL     1       5.254   8.066  26.099  0.00  0.00     0.217 HD
ENDBRANCH   6  30
TORSDOF 7
ENDMDL
MODEL 9
REMARK VINA RESULT:    -7.489      6.178      7.824
REMARK INTER + INTRA:         -11.800
REMARK INTER:                 -10.124
REMARK INTRA:                  -1.676
REMARK UNBOUND:                -1.684
REMARK  7 active torsions:
REMARK  status: ('A' for Active; 'I' for Inactive)
REMARK    1  A    between atoms: C_2  and  N_4 
REMARK    2  A    between atoms: N_4  and  S_6 
REMARK    3  A    between atoms: S_6  and  C_9 
REMARK    4  A    between atoms: C_11  and  C_12 
REMARK    5  A    between atoms: N_17  and  C_18 
REMARK    6  A    between atoms: C_25  and  O_26 
REMARK    7  A    between atoms: C_28  and  O_29 
ROOT
HETATM    1  C   UNL     1      -0.101   9.726  26.699  0.00  0.00     0.108 C 
HETATM    2  C   UNL     1       1.030   9.106  27.267  0.00  0.00     0.041 C 
HETATM    3  C   UNL     1       1.064   8.739  28.621  0.00  0.00     0.023 C 
HETATM    4  C   UNL     1       0.012   9.189  29.427  0.00  0.00     0.078 C 
HETATM    5  C   UNL     1      -1.056   9.918  28.895  0.00  0.00     0.075 C 
HETATM    6  C   UNL     1      -1.136  10.151  27.522  0.00  0.00     0.091 C 
ENDROOT
BRANCH   3   7
HETATM    7  C   UNL     1       2.077   7.707  29.092  0.00  0.00     0.277 C 
HETATM    8  N   UNL     1       2.728   8.198  30.333  0.00  0.00    -0.156 NA
HETATM    9  N   UNL     1       2.741   7.292  31.205  0.00  0.00    -0.093 NA
HETATM   10  C   UNL     1       2.134   6.155  30.708  0.00  0.00     0.369 C 
HETATM   11  O   UNL     1       2.138   5.080  31.287  0.00  0.00    -0.243 OA
HETATM   12  N   UNL     1       1.585   6.422  29.463  0.00  0.00    -0.264 N 
BRANCH  12  13
HETATM   13  C   UNL     1       0.934   5.492  28.615  0.00  0.00     0.080 A 
HETATM   14  C   UNL     1      -0.431   5.622  28.331  0.00  0.00     0.033 A 
HETATM   15  C   UNL     1      -1.096   4.708  27.501  0.00  0.00     0.002 A 
HETATM   16  C   UNL     1      -0.399   3.648  26.936  0.00  0.00     0.003 A 
HETATM   17  C   UNL     1       0.962   3.504  27.193  0.00  0.00     0.044 A 
HETATM   18  C   UNL     1       1.615   4.416  28.022  0.00  0.00     0.143 A 
HETATM   19  F   UNL     1       2.914   4.195  28.284  0.00  0.00    -0.204 F 
ENDBRANCH  12  13
ENDBRANCH   3   7
BRANCH   4  20
HETATM   20  O   UNL     1      -0.081   8.912  30.761  0.00  0.00    -0.360 OA
HETATM   21  H   UNL     1       0.312   8.046  30.958  0.00  0.00     0.217 HD
ENDBRANCH   4  20
BRANCH   1  22
HETATM   22  S   UNL     1      -0.177   9.812  24.916  0.00  0.00     0.246 S 
HETATM   23  O   UNL     1      -1.180   8.855  24.493  0.00  0.00    -0.206 OA
HETATM   24  O   UNL     1       1.155   9.719  24.362  0.00  0.00    -0.206 OA
BRANCH  22  25
HETATM   25  N   UNL     1      -0.800  11.415  24.638  0.00  0.00    -0.207 NA
HETATM   26  C   UNL     1      -2.166  11.389  24.039  0.00  0.00     0.130 C 
BRANCH  25  27
HETATM   27  C   UNL     1       0.111  12.446  24.000  0.00  0.00     0.065 C 
HETATM   28  C   UNL     1      -0.534  13.069  22.752  0.00  0.00     0.027 C 
HETATM   29  C   UNL     1       0.447  13.621  24.923  0.00  0.00     0.027 C 
ENDBRANCH  25  27
ENDBRANCH  22  25
ENDBRANCH   1  22
BRANCH   6  30
HETATM   30  O   UNL     1      -2.258  10.734  27.018  0.00  0.00    -0.359 OA
HETATM   31  H   UNL     1      -3.040  10.193  27.227  0.00  0.00     0.217 HD
ENDBRANCH   6  30
TORSDOF 7
ENDMDL
