MODEL 1
REMARK VINA RESULT:    -7.029      0.000      0.000
REMARK INTER + INTRA:          -9.960
REMARK INTER:                  -9.037
REMARK INTRA:                  -0.923
REMARK UNBOUND:                -0.877
REMARK  5 active torsions:
REMARK  status: ('A' for Active; 'I' for Inactive)
REMARK    1  A    between atoms: N8_1  and  C24_2 
REMARK    2  A    between atoms: N8_1  and  C7_8 
REMARK    3  A    between atoms: C2_13  and  N1_14 
REMARK    4  A    between atoms: N1_14  and  C17_15 
REMARK    5  A    between atoms: C14_16  and  C13_19 
ROOT
ATOM      1  C17 FTA A   1       1.752   7.548  23.426  1.00  0.00     0.142 C 
ATOM      2  C14 FTA A   1       3.056   7.372  23.134  1.00  0.00     0.158 C 
ATOM      3  C18 FTA A   1       3.681   6.084  23.344  1.00  0.00     0.069 C 
ATOM      4  N21 FTA A   1       4.064   5.010  23.618  1.00  0.00    -0.197 NA
ENDROOT
BRANCH   2   5
ATOM      5  C13 FTA A   1       3.838   8.502  22.583  1.00  0.00     0.197 A 
ATOM      6  N15 FTA A   1       4.392   8.573  21.307  1.00  0.00    -0.093 NA
ATOM      7  N19 FTA A   1       5.079   9.777  21.216  1.00  0.00    -0.231 N 
ATOM      8  N20 FTA A   1       4.964  10.459  22.419  1.00  0.00    -0.017 NA
ATOM      9  H15 FTA A   1       5.593  10.111  20.388  1.00  0.00     0.200 HD
ATOM     10  N16 FTA A   1       4.185   9.675  23.264  1.00  0.00    -0.090 NA
ENDBRANCH   2   5
BRANCH   1  11
ATOM     11  N1  FTA A   1       1.397   8.567  24.234  1.00  0.00    -0.389 N 
ATOM     12  H11 FTA A   1       1.661   8.500  25.227  1.00  0.00     0.159 HD
BRANCH  11  13
ATOM     13  C2  FTA A   1       0.687   9.726  23.819  1.00  0.00     0.028 A 
ATOM     14  C4  FTA A   1       0.462  10.802  24.673  1.00  0.00     0.031 A 
ATOM     15  C6  FTA A   1      -0.436  11.805  24.282  1.00  0.00     0.031 A 
ATOM     16  C7  FTA A   1      -1.113  11.759  23.066  1.00  0.00     0.032 A 
ATOM     17  C5  FTA A   1      -0.859  10.696  22.217  1.00  0.00     0.031 A 
ATOM     18  C3  FTA A   1       0.017   9.685  22.593  1.00  0.00     0.031 A 
BRANCH  16  19
ATOM     19  N8  FTA A   1      -2.173  12.643  22.741  1.00  0.00    -0.356 N 
ATOM     20  H1  FTA A   1      -1.920  13.555  22.334  1.00  0.00     0.166 HD
BRANCH  19  21
ATOM     21  C24 FTA A   1      -3.562  12.374  22.931  1.00  0.00     0.032 A 
ATOM     22  C26 FTA A   1      -4.227  11.444  22.167  1.00  0.00     0.029 A 
ATOM     23  C28 FTA A   1      -5.601  11.354  22.281  1.00  0.00     0.002 A 
ATOM     24  C30 FTA A   1      -6.327  12.141  23.159  1.00  0.00     0.000 A 
ATOM     25  C29 FTA A   1      -5.672  13.044  23.953  1.00  0.00     0.002 A 
ATOM     26  C27 FTA A   1      -4.281  13.141  23.837  1.00  0.00     0.029 A 
ENDBRANCH  19  21
ENDBRANCH  16  19
ENDBRANCH  11  13
ENDBRANCH   1  11
TORSDOF 5
ENDMDL
MODEL 2
REMARK VINA RESULT:    -6.691      2.266      7.993
REMARK INTER + INTRA:          -9.523
REMARK INTER:                  -8.469
REMARK INTRA:                  -1.054
REMARK UNBOUND:                -0.877
REMARK  5 active torsions:
REMARK  status: ('A' for Active; 'I' for Inactive)
REMARK    1  A    between atoms: N8_1  and  C24_2 
REMARK    2  A    between atoms: N8_1  and  C7_8 
REMARK    3  A    between atoms: C2_13  and  N1_14 
REMARK    4  A    between atoms: N1_14  and  C17_15 
REMARK    5  A    between atoms: C14_16  and  C13_19 
ROOT
ATOM      1  C17 FTA A   1      -3.556  13.002  22.387  1.00  0.00     0.142 C 
ATOM      2  C14 FTA A   1      -4.277  12.112  21.677  1.00  0.00     0.158 C 
ATOM      3  C18 FTA A   1      -5.323  11.345  22.319  1.00  0.00     0.069 C 
ATOM      4  N21 FTA A   1      -6.093  10.758  22.980  1.00  0.00    -0.197 NA
ENDROOT
BRANCH   2   5
ATOM      5  C13 FTA A   1      -4.001  11.938  20.232  1.00  0.00     0.197 A 
ATOM      6  N15 FTA A   1      -2.748  11.967  19.625  1.00  0.00    -0.093 NA
ATOM      7  N19 FTA A   1      -2.941  11.810  18.259  1.00  0.00    -0.231 N 
ATOM      8  N20 FTA A   1      -4.299  11.685  18.003  1.00  0.00    -0.017 NA
ATOM      9  H15 FTA A   1      -2.195  11.789  17.548  1.00  0.00     0.200 HD
ATOM     10  N16 FTA A   1      -4.957  11.754  19.226  1.00  0.00    -0.090 NA
ENDBRANCH   2   5
BRANCH   1  11
ATOM     11  N1  FTA A   1      -2.211  12.923  22.356  1.00  0.00    -0.389 N 
ATOM     12  H11 FTA A   1      -1.706  13.624  21.796  1.00  0.00     0.159 HD
BRANCH  11  13
ATOM     13  C2  FTA A   1      -1.437  11.945  23.039  1.00  0.00     0.028 A 
ATOM     14  C4  FTA A   1      -0.909  12.172  24.308  1.00  0.00     0.031 A 
ATOM     15  C6  FTA A   1       0.030  11.268  24.825  1.00  0.00     0.031 A 
ATOM     16  C7  FTA A   1       0.454  10.152  24.109  1.00  0.00     0.032 A 
ATOM     17  C5  FTA A   1      -0.098   9.928  22.861  1.00  0.00     0.031 A 
ATOM     18  C3  FTA A   1      -1.020  10.818  22.325  1.00  0.00     0.031 A 
BRANCH  16  19
ATOM     19  N8  FTA A   1       1.548   9.346  24.518  1.00  0.00    -0.356 N 
ATOM     20  H1  FTA A   1       1.541   8.997  25.487  1.00  0.00     0.166 HD
BRANCH  19  21
ATOM     21  C24 FTA A   1       2.657   8.979  23.697  1.00  0.00     0.032 A 
ATOM     22  C26 FTA A   1       2.871   7.675  23.317  1.00  0.00     0.029 A 
ATOM     23  C28 FTA A   1       4.051   7.360  22.670  1.00  0.00     0.002 A 
ATOM     24  C30 FTA A   1       5.008   8.313  22.364  1.00  0.00     0.000 A 
ATOM     25  C29 FTA A   1       4.789   9.621  22.703  1.00  0.00     0.002 A 
ATOM     26  C27 FTA A   1       3.597   9.943  23.362  1.00  0.00     0.029 A 
ENDBRANCH  19  21
ENDBRANCH  16  19
ENDBRANCH  11  13
ENDBRANCH   1  11
TORSDOF 5
ENDMDL
MODEL 3
REMARK VINA RESULT:    -6.609      1.780      2.824
REMARK INTER + INTRA:          -9.417
REMARK INTER:                  -9.286
REMARK INTRA:                  -0.131
REMARK UNBOUND:                -0.877
REMARK  5 active torsions:
REMARK  status: ('A' for Active; 'I' for Inactive)
REMARK    1  A    between atoms: N8_1  and  C24_2 
REMARK    2  A    between atoms: N8_1  and  C7_8 
REMARK    3  A    between atoms: C2_13  and  N1_14 
REMARK    4  A    between atoms: N1_14  and  C17_15 
REMARK    5  A    between atoms: C14_16  and  C13_19 
ROOT
ATOM      1  C17 FTA A   1       3.043   8.190  23.689  1.00  0.00     0.142 C 
ATOM      2  C14 FTA A   1       3.169   8.245  22.349  1.00  0.00     0.158 C 
ATOM      3  C18 FTA A   1       4.202   9.062  21.748  1.00  0.00     0.069 C 
ATOM      4  N21 FTA A   1       5.041   9.805  21.403  1.00  0.00    -0.197 NA
ENDROOT
BRANCH   2   5
ATOM      5  C13 FTA A   1       2.253   7.452  21.498  1.00  0.00     0.197 A 
ATOM      6  N15 FTA A   1       1.727   7.843  20.268  1.00  0.00    -0.093 NA
ATOM      7  N19 FTA A   1       0.883   6.830  19.833  1.00  0.00    -0.231 N 
ATOM      8  N20 FTA A   1       0.872   5.811  20.775  1.00  0.00    -0.017 NA
ATOM      9  H15 FTA A   1       0.350   6.833  18.951  1.00  0.00     0.200 HD
ATOM     10  N16 FTA A   1       1.729   6.191  21.803  1.00  0.00    -0.090 NA
ENDBRANCH   2   5
BRANCH   1  11
ATOM     11  N1  FTA A   1       1.841   8.446  24.241  1.00  0.00    -0.389 N 
ATOM     12  H11 FTA A   1       1.431   7.719  24.847  1.00  0.00     0.159 HD
BRANCH  11  13
ATOM     13  C2  FTA A   1       1.096   9.641  24.053  1.00  0.00     0.028 A 
ATOM     14  C4  FTA A   1       1.050  10.645  25.017  1.00  0.00     0.031 A 
ATOM     15  C6  FTA A   1       0.121  11.685  24.873  1.00  0.00     0.031 A 
ATOM     16  C7  FTA A   1      -0.761  11.745  23.796  1.00  0.00     0.032 A 
ATOM     17  C5  FTA A   1      -0.686  10.753  22.835  1.00  0.00     0.031 A 
ATOM     18  C3  FTA A   1       0.219   9.707  22.967  1.00  0.00     0.031 A 
BRANCH  16  19
ATOM     19  N8  FTA A   1      -1.841  12.662  23.737  1.00  0.00    -0.356 N 
ATOM     20  H1  FTA A   1      -1.788  13.495  24.342  1.00  0.00     0.166 HD
BRANCH  19  21
ATOM     21  C24 FTA A   1      -2.996  12.527  22.908  1.00  0.00     0.032 A 
ATOM     22  C26 FTA A   1      -4.264  12.729  23.401  1.00  0.00     0.029 A 
ATOM     23  C28 FTA A   1      -5.344  12.415  22.598  1.00  0.00     0.002 A 
ATOM     24  C30 FTA A   1      -5.195  11.935  21.308  1.00  0.00     0.000 A 
ATOM     25  C29 FTA A   1      -3.938  11.765  20.792  1.00  0.00     0.002 A 
ATOM     26  C27 FTA A   1      -2.842  12.079  21.604  1.00  0.00     0.029 A 
ENDBRANCH  19  21
ENDBRANCH  16  19
ENDBRANCH  11  13
ENDBRANCH   1  11
TORSDOF 5
ENDMDL
MODEL 4
REMARK VINA RESULT:    -6.127      8.833     10.250
REMARK INTER + INTRA:          -8.795
REMARK INTER:                  -7.733
REMARK INTRA:                  -1.062
REMARK UNBOUND:                -0.877
REMARK  5 active torsions:
REMARK  status: ('A' for Active; 'I' for Inactive)
REMARK    1  A    between atoms: N8_1  and  C24_2 
REMARK    2  A    between atoms: N8_1  and  C7_8 
REMARK    3  A    between atoms: C2_13  and  N1_14 
REMARK    4  A    between atoms: N1_14  and  C17_15 
REMARK    5  A    between atoms: C14_16  and  C13_19 
ROOT
ATOM      1  C17 FTA A   1       7.382  19.557  19.493  1.00  0.00     0.142 C 
ATOM      2  C14 FTA A   1       8.238  18.557  19.781  1.00  0.00     0.158 C 
ATOM      3  C18 FTA A   1       8.967  17.895  18.720  1.00  0.00     0.069 C 
ATOM      4  N21 FTA A   1       9.442  17.416  17.761  1.00  0.00    -0.197 NA
ENDROOT
BRANCH   2   5
ATOM      5  C13 FTA A   1       8.439  18.153  21.192  1.00  0.00     0.197 A 
ATOM      6  N15 FTA A   1       7.882  17.038  21.815  1.00  0.00    -0.093 NA
ATOM      7  N19 FTA A   1       8.286  17.056  23.143  1.00  0.00    -0.231 N 
ATOM      8  N20 FTA A   1       9.085  18.170  23.361  1.00  0.00    -0.017 NA
ATOM      9  H15 FTA A   1       8.032  16.355  23.855  1.00  0.00     0.200 HD
ATOM     10  N16 FTA A   1       9.190  18.845  22.149  1.00  0.00    -0.090 NA
ENDBRANCH   2   5
BRANCH   1  11
ATOM     11  N1  FTA A   1       6.118  19.485  19.956  1.00  0.00    -0.389 N 
ATOM     12  H11 FTA A   1       5.844  20.148  20.695  1.00  0.00     0.159 HD
BRANCH  11  13
ATOM     13  C2  FTA A   1       5.134  18.566  19.500  1.00  0.00     0.028 A 
ATOM     14  C4  FTA A   1       4.475  17.697  20.367  1.00  0.00     0.031 A 
ATOM     15  C6  FTA A   1       3.693  16.666  19.830  1.00  0.00     0.031 A 
ATOM     16  C7  FTA A   1       3.555  16.479  18.457  1.00  0.00     0.032 A 
ATOM     17  C5  FTA A   1       4.196  17.366  17.610  1.00  0.00     0.031 A 
ATOM     18  C3  FTA A   1       4.987  18.387  18.122  1.00  0.00     0.031 A 
BRANCH  16  19
ATOM     19  N8  FTA A   1       2.947  15.328  17.893  1.00  0.00    -0.356 N 
ATOM     20  H1  FTA A   1       3.525  14.480  17.812  1.00  0.00     0.166 HD
BRANCH  19  21
ATOM     21  C24 FTA A   1       1.599  15.249  17.430  1.00  0.00     0.032 A 
ATOM     22  C26 FTA A   1       0.645  16.155  17.830  1.00  0.00     0.029 A 
ATOM     23  C28 FTA A   1      -0.674  15.924  17.485  1.00  0.00     0.002 A 
ATOM     24  C30 FTA A   1      -1.063  14.833  16.726  1.00  0.00     0.000 A 
ATOM     25  C29 FTA A   1      -0.117  13.945  16.289  1.00  0.00     0.002 A 
ATOM     26  C27 FTA A   1       1.218  14.174  16.640  1.00  0.00     0.029 A 
ENDBRANCH  19  21
ENDBRANCH  16  19
ENDBRANCH  11  13
ENDBRANCH   1  11
TORSDOF 5
ENDMDL
MODEL 5
REMARK VINA RESULT:    -6.102      9.009     10.573
REMARK INTER + INTRA:          -8.762
REMARK INTER:                  -7.814
REMARK INTRA:                  -0.949
REMARK UNBOUND:                -0.877
REMARK  5 active torsions:
REMARK  status: ('A' for Active; 'I' for Inactive)
REMARK    1  A    between atoms: N8_1  and  C24_2 
REMARK    2  A    between atoms: N8_1  and  C7_8 
REMARK    3  A    between atoms: C2_13  and  N1_14 
REMARK    4  A    between atoms: N1_14  and  C17_15 
REMARK    5  A    between atoms: C14_16  and  C13_19 
ROOT
ATOM      1  C17 FTA A   1       5.386  17.195  19.871  1.00  0.00     0.142 C 
ATOM      2  C14 FTA A   1       5.968  18.210  20.541  1.00  0.00     0.158 C 
ATOM      3  C18 FTA A   1       7.293  18.048  21.099  1.00  0.00     0.069 C 
ATOM      4  N21 FTA A   1       8.338  17.756  21.543  1.00  0.00    -0.197 NA
ENDROOT
BRANCH   2   5
ATOM      5  C13 FTA A   1       5.246  19.495  20.687  1.00  0.00     0.197 A 
ATOM      6  N15 FTA A   1       4.211  19.954  19.875  1.00  0.00    -0.093 NA
ATOM      7  N19 FTA A   1       3.852  21.216  20.329  1.00  0.00    -0.231 N 
ATOM      8  N20 FTA A   1       4.649  21.554  21.413  1.00  0.00    -0.017 NA
ATOM      9  H15 FTA A   1       3.111  21.807  19.925  1.00  0.00     0.200 HD
ATOM     10  N16 FTA A   1       5.507  20.483  21.643  1.00  0.00    -0.090 NA
ENDBRANCH   2   5
BRANCH   1  11
ATOM     11  N1  FTA A   1       4.154  16.795  20.237  1.00  0.00    -0.389 N 
ATOM     12  H11 FTA A   1       3.868  16.964  21.212  1.00  0.00     0.159 HD
BRANCH  11  13
ATOM     13  C2  FTA A   1       3.216  16.155  19.381  1.00  0.00     0.028 A 
ATOM     14  C4  FTA A   1       3.591  15.157  18.485  1.00  0.00     0.031 A 
ATOM     15  C6  FTA A   1       2.673  14.734  17.515  1.00  0.00     0.031 A 
ATOM     16  C7  FTA A   1       1.396  15.281  17.415  1.00  0.00     0.032 A 
ATOM     17  C5  FTA A   1       1.031  16.255  18.328  1.00  0.00     0.031 A 
ATOM     18  C3  FTA A   1       1.931  16.697  19.289  1.00  0.00     0.031 A 
BRANCH  16  19
ATOM     19  N8  FTA A   1       0.531  15.023  16.322  1.00  0.00    -0.356 N 
ATOM     20  H1  FTA A   1      -0.479  14.983  16.518  1.00  0.00     0.166 HD
BRANCH  19  21
ATOM     21  C24 FTA A   1       0.945  14.813  14.971  1.00  0.00     0.032 A 
ATOM     22  C26 FTA A   1       1.792  15.688  14.333  1.00  0.00     0.029 A 
ATOM     23  C28 FTA A   1       2.017  15.524  12.980  1.00  0.00     0.002 A 
ATOM     24  C30 FTA A   1       1.446  14.494  12.251  1.00  0.00     0.000 A 
ATOM     25  C29 FTA A   1       0.630  13.594  12.883  1.00  0.00     0.002 A 
ATOM     26  C27 FTA A   1       0.398  13.759  14.253  1.00  0.00     0.029 A 
ENDBRANCH  19  21
ENDBRANCH  16  19
ENDBRANCH  11  13
ENDBRANCH   1  11
TORSDOF 5
ENDMDL
MODEL 6
REMARK VINA RESULT:    -6.093      8.724     10.083
REMARK INTER + INTRA:          -8.750
REMARK INTER:                  -7.875
REMARK INTRA:                  -0.876
REMARK UNBOUND:                -0.877
REMARK  5 active torsions:
REMARK  status: ('A' for Active; 'I' for Inactive)
REMARK    1  A    between atoms: N8_1  and  C24_2 
REMARK    2  A    between atoms: N8_1  and  C7_8 
REMARK    3  A    between atoms: C2_13  and  N1_14 
REMARK    4  A    between atoms: N1_14  and  C17_15 
REMARK    5  A    between atoms: C14_16  and  C13_19 
ROOT
ATOM      1  C17 FTA A   1       5.755  17.454  20.073  1.00  0.00     0.142 C 
ATOM      2  C14 FTA A   1       6.248  18.404  20.891  1.00  0.00     0.158 C 
ATOM      3  C18 FTA A   1       7.494  18.183  21.594  1.00  0.00     0.069 C 
ATOM      4  N21 FTA A   1       8.476  17.845  22.138  1.00  0.00    -0.197 NA
ENDROOT
BRANCH   2   5
ATOM      5  C13 FTA A   1       5.514  19.680  21.052  1.00  0.00     0.197 A 
ATOM      6  N15 FTA A   1       4.561  20.197  20.177  1.00  0.00    -0.093 NA
ATOM      7  N19 FTA A   1       4.159  21.428  20.677  1.00  0.00    -0.231 N 
ATOM      8  N20 FTA A   1       4.848  21.690  21.852  1.00  0.00    -0.017 NA
ATOM      9  H15 FTA A   1       3.459  22.049  20.245  1.00  0.00     0.200 HD
ATOM     10  N16 FTA A   1       5.681  20.602  22.093  1.00  0.00    -0.090 NA
ENDBRANCH   2   5
BRANCH   1  11
ATOM     11  N1  FTA A   1       4.486  17.038  20.249  1.00  0.00    -0.389 N 
ATOM     12  H11 FTA A   1       4.066  17.172  21.181  1.00  0.00     0.159 HD
BRANCH  11  13
ATOM     13  C2  FTA A   1       3.682  16.428  19.248  1.00  0.00     0.028 A 
ATOM     14  C4  FTA A   1       2.334  16.739  19.089  1.00  0.00     0.031 A 
ATOM     15  C6  FTA A   1       1.547  15.943  18.246  1.00  0.00     0.031 A 
ATOM     16  C7  FTA A   1       2.069  14.847  17.563  1.00  0.00     0.032 A 
ATOM     17  C5  FTA A   1       3.415  14.566  17.713  1.00  0.00     0.031 A 
ATOM     18  C3  FTA A   1       4.209  15.335  18.554  1.00  0.00     0.031 A 
BRANCH  16  19
ATOM     19  N8  FTA A   1       1.256  13.910  16.877  1.00  0.00    -0.356 N 
ATOM     20  H1  FTA A   1       1.391  12.913  17.101  1.00  0.00     0.166 HD
BRANCH  19  21
ATOM     21  C24 FTA A   1       0.265  14.233  15.901  1.00  0.00     0.032 A 
ATOM     22  C26 FTA A   1      -1.001  14.627  16.263  1.00  0.00     0.029 A 
ATOM     23  C28 FTA A   1      -1.962  14.758  15.278  1.00  0.00     0.002 A 
ATOM     24  C30 FTA A   1      -1.687  14.537  13.939  1.00  0.00     0.000 A 
ATOM     25  C29 FTA A   1      -0.420  14.181  13.561  1.00  0.00     0.002 A 
ATOM     26  C27 FTA A   1       0.554  14.044  14.557  1.00  0.00     0.029 A 
ENDBRANCH  19  21
ENDBRANCH  16  19
ENDBRANCH  11  13
ENDBRANCH   1  11
TORSDOF 5
ENDMDL
MODEL 7
REMARK VINA RESULT:    -6.073     11.508     12.973
REMARK INTER + INTRA:          -8.725
REMARK INTER:                  -7.772
REMARK INTRA:                  -0.953
REMARK UNBOUND:                -0.877
REMARK  5 active torsions:
REMARK  status: ('A' for Active; 'I' for Inactive)
REMARK    1  A    between atoms: N8_1  and  C24_2 
REMARK    2  A    between atoms: N8_1  and  C7_8 
REMARK    3  A    between atoms: C2_13  and  N1_14 
REMARK    4  A    between atoms: N1_14  and  C17_15 
REMARK    5  A    between atoms: C14_16  and  C13_19 
ROOT
ATOM      1  C17 FTA A   1       6.976  12.659  10.870  1.00  0.00     0.142 C 
ATOM      2  C14 FTA A   1       7.898  12.010  10.132  1.00  0.00     0.158 C 
ATOM      3  C18 FTA A   1       9.157  12.648   9.813  1.00  0.00     0.069 C 
ATOM      4  N21 FTA A   1      10.100  13.307   9.586  1.00  0.00    -0.197 NA
ENDROOT
BRANCH   2   5
ATOM      5  C13 FTA A   1       7.617  10.633   9.664  1.00  0.00     0.197 A 
ATOM      6  N15 FTA A   1       8.467   9.535   9.781  1.00  0.00    -0.093 NA
ATOM      7  N19 FTA A   1       7.840   8.455   9.175  1.00  0.00    -0.231 N 
ATOM      8  N20 FTA A   1       6.611   8.862   8.677  1.00  0.00    -0.017 NA
ATOM      9  H15 FTA A   1       8.226   7.502   9.105  1.00  0.00     0.200 HD
ATOM     10  N16 FTA A   1       6.466  10.210   8.989  1.00  0.00    -0.090 NA
ENDBRANCH   2   5
BRANCH   1  11
ATOM     11  N1  FTA A   1       5.719  12.765  10.398  1.00  0.00    -0.389 N 
ATOM     12  H11 FTA A   1       5.456  12.159   9.607  1.00  0.00     0.159 HD
BRANCH  11  13
ATOM     13  C2  FTA A   1       4.729  13.648  10.907  1.00  0.00     0.028 A 
ATOM     14  C4  FTA A   1       5.058  14.819  11.585  1.00  0.00     0.031 A 
ATOM     15  C6  FTA A   1       4.049  15.522  12.258  1.00  0.00     0.031 A 
ATOM     16  C7  FTA A   1       2.727  15.086  12.272  1.00  0.00     0.032 A 
ATOM     17  C5  FTA A   1       2.412  13.934  11.573  1.00  0.00     0.031 A 
ATOM     18  C3  FTA A   1       3.400  13.216  10.911  1.00  0.00     0.031 A 
BRANCH  16  19
ATOM     19  N8  FTA A   1       1.737  15.658  13.112  1.00  0.00    -0.356 N 
ATOM     20  H1  FTA A   1       1.122  16.372  12.697  1.00  0.00     0.166 HD
BRANCH  19  21
ATOM     21  C24 FTA A   1       1.524  15.325  14.484  1.00  0.00     0.032 A 
ATOM     22  C26 FTA A   1       2.232  15.935  15.492  1.00  0.00     0.029 A 
ATOM     23  C28 FTA A   1       2.105  15.448  16.779  1.00  0.00     0.002 A 
ATOM     24  C30 FTA A   1       1.266  14.392  17.094  1.00  0.00     0.000 A 
ATOM     25  C29 FTA A   1       0.526  13.801  16.105  1.00  0.00     0.002 A 
ATOM     26  C27 FTA A   1       0.656  14.289  14.800  1.00  0.00     0.029 A 
ENDBRANCH  19  21
ENDBRANCH  16  19
ENDBRANCH  11  13
ENDBRANCH   1  11
TORSDOF 5
ENDMDL
MODEL 8
REMARK VINA RESULT:    -6.023      8.894     10.539
REMARK INTER + INTRA:          -8.661
REMARK INTER:                  -7.485
REMARK INTRA:                  -1.176
REMARK UNBOUND:                -0.877
REMARK  5 active torsions:
REMARK  status: ('A' for Active; 'I' for Inactive)
REMARK    1  A    between atoms: N8_1  and  C24_2 
REMARK    2  A    between atoms: N8_1  and  C7_8 
REMARK    3  A    between atoms: C2_13  and  N1_14 
REMARK    4  A    between atoms: N1_14  and  C17_15 
REMARK    5  A    between atoms: C14_16  and  C13_19 
ROOT
ATOM      1  C17 FTA A   1       5.011  17.902  19.725  1.00  0.00     0.142 C 
ATOM      2  C14 FTA A   1       5.625  18.228  18.570  1.00  0.00     0.158 C 
ATOM      3  C18 FTA A   1       5.165  19.362  17.796  1.00  0.00     0.069 C 
ATOM      4  N21 FTA A   1       4.651  20.263  17.250  1.00  0.00    -0.197 NA
ENDROOT
BRANCH   2   5
ATOM      5  C13 FTA A   1       6.781  17.427  18.108  1.00  0.00     0.197 A 
ATOM      6  N15 FTA A   1       8.110  17.609  18.484  1.00  0.00    -0.093 NA
ATOM      7  N19 FTA A   1       8.873  16.680  17.789  1.00  0.00    -0.231 N 
ATOM      8  N20 FTA A   1       8.039  15.920  16.981  1.00  0.00    -0.017 NA
ATOM      9  H15 FTA A   1       9.895  16.571  17.861  1.00  0.00     0.200 HD
ATOM     10  N16 FTA A   1       6.740  16.375  17.186  1.00  0.00    -0.090 NA
ENDBRANCH   2   5
BRANCH   1  11
ATOM     11  N1  FTA A   1       4.576  16.640  19.897  1.00  0.00    -0.389 N 
ATOM     12  H11 FTA A   1       5.032  16.074  20.628  1.00  0.00     0.159 HD
BRANCH  11  13
ATOM     13  C2  FTA A   1       3.534  16.027  19.148  1.00  0.00     0.028 A 
ATOM     14  C4  FTA A   1       3.738  14.866  18.407  1.00  0.00     0.031 A 
ATOM     15  C6  FTA A   1       2.743  14.446  17.513  1.00  0.00     0.031 A 
ATOM     16  C7  FTA A   1       1.556  15.154  17.341  1.00  0.00     0.032 A 
ATOM     17  C5  FTA A   1       1.358  16.291  18.104  1.00  0.00     0.031 A 
ATOM     18  C3  FTA A   1       2.338  16.732  18.985  1.00  0.00     0.031 A 
BRANCH  16  19
ATOM     19  N8  FTA A   1       0.635  14.869  16.302  1.00  0.00    -0.356 N 
ATOM     20  H1  FTA A   1      -0.353  14.746  16.567  1.00  0.00     0.166 HD
BRANCH  19  21
ATOM     21  C24 FTA A   1       0.963  14.740  14.918  1.00  0.00     0.032 A 
ATOM     22  C26 FTA A   1       1.790  15.639  14.287  1.00  0.00     0.029 A 
ATOM     23  C28 FTA A   1       1.930  15.559  12.914  1.00  0.00     0.002 A 
ATOM     24  C30 FTA A   1       1.293  14.590  12.158  1.00  0.00     0.000 A 
ATOM     25  C29 FTA A   1       0.496  13.666  12.779  1.00  0.00     0.002 A 
ATOM     26  C27 FTA A   1       0.350  13.746  14.169  1.00  0.00     0.029 A 
ENDBRANCH  19  21
ENDBRANCH  16  19
ENDBRANCH  11  13
ENDBRANCH   1  11
TORSDOF 5
ENDMDL
MODEL 9
REMARK VINA RESULT:    -5.940      8.705     10.180
REMARK INTER + INTRA:          -8.553
REMARK INTER:                  -7.676
REMARK INTRA:                  -0.877
REMARK UNBOUND:                -0.877
REMARK  5 active torsions:
REMARK  status: ('A' for Active; 'I' for Inactive)
REMARK    1  A    between atoms: N8_1  and  C24_2 
REMARK    2  A    between atoms: N8_1  and  C7_8 
REMARK    3  A    between atoms: C2_13  and  N1_14 
REMARK    4  A    between atoms: N1_14  and  C17_15 
REMARK    5  A    between atoms: C14_16  and  C13_19 
ROOT
ATOM      1  C17 FTA A   1       6.514  18.353  19.818  1.00  0.00     0.142 C 
ATOM      2  C14 FTA A   1       7.828  18.178  20.063  1.00  0.00     0.158 C 
ATOM      3  C18 FTA A   1       8.734  17.857  18.981  1.00  0.00     0.069 C 
ATOM      4  N21 FTA A   1       9.335  17.545  18.024  1.00  0.00    -0.197 NA
ENDROOT
BRANCH   2   5
ATOM      5  C13 FTA A   1       8.338  18.333  21.445  1.00  0.00     0.197 A 
ATOM      6  N15 FTA A   1       8.987  19.452  21.961  1.00  0.00    -0.093 NA
ATOM      7  N19 FTA A   1       9.336  19.164  23.274  1.00  0.00    -0.231 N 
ATOM      8  N20 FTA A   1       8.917  17.878  23.585  1.00  0.00    -0.017 NA
ATOM      9  H15 FTA A   1       9.829  19.802  23.915  1.00  0.00     0.200 HD
ATOM     10  N16 FTA A   1       8.288  17.365  22.455  1.00  0.00    -0.090 NA
ENDBRANCH   2   5
BRANCH   1  11
ATOM     11  N1  FTA A   1       5.618  17.650  20.537  1.00  0.00    -0.389 N 
ATOM     12  H11 FTA A   1       5.778  17.574  21.552  1.00  0.00     0.159 HD
BRANCH  11  13
ATOM     13  C2  FTA A   1       4.469  17.007  20.002  1.00  0.00     0.028 A 
ATOM     14  C4  FTA A   1       4.512  16.279  18.816  1.00  0.00     0.031 A 
ATOM     15  C6  FTA A   1       3.308  15.868  18.227  1.00  0.00     0.031 A 
ATOM     16  C7  FTA A   1       2.069  16.165  18.789  1.00  0.00     0.032 A 
ATOM     17  C5  FTA A   1       2.045  16.868  19.981  1.00  0.00     0.031 A 
ATOM     18  C3  FTA A   1       3.226  17.296  20.573  1.00  0.00     0.031 A 
BRANCH  16  19
ATOM     19  N8  FTA A   1       0.844  15.945  18.110  1.00  0.00    -0.356 N 
ATOM     20  H1  FTA A   1      -0.025  16.133  18.631  1.00  0.00     0.166 HD
BRANCH  19  21
ATOM     21  C24 FTA A   1       0.715  15.486  16.764  1.00  0.00     0.032 A 
ATOM     22  C26 FTA A   1       0.440  14.170  16.476  1.00  0.00     0.029 A 
ATOM     23  C28 FTA A   1       0.499  13.754  15.159  1.00  0.00     0.002 A 
ATOM     24  C30 FTA A   1       0.793  14.620  14.119  1.00  0.00     0.000 A 
ATOM     25  C29 FTA A   1       1.030  15.941  14.390  1.00  0.00     0.002 A 
ATOM     26  C27 FTA A   1       0.975  16.364  15.723  1.00  0.00     0.029 A 
ENDBRANCH  19  21
ENDBRANCH  16  19
ENDBRANCH  11  13
ENDBRANCH   1  11
TORSDOF 5
ENDMDL
