REMARK  5 active torsions:
REMARK  status: ('A' for Active; 'I' for Inactive)
REMARK       I    between atoms: C_2  and  N_3 
REMARK    1  A    between atoms: C_2  and  C_15 
REMARK    2  A    between atoms: N_3  and  C_5 
REMARK    3  A    between atoms: C_16  and  O_17 
REMARK    4  A    between atoms: C_23  and  C_24 
REMARK    5  A    between atoms: C_24  and  C_25 
ROOT
HETATM    1  C   UNL     1       2.842  -1.454  -0.286  0.00  0.00     0.066 C 
HETATM    2  C   UNL     1       2.391  -2.776  -0.309  0.00  0.00     0.083 C 
HETATM    3  C   UNL     1       3.076  -3.779  -1.005  0.00  0.00     0.069 C 
HETATM    4  C   UNL     1       4.166  -3.398  -1.788  0.00  0.00     0.065 A 
HETATM    5  N   UNL     1       4.973  -4.132  -2.611  0.00  0.00    -0.277 N 
HETATM    6  H   UNL     1       4.929  -5.129  -2.788  0.00  0.00     0.189 HD
HETATM    7  N   UNL     1       5.868  -3.412  -3.292  0.00  0.00    -0.178 NA
HETATM    8  C   UNL     1       5.648  -2.144  -2.901  0.00  0.00     0.071 A 
HETATM    9  C   UNL     1       4.597  -2.079  -1.920  0.00  0.00     0.020 A 
HETATM   10  C   UNL     1       3.920  -1.096  -1.153  0.00  0.00     0.035 C 
ENDROOT
BRANCH   1  11
HETATM   11  C   UNL     1       2.208  -0.340   0.514  0.00  0.00     0.260 C 
HETATM   12  O   UNL     1       2.193   0.744  -0.074  0.00  0.00    -0.267 OA
HETATM   13  N   UNL     1       1.716  -0.521   1.842  0.00  0.00    -0.318 N 
HETATM   14  C   UNL     1       1.977  -1.736   2.634  0.00  0.00     0.159 C 
BRANCH  13  15
HETATM   15  C   UNL     1       1.024   0.559   2.555  0.00  0.00     0.039 A 
HETATM   16  C   UNL     1       0.420   1.641   1.891  0.00  0.00     0.069 A 
HETATM   17  C   UNL     1      -0.229   2.671   2.591  0.00  0.00     0.104 A 
HETATM   18  O   UNL     1      -0.815   3.661   1.837  0.00  0.00    -0.346 OA
HETATM   19  C   UNL     1      -0.262   2.668   3.982  0.00  0.00     0.102 A 
HETATM   20  C   UNL     1      -1.722   4.444   2.622  0.00  0.00     0.202 C 
HETATM   21  C   UNL     1      -1.086   4.830   3.946  0.00  0.00     0.202 C 
HETATM   22  O   UNL     1      -0.828   3.662   4.735  0.00  0.00    -0.346 OA
HETATM   23  C   UNL     1       0.291   1.597   4.670  0.00  0.00     0.042 A 
HETATM   24  C   UNL     1       0.907   0.558   3.964  0.00  0.00     0.032 A 
ENDBRANCH  13  15
ENDBRANCH   1  11
BRANCH   2  25
HETATM   25  O   UNL     1       1.232  -3.200   0.292  0.00  0.00    -0.360 OA
HETATM   26  H   UNL     1       0.663  -2.423   0.447  0.00  0.00     0.217 HD
ENDBRANCH   2  25
BRANCH   8  27
HETATM   27  C   UNL     1       6.383  -1.078  -3.644  0.00  0.00     0.100 C 
BRANCH  27  28
HETATM   28  C   UNL     1       7.198  -0.226  -2.709  0.00  0.00    -0.052 A 
HETATM   29  C   UNL     1       6.752   1.071  -2.424  0.00  0.00     0.014 A 
HETATM   30  C   UNL     1       7.582   1.998  -1.788  0.00  0.00    -0.061 A 
HETATM   31  C   UNL     1       7.137   3.424  -1.655  0.00  0.00     0.048 C 
HETATM   32  C   UNL     1       8.838   1.589  -1.330  0.00  0.00     0.007 A 
HETATM   33  C   UNL     1       9.277   0.283  -1.561  0.00  0.00     0.001 A 
HETATM   34  C   UNL     1       8.470  -0.616  -2.264  0.00  0.00     0.007 A 
ENDBRANCH  27  28
ENDBRANCH   8  27
TORSDOF 5
