MODEL 1
REMARK VINA RESULT:    -8.165      0.000      0.000
REMARK INTER + INTRA:         -11.511
REMARK INTER:                 -10.621
REMARK INTRA:                  -0.890
REMARK UNBOUND:                -0.720
REMARK  6 active torsions:
REMARK  status: ('A' for Active; 'I' for Inactive)
REMARK    1  A    between atoms: C_2  and  C_3 
REMARK    2  A    between atoms: C_3  and  C_5 
REMARK    3  A    between atoms: C_12  and  C_16 
REMARK    4  A    between atoms: C_13  and  O_15 
REMARK       I    between atoms: C_16  and  N_18 
REMARK    5  A    between atoms: N_18  and  C_20 
REMARK    6  A    between atoms: C_23  and  N_26 
ROOT
HETATM    1  C   UNL     1      10.337  15.019  22.398  0.00  0.00     0.135 A 
HETATM    2  N   UNL     1      11.515  15.420  22.915  0.00  0.00    -0.170 NA
HETATM    3  N   UNL     1      11.323  15.389  24.242  0.00  0.00    -0.277 N 
HETATM    4  H   UNL     1      12.085  15.681  24.844  0.00  0.00     0.189 HD
HETATM    5  C   UNL     1       9.406  14.693  23.436  0.00  0.00     0.027 A 
HETATM    6  C   UNL     1      10.068  14.999  24.619  0.00  0.00     0.065 A 
HETATM    7  C   UNL     1       8.080  14.217  23.520  0.00  0.00     0.036 C 
HETATM    8  C   UNL     1       7.421  14.131  24.771  0.00  0.00     0.066 C 
HETATM    9  C   UNL     1       8.103  14.577  25.911  0.00  0.00     0.083 C 
HETATM   10  C   UNL     1       9.456  14.937  25.873  0.00  0.00     0.069 C 
ENDROOT
BRANCH   8  11
HETATM   11  C   UNL     1       5.987  13.713  24.712  0.00  0.00     0.260 C 
HETATM   12  O   UNL     1       5.801  12.535  25.037  0.00  0.00    -0.267 OA
HETATM   13  N   UNL     1       4.935  14.575  24.318  0.00  0.00    -0.318 N 
HETATM   14  C   UNL     1       5.114  15.899  23.724  0.00  0.00     0.159 C 
BRANCH  13  15
HETATM   15  C   UNL     1       3.566  14.132  24.469  0.00  0.00     0.037 A 
HETATM   16  C   UNL     1       2.939  13.393  23.465  0.00  0.00     0.032 A 
HETATM   17  C   UNL     1       1.597  13.002  23.577  0.00  0.00     0.031 A 
HETATM   18  C   UNL     1       0.811  13.330  24.685  0.00  0.00     0.030 A 
HETATM   19  C   UNL     1       1.468  14.008  25.722  0.00  0.00     0.031 A 
HETATM   20  C   UNL     1       2.824  14.396  25.624  0.00  0.00     0.032 A 
BRANCH  18  21
HETATM   21  N   UNL     1      -0.528  13.005  24.726  0.00  0.00    -0.377 N 
HETATM   22  C   UNL     1      -1.403  12.919  23.548  0.00  0.00     0.149 C 
HETATM   23  C   UNL     1      -1.992  11.506  23.418  0.00  0.00     0.187 C 
HETATM   24  O   UNL     1      -2.661  11.096  24.624  0.00  0.00    -0.388 OA
HETATM   25  C   UNL     1      -1.738  11.098  25.724  0.00  0.00     0.187 C 
HETATM   26  C   UNL     1      -1.143  12.497  25.967  0.00  0.00     0.149 C 
ENDBRANCH  18  21
ENDBRANCH  13  15
ENDBRANCH   8  11
BRANCH   9  27
HETATM   27  O   UNL     1       7.500  14.789  27.121  0.00  0.00    -0.360 OA
HETATM   28  H   UNL     1       6.932  14.020  27.302  0.00  0.00     0.217 HD
ENDBRANCH   9  27
BRANCH   1  29
HETATM   29  C   UNL     1      10.111  14.989  20.943  0.00  0.00     0.180 C 
HETATM   30  O   UNL     1      10.144  16.016  20.265  0.00  0.00    -0.291 OA
BRANCH  29  31
HETATM   31  C   UNL     1       9.848  13.625  20.311  0.00  0.00     0.081 C 
HETATM   32  C   UNL     1       8.597  13.603  19.447  0.00  0.00     0.013 C 
ENDBRANCH  29  31
ENDBRANCH   1  29
TORSDOF 6
ENDMDL
MODEL 2
REMARK VINA RESULT:    -7.901      2.200      3.750
REMARK INTER + INTRA:         -11.162
REMARK INTER:                 -10.624
REMARK INTRA:                  -0.537
REMARK UNBOUND:                -0.720
REMARK  6 active torsions:
REMARK  status: ('A' for Active; 'I' for Inactive)
REMARK    1  A    between atoms: C_2  and  C_3 
REMARK    2  A    between atoms: C_3  and  C_5 
REMARK    3  A    between atoms: C_12  and  C_16 
REMARK    4  A    between atoms: C_13  and  O_15 
REMARK       I    between atoms: C_16  and  N_18 
REMARK    5  A    between atoms: N_18  and  C_20 
REMARK    6  A    between atoms: C_23  and  N_26 
ROOT
HETATM    1  C   UNL     1      12.376  13.803  25.124  0.00  0.00     0.135 A 
HETATM    2  N   UNL     1      13.500  14.318  24.587  0.00  0.00    -0.170 NA
HETATM    3  N   UNL     1      13.060  15.202  23.679  0.00  0.00    -0.277 N 
HETATM    4  H   UNL     1      13.746  15.703  23.125  0.00  0.00     0.189 HD
HETATM    5  C   UNL     1      11.212  14.416  24.560  0.00  0.00     0.027 A 
HETATM    6  C   UNL     1      11.699  15.280  23.586  0.00  0.00     0.065 A 
HETATM    7  C   UNL     1       9.813  14.317  24.722  0.00  0.00     0.036 C 
HETATM    8  C   UNL     1       8.934  15.023  23.863  0.00  0.00     0.066 C 
HETATM    9  C   UNL     1       9.490  15.776  22.821  0.00  0.00     0.083 C 
HETATM   10  C   UNL     1      10.870  15.988  22.712  0.00  0.00     0.069 C 
ENDROOT
BRANCH   8  11
HETATM   11  C   UNL     1       7.480  14.751  24.074  0.00  0.00     0.260 C 
HETATM   12  O   UNL     1       7.050  15.164  25.156  0.00  0.00    -0.267 OA
HETATM   13  N   UNL     1       6.663  14.082  23.131  0.00  0.00    -0.318 N 
HETATM   14  C   UNL     1       7.153  13.388  21.940  0.00  0.00     0.159 C 
BRANCH  13  15
HETATM   15  C   UNL     1       5.233  14.030  23.346  0.00  0.00     0.037 A 
HETATM   16  C   UNL     1       4.547  12.815  23.306  0.00  0.00     0.032 A 
HETATM   17  C   UNL     1       3.155  12.758  23.462  0.00  0.00     0.031 A 
HETATM   18  C   UNL     1       2.375  13.902  23.658  0.00  0.00     0.030 A 
HETATM   19  C   UNL     1       3.079  15.109  23.772  0.00  0.00     0.031 A 
HETATM   20  C   UNL     1       4.484  15.176  23.628  0.00  0.00     0.032 A 
BRANCH  18  21
HETATM   21  N   UNL     1       1.001  13.820  23.722  0.00  0.00    -0.377 N 
HETATM   22  C   UNL     1       0.142  13.326  22.637  0.00  0.00     0.149 C 
HETATM   23  C   UNL     1      -0.668  12.107  23.104  0.00  0.00     0.187 C 
HETATM   24  O   UNL     1      -1.414  12.392  24.301  0.00  0.00    -0.388 OA
HETATM   25  C   UNL     1      -0.521  12.771  25.360  0.00  0.00     0.187 C 
HETATM   26  C   UNL     1       0.292  14.027  24.999  0.00  0.00     0.149 C 
ENDBRANCH  18  21
ENDBRANCH  13  15
ENDBRANCH   8  11
BRANCH   9  27
HETATM   27  O   UNL     1       8.761  16.285  21.780  0.00  0.00    -0.360 OA
HETATM   28  H   UNL     1       8.834  15.657  21.040  0.00  0.00     0.217 HD
ENDBRANCH   9  27
BRANCH   1  29
HETATM   29  C   UNL     1      12.432  12.725  26.126  0.00  0.00     0.180 C 
HETATM   30  O   UNL     1      12.876  11.610  25.848  0.00  0.00    -0.291 OA
BRANCH  29  31
HETATM   31  C   UNL     1      11.926  13.055  27.527  0.00  0.00     0.081 C 
HETATM   32  C   UNL     1      12.400  14.411  28.024  0.00  0.00     0.013 C 
ENDBRANCH  29  31
ENDBRANCH   1  29
TORSDOF 6
ENDMDL
MODEL 3
REMARK VINA RESULT:    -7.862      1.987      2.489
REMARK INTER + INTRA:         -11.111
REMARK INTER:                 -10.261
REMARK INTRA:                  -0.850
REMARK UNBOUND:                -0.720
REMARK  6 active torsions:
REMARK  status: ('A' for Active; 'I' for Inactive)
REMARK    1  A    between atoms: C_2  and  C_3 
REMARK    2  A    between atoms: C_3  and  C_5 
REMARK    3  A    between atoms: C_12  and  C_16 
REMARK    4  A    between atoms: C_13  and  O_15 
REMARK       I    between atoms: C_16  and  N_18 
REMARK    5  A    between atoms: N_18  and  C_20 
REMARK    6  A    between atoms: C_23  and  N_26 
ROOT
HETATM    1  C   UNL     1      12.311  13.023  22.462  0.00  0.00     0.135 A 
HETATM    2  N   UNL     1      13.484  13.466  22.955  0.00  0.00    -0.170 NA
HETATM    3  N   UNL     1      13.146  14.121  24.076  0.00  0.00    -0.277 N 
HETATM    4  H   UNL     1      13.883  14.568  24.612  0.00  0.00     0.189 HD
HETATM    5  C   UNL     1      11.225  13.379  23.324  0.00  0.00     0.027 A 
HETATM    6  C   UNL     1      11.804  14.138  24.334  0.00  0.00     0.065 A 
HETATM    7  C   UNL     1       9.827  13.188  23.354  0.00  0.00     0.036 C 
HETATM    8  C   UNL     1       9.033  13.820  24.343  0.00  0.00     0.066 C 
HETATM    9  C   UNL     1       9.666  14.674  25.254  0.00  0.00     0.083 C 
HETATM   10  C   UNL     1      11.060  14.785  25.323  0.00  0.00     0.069 C 
ENDROOT
BRANCH   8  11
HETATM   11  C   UNL     1       7.558  13.621  24.201  0.00  0.00     0.260 C 
HETATM   12  O   UNL     1       7.104  12.738  24.936  0.00  0.00    -0.267 OA
HETATM   13  N   UNL     1       6.749  14.367  23.310  0.00  0.00    -0.318 N 
HETATM   14  C   UNL     1       7.254  15.266  22.272  0.00  0.00     0.159 C 
BRANCH  13  15
HETATM   15  C   UNL     1       5.311  14.228  23.378  0.00  0.00     0.037 A 
HETATM   16  C   UNL     1       4.511  15.280  23.831  0.00  0.00     0.032 A 
HETATM   17  C   UNL     1       3.122  15.141  23.950  0.00  0.00     0.031 A 
HETATM   18  C   UNL     1       2.457  13.952  23.634  0.00  0.00     0.030 A 
HETATM   19  C   UNL     1       3.257  12.925  23.111  0.00  0.00     0.031 A 
HETATM   20  C   UNL     1       4.658  13.060  22.975  0.00  0.00     0.032 A 
BRANCH  18  21
HETATM   21  N   UNL     1       1.102  13.820  23.845  0.00  0.00    -0.377 N 
HETATM   22  C   UNL     1       0.146  13.318  22.847  0.00  0.00     0.149 C 
HETATM   23  C   UNL     1      -0.566  12.061  23.370  0.00  0.00     0.187 C 
HETATM   24  O   UNL     1      -1.186  12.294  24.647  0.00  0.00    -0.388 OA
HETATM   25  C   UNL     1      -0.196  12.682  25.612  0.00  0.00     0.187 C 
HETATM   26  C   UNL     1       0.531  13.975  25.196  0.00  0.00     0.149 C 
ENDBRANCH  18  21
ENDBRANCH  13  15
ENDBRANCH   8  11
BRANCH   9  27
HETATM   27  O   UNL     1       8.993  15.535  26.080  0.00  0.00    -0.360 OA
HETATM   28  H   UNL     1       8.063  15.543  25.796  0.00  0.00     0.217 HD
ENDBRANCH   9  27
BRANCH   1  29
HETATM   29  C   UNL     1      12.244  12.308  21.176  0.00  0.00     0.180 C 
HETATM   30  O   UNL     1      12.443  12.886  20.107  0.00  0.00    -0.291 OA
BRANCH  29  31
HETATM   31  C   UNL     1      11.930  10.816  21.228  0.00  0.00     0.081 C 
HETATM   32  C   UNL     1      10.490  10.499  20.860  0.00  0.00     0.013 C 
ENDBRANCH  29  31
ENDBRANCH   1  29
TORSDOF 6
ENDMDL
MODEL 4
REMARK VINA RESULT:    -7.860      2.040      2.777
REMARK INTER + INTRA:         -11.108
REMARK INTER:                 -10.130
REMARK INTRA:                  -0.977
REMARK UNBOUND:                -0.720
REMARK  6 active torsions:
REMARK  status: ('A' for Active; 'I' for Inactive)
REMARK    1  A    between atoms: C_2  and  C_3 
REMARK    2  A    between atoms: C_3  and  C_5 
REMARK    3  A    between atoms: C_12  and  C_16 
REMARK    4  A    between atoms: C_13  and  O_15 
REMARK       I    between atoms: C_16  and  N_18 
REMARK    5  A    between atoms: N_18  and  C_20 
REMARK    6  A    between atoms: C_23  and  N_26 
ROOT
HETATM    1  C   UNL     1      10.649  14.386  21.275  0.00  0.00     0.135 A 
HETATM    2  N   UNL     1      11.847  13.772  21.213  0.00  0.00    -0.170 NA
HETATM    3  N   UNL     1      11.584  12.498  21.540  0.00  0.00    -0.277 N 
HETATM    4  H   UNL     1      12.359  11.844  21.581  0.00  0.00     0.189 HD
HETATM    5  C   UNL     1       9.613  13.456  21.610  0.00  0.00     0.027 A 
HETATM    6  C   UNL     1      10.271  12.251  21.827  0.00  0.00     0.065 A 
HETATM    7  C   UNL     1       8.214  13.493  21.796  0.00  0.00     0.036 C 
HETATM    8  C   UNL     1       7.518  12.351  22.264  0.00  0.00     0.066 C 
HETATM    9  C   UNL     1       8.260  11.208  22.585  0.00  0.00     0.083 C 
HETATM   10  C   UNL     1       9.626  11.105  22.296  0.00  0.00     0.069 C 
ENDROOT
BRANCH   8  11
HETATM   11  C   UNL     1       6.058  12.553  22.518  0.00  0.00     0.260 C 
HETATM   12  O   UNL     1       5.337  12.167  21.591  0.00  0.00    -0.267 OA
HETATM   13  N   UNL     1       5.541  13.132  23.701  0.00  0.00    -0.318 N 
HETATM   14  C   UNL     1       6.342  13.796  24.729  0.00  0.00     0.159 C 
BRANCH  13  15
HETATM   15  C   UNL     1       4.112  13.116  23.929  0.00  0.00     0.037 A 
HETATM   16  C   UNL     1       3.476  11.965  24.399  0.00  0.00     0.032 A 
HETATM   17  C   UNL     1       2.087  11.920  24.575  0.00  0.00     0.031 A 
HETATM   18  C   UNL     1       1.259  13.010  24.288  0.00  0.00     0.030 A 
HETATM   19  C   UNL     1       1.912  14.185  23.887  0.00  0.00     0.031 A 
HETATM   20  C   UNL     1       3.314  14.244  23.719  0.00  0.00     0.032 A 
BRANCH  18  21
HETATM   21  N   UNL     1      -0.111  12.906  24.390  0.00  0.00    -0.377 N 
HETATM   22  C   UNL     1      -1.020  12.690  23.255  0.00  0.00     0.149 C 
HETATM   23  C   UNL     1      -1.813  11.387  23.441  0.00  0.00     0.187 C 
HETATM   24  O   UNL     1      -2.504  11.362  24.703  0.00  0.00    -0.388 OA
HETATM   25  C   UNL     1      -1.563  11.472  25.782  0.00  0.00     0.187 C 
HETATM   26  C   UNL     1      -0.762  12.785  25.708  0.00  0.00     0.149 C 
ENDBRANCH  18  21
ENDBRANCH  13  15
ENDBRANCH   8  11
BRANCH   9  27
HETATM   27  O   UNL     1       7.752  10.144  23.282  0.00  0.00    -0.360 OA
HETATM   28  H   UNL     1       8.501   9.692  23.707  0.00  0.00     0.217 HD
ENDBRANCH   9  27
BRANCH   1  29
HETATM   29  C   UNL     1      10.521  15.837  21.053  0.00  0.00     0.180 C 
HETATM   30  O   UNL     1      10.748  16.342  19.954  0.00  0.00    -0.291 OA
BRANCH  29  31
HETATM   31  C   UNL     1      10.080  16.683  22.244  0.00  0.00     0.081 C 
HETATM   32  C   UNL     1      10.859  16.372  23.513  0.00  0.00     0.013 C 
ENDBRANCH  29  31
ENDBRANCH   1  29
TORSDOF 6
ENDMDL
MODEL 5
REMARK VINA RESULT:    -7.781      2.610      4.231
REMARK INTER + INTRA:         -11.003
REMARK INTER:                 -10.213
REMARK INTRA:                  -0.790
REMARK UNBOUND:                -0.720
REMARK  6 active torsions:
REMARK  status: ('A' for Active; 'I' for Inactive)
REMARK    1  A    between atoms: C_2  and  C_3 
REMARK    2  A    between atoms: C_3  and  C_5 
REMARK    3  A    between atoms: C_12  and  C_16 
REMARK    4  A    between atoms: C_13  and  O_15 
REMARK       I    between atoms: C_16  and  N_18 
REMARK    5  A    between atoms: N_18  and  C_20 
REMARK    6  A    between atoms: C_23  and  N_26 
ROOT
HETATM    1  C   UNL     1      12.634  12.295  23.292  0.00  0.00     0.135 A 
HETATM    2  N   UNL     1      13.862  12.526  22.787  0.00  0.00    -0.170 NA
HETATM    3  N   UNL     1      13.669  13.486  21.869  0.00  0.00    -0.277 N 
HETATM    4  H   UNL     1      14.469  13.807  21.335  0.00  0.00     0.189 HD
HETATM    5  C   UNL     1      11.664  13.165  22.699  0.00  0.00     0.027 A 
HETATM    6  C   UNL     1      12.368  13.885  21.741  0.00  0.00     0.065 A 
HETATM    7  C   UNL     1      10.279  13.403  22.824  0.00  0.00     0.036 C 
HETATM    8  C   UNL     1       9.616  14.294  21.944  0.00  0.00     0.066 C 
HETATM    9  C   UNL     1      10.362  14.890  20.919  0.00  0.00     0.083 C 
HETATM   10  C   UNL     1      11.755  14.767  20.847  0.00  0.00     0.069 C 
ENDROOT
BRANCH   8  11
HETATM   11  C   UNL     1       8.133  14.377  22.115  0.00  0.00     0.260 C 
HETATM   12  O   UNL     1       7.502  14.166  21.073  0.00  0.00    -0.267 OA
HETATM   13  N   UNL     1       7.502  14.671  23.347  0.00  0.00    -0.318 N 
HETATM   14  C   UNL     1       8.190  15.135  24.551  0.00  0.00     0.159 C 
BRANCH  13  15
HETATM   15  C   UNL     1       6.064  14.548  23.450  0.00  0.00     0.037 A 
HETATM   16  C   UNL     1       5.265  15.668  23.686  0.00  0.00     0.032 A 
HETATM   17  C   UNL     1       3.877  15.555  23.840  0.00  0.00     0.031 A 
HETATM   18  C   UNL     1       3.213  14.325  23.774  0.00  0.00     0.030 A 
HETATM   19  C   UNL     1       4.012  13.215  23.463  0.00  0.00     0.031 A 
HETATM   20  C   UNL     1       5.412  13.321  23.294  0.00  0.00     0.032 A 
BRANCH  18  21
HETATM   21  N   UNL     1       1.859  14.237  24.014  0.00  0.00    -0.377 N 
HETATM   22  C   UNL     1       0.825  14.198  22.970  0.00  0.00     0.149 C 
HETATM   23  C   UNL     1       0.010  12.900  23.068  0.00  0.00     0.187 C 
HETATM   24  O   UNL     1      -0.540  12.716  24.385  0.00  0.00    -0.388 OA
HETATM   25  C   UNL     1       0.516  12.657  25.356  0.00  0.00     0.187 C 
HETATM   26  C   UNL     1       1.352  13.950  25.370  0.00  0.00     0.149 C 
ENDBRANCH  18  21
ENDBRANCH  13  15
ENDBRANCH   8  11
BRANCH   9  27
HETATM   27  O   UNL     1       9.803  15.553  19.860  0.00  0.00    -0.360 OA
HETATM   28  H   UNL     1       9.930  16.506  20.015  0.00  0.00     0.217 HD
ENDBRANCH   9  27
BRANCH   1  29
HETATM   29  C   UNL     1      12.405  11.238  24.292  0.00  0.00     0.180 C 
HETATM   30  O   UNL     1      12.368  10.049  23.974  0.00  0.00    -0.291 OA
BRANCH  29  31
HETATM   31  C   UNL     1      12.230  11.682  25.741  0.00  0.00     0.081 C 
HETATM   32  C   UNL     1      10.781  11.972  26.101  0.00  0.00     0.013 C 
ENDBRANCH  29  31
ENDBRANCH   1  29
TORSDOF 6
ENDMDL
MODEL 6
REMARK VINA RESULT:    -7.761      1.926      2.680
REMARK INTER + INTRA:         -10.977
REMARK INTER:                  -9.914
REMARK INTRA:                  -1.064
REMARK UNBOUND:                -0.720
REMARK  6 active torsions:
REMARK  status: ('A' for Active; 'I' for Inactive)
REMARK    1  A    between atoms: C_2  and  C_3 
REMARK    2  A    between atoms: C_3  and  C_5 
REMARK    3  A    between atoms: C_12  and  C_16 
REMARK    4  A    between atoms: C_13  and  O_15 
REMARK       I    between atoms: C_16  and  N_18 
REMARK    5  A    between atoms: N_18  and  C_20 
REMARK    6  A    between atoms: C_23  and  N_26 
ROOT
HETATM    1  C   UNL     1      12.562  14.294  22.624  0.00  0.00     0.135 A 
HETATM    2  N   UNL     1      13.836  14.333  23.059  0.00  0.00    -0.170 NA
HETATM    3  N   UNL     1      13.733  14.306  24.396  0.00  0.00    -0.277 N 
HETATM    4  H   UNL     1      14.585  14.351  24.944  0.00  0.00     0.189 HD
HETATM    5  C   UNL     1      11.649  14.199  23.723  0.00  0.00     0.027 A 
HETATM    6  C   UNL     1      12.447  14.264  24.858  0.00  0.00     0.065 A 
HETATM    7  C   UNL     1      10.251  14.108  23.897  0.00  0.00     0.036 C 
HETATM    8  C   UNL     1       9.680  14.160  25.193  0.00  0.00     0.066 C 
HETATM    9  C   UNL     1      10.534  14.355  26.286  0.00  0.00     0.083 C 
HETATM   10  C   UNL     1      11.928  14.327  26.153  0.00  0.00     0.069 C 
ENDROOT
BRANCH   8  11
HETATM   11  C   UNL     1       8.185  14.159  25.234  0.00  0.00     0.260 C 
HETATM   12  O   UNL     1       7.699  15.239  25.586  0.00  0.00    -0.267 OA
HETATM   13  N   UNL     1       7.393  13.033  24.905  0.00  0.00    -0.318 N 
HETATM   14  C   UNL     1       7.907  11.680  24.691  0.00  0.00     0.159 C 
BRANCH  13  15
HETATM   15  C   UNL     1       5.959  13.186  24.798  0.00  0.00     0.037 A 
HETATM   16  C   UNL     1       5.369  13.578  23.595  0.00  0.00     0.032 A 
HETATM   17  C   UNL     1       3.986  13.780  23.492  0.00  0.00     0.031 A 
HETATM   18  C   UNL     1       3.121  13.609  24.577  0.00  0.00     0.030 A 
HETATM   19  C   UNL     1       3.710  13.144  25.761  0.00  0.00     0.031 A 
HETATM   20  C   UNL     1       5.103  12.925  25.872  0.00  0.00     0.032 A 
BRANCH  18  21
HETATM   21  N   UNL     1       1.778  13.898  24.466  0.00  0.00    -0.377 N 
HETATM   22  C   UNL     1       1.058  14.048  23.193  0.00  0.00     0.149 C 
HETATM   23  C   UNL     1      -0.080  13.021  23.095  0.00  0.00     0.187 C 
HETATM   24  O   UNL     1      -0.962  13.094  24.230  0.00  0.00    -0.388 OA
HETATM   25  C   UNL     1      -0.230  12.839  25.439  0.00  0.00     0.187 C 
HETATM   26  C   UNL     1       0.899  13.865  25.650  0.00  0.00     0.149 C 
ENDBRANCH  18  21
ENDBRANCH  13  15
ENDBRANCH   8  11
BRANCH   9  27
HETATM   27  O   UNL     1      10.097  14.680  27.542  0.00  0.00    -0.360 OA
HETATM   28  H   UNL     1      10.871  14.668  28.131  0.00  0.00     0.217 HD
ENDBRANCH   9  27
BRANCH   1  29
HETATM   29  C   UNL     1      12.240  14.383  21.189  0.00  0.00     0.180 C 
HETATM   30  O   UNL     1      12.744  13.618  20.368  0.00  0.00    -0.291 OA
BRANCH  29  31
HETATM   31  C   UNL     1      11.243  15.460  20.770  0.00  0.00     0.081 C 
HETATM   32  C   UNL     1       9.879  14.896  20.405  0.00  0.00     0.013 C 
ENDBRANCH  29  31
ENDBRANCH   1  29
TORSDOF 6
ENDMDL
MODEL 7
REMARK VINA RESULT:    -7.755      2.180     10.220
REMARK INTER + INTRA:         -10.969
REMARK INTER:                 -10.249
REMARK INTRA:                  -0.720
REMARK UNBOUND:                -0.720
REMARK  6 active torsions:
REMARK  status: ('A' for Active; 'I' for Inactive)
REMARK    1  A    between atoms: C_2  and  C_3 
REMARK    2  A    between atoms: C_3  and  C_5 
REMARK    3  A    between atoms: C_12  and  C_16 
REMARK    4  A    between atoms: C_13  and  O_15 
REMARK       I    between atoms: C_16  and  N_18 
REMARK    5  A    between atoms: N_18  and  C_20 
REMARK    6  A    between atoms: C_23  and  N_26 
ROOT
HETATM    1  C   UNL     1      -1.896  11.548  26.750  0.00  0.00     0.135 A 
HETATM    2  N   UNL     1      -3.184  11.422  26.374  0.00  0.00    -0.170 NA
HETATM    3  N   UNL     1      -3.173  11.683  25.058  0.00  0.00    -0.277 N 
HETATM    4  H   UNL     1      -4.056  11.669  24.559  0.00  0.00     0.189 HD
HETATM    5  C   UNL     1      -1.062  11.856  25.627  0.00  0.00     0.027 A 
HETATM    6  C   UNL     1      -1.939  11.988  24.557  0.00  0.00     0.065 A 
HETATM    7  C   UNL     1       0.312  12.077  25.393  0.00  0.00     0.036 C 
HETATM    8  C   UNL     1       0.769  12.497  24.119  0.00  0.00     0.066 C 
HETATM    9  C   UNL     1      -0.182  12.735  23.119  0.00  0.00     0.083 C 
HETATM   10  C   UNL     1      -1.534  12.408  23.287  0.00  0.00     0.069 C 
ENDROOT
BRANCH   8  11
HETATM   11  C   UNL     1       2.231  12.798  24.032  0.00  0.00     0.260 C 
HETATM   12  O   UNL     1       2.871  11.958  23.389  0.00  0.00    -0.267 OA
HETATM   13  N   UNL     1       2.835  13.930  24.627  0.00  0.00    -0.318 N 
HETATM   14  C   UNL     1       2.176  14.834  25.569  0.00  0.00     0.159 C 
BRANCH  13  15
HETATM   15  C   UNL     1       4.220  14.229  24.332  0.00  0.00     0.037 A 
HETATM   16  C   UNL     1       4.560  15.299  23.503  0.00  0.00     0.032 A 
HETATM   17  C   UNL     1       5.894  15.568  23.168  0.00  0.00     0.031 A 
HETATM   18  C   UNL     1       6.956  14.784  23.633  0.00  0.00     0.030 A 
HETATM   19  C   UNL     1       6.613  13.757  24.523  0.00  0.00     0.031 A 
HETATM   20  C   UNL     1       5.271  13.486  24.877  0.00  0.00     0.032 A 
BRANCH  18  21
HETATM   21  N   UNL     1       8.247  15.022  23.216  0.00  0.00    -0.377 N 
HETATM   22  C   UNL     1       9.452  14.580  23.932  0.00  0.00     0.149 C 
HETATM   23  C   UNL     1      10.297  13.654  23.043  0.00  0.00     0.187 C 
HETATM   24  O   UNL     1      10.611  14.271  21.782  0.00  0.00    -0.388 OA
HETATM   25  C   UNL     1       9.402  14.591  21.076  0.00  0.00     0.187 C 
HETATM   26  C   UNL     1       8.517  15.568  21.872  0.00  0.00     0.149 C 
ENDBRANCH  18  21
ENDBRANCH  13  15
ENDBRANCH   8  11
BRANCH   9  27
HETATM   27  O   UNL     1       0.096  13.383  21.946  0.00  0.00    -0.360 OA
HETATM   28  H   UNL     1      -0.211  12.814  21.219  0.00  0.00     0.217 HD
ENDBRANCH   9  27
BRANCH   1  29
HETATM   29  C   UNL     1      -1.494  11.411  28.160  0.00  0.00     0.180 C 
HETATM   30  O   UNL     1      -1.205  12.393  28.845  0.00  0.00    -0.291 OA
BRANCH  29  31
HETATM   31  C   UNL     1      -1.465   9.999  28.738  0.00  0.00     0.081 C 
HETATM   32  C   UNL     1      -1.047   8.950  27.720  0.00  0.00     0.013 C 
ENDBRANCH  29  31
ENDBRANCH   1  29
TORSDOF 6
ENDMDL
MODEL 8
REMARK VINA RESULT:    -7.667      2.130      3.206
REMARK INTER + INTRA:         -10.853
REMARK INTER:                  -9.694
REMARK INTRA:                  -1.158
REMARK UNBOUND:                -0.720
REMARK  6 active torsions:
REMARK  status: ('A' for Active; 'I' for Inactive)
REMARK    1  A    between atoms: C_2  and  C_3 
REMARK    2  A    between atoms: C_3  and  C_5 
REMARK    3  A    between atoms: C_12  and  C_16 
REMARK    4  A    between atoms: C_13  and  O_15 
REMARK       I    between atoms: C_16  and  N_18 
REMARK    5  A    between atoms: N_18  and  C_20 
REMARK    6  A    between atoms: C_23  and  N_26 
ROOT
HETATM    1  C   UNL     1      11.059  12.917  24.453  0.00  0.00     0.135 A 
HETATM    2  N   UNL     1      12.201  13.561  24.144  0.00  0.00    -0.170 NA
HETATM    3  N   UNL     1      11.806  14.586  23.374  0.00  0.00    -0.277 N 
HETATM    4  H   UNL     1      12.516  15.206  22.998  0.00  0.00     0.189 HD
HETATM    5  C   UNL     1       9.925  13.586  23.892  0.00  0.00     0.027 A 
HETATM    6  C   UNL     1      10.458  14.635  23.153  0.00  0.00     0.065 A 
HETATM    7  C   UNL     1       8.524  13.412  23.884  0.00  0.00     0.036 C 
HETATM    8  C   UNL     1       7.698  14.238  23.083  0.00  0.00     0.066 C 
HETATM    9  C   UNL     1       8.313  15.194  22.264  0.00  0.00     0.083 C 
HETATM   10  C   UNL     1       9.683  15.469  22.343  0.00  0.00     0.069 C 
ENDROOT
BRANCH   8  11
HETATM   11  C   UNL     1       6.246  13.883  23.084  0.00  0.00     0.260 C 
HETATM   12  O   UNL     1       5.888  13.261  22.078  0.00  0.00    -0.267 OA
HETATM   13  N   UNL     1       5.356  14.226  24.130  0.00  0.00    -0.318 N 
HETATM   14  C   UNL     1       5.668  15.137  25.231  0.00  0.00     0.159 C 
BRANCH  13  15
HETATM   15  C   UNL     1       4.016  13.680  24.124  0.00  0.00     0.037 A 
HETATM   16  C   UNL     1       3.771  12.381  24.572  0.00  0.00     0.032 A 
HETATM   17  C   UNL     1       2.487  11.823  24.524  0.00  0.00     0.031 A 
HETATM   18  C   UNL     1       1.384  12.522  24.023  0.00  0.00     0.030 A 
HETATM   19  C   UNL     1       1.623  13.850  23.643  0.00  0.00     0.031 A 
HETATM   20  C   UNL     1       2.913  14.427  23.700  0.00  0.00     0.032 A 
BRANCH  18  21
HETATM   21  N   UNL     1       0.152  11.915  23.909  0.00  0.00    -0.377 N 
HETATM   22  C   UNL     1      -0.379  10.917  24.850  0.00  0.00     0.149 C 
HETATM   23  C   UNL     1      -1.690  11.415  25.478  0.00  0.00     0.187 C 
HETATM   24  O   UNL     1      -2.654  11.782  24.474  0.00  0.00    -0.388 OA
HETATM   25  C   UNL     1      -2.126  12.830  23.646  0.00  0.00     0.187 C 
HETATM   26  C   UNL     1      -0.837  12.395  22.926  0.00  0.00     0.149 C 
ENDBRANCH  18  21
ENDBRANCH  13  15
ENDBRANCH   8  11
BRANCH   9  27
HETATM   27  O   UNL     1       7.663  15.867  21.264  0.00  0.00    -0.360 OA
HETATM   28  H   UNL     1       7.263  15.201  20.678  0.00  0.00     0.217 HD
ENDBRANCH   9  27
BRANCH   1  29
HETATM   29  C   UNL     1      11.073  11.670  25.238  0.00  0.00     0.180 C 
HETATM   30  O   UNL     1      11.279  11.675  26.451  0.00  0.00    -0.291 OA
BRANCH  29  31
HETATM   31  C   UNL     1      10.808  10.372  24.480  0.00  0.00     0.081 C 
HETATM   32  C   UNL     1       9.394   9.850  24.675  0.00  0.00     0.013 C 
ENDBRANCH  29  31
ENDBRANCH   1  29
TORSDOF 6
ENDMDL
MODEL 9
REMARK VINA RESULT:    -7.659      2.123      9.581
REMARK INTER + INTRA:         -10.842
REMARK INTER:                 -10.039
REMARK INTRA:                  -0.803
REMARK UNBOUND:                -0.720
REMARK  6 active torsions:
REMARK  status: ('A' for Active; 'I' for Inactive)
REMARK    1  A    between atoms: C_2  and  C_3 
REMARK    2  A    between atoms: C_3  and  C_5 
REMARK    3  A    between atoms: C_12  and  C_16 
REMARK    4  A    between atoms: C_13  and  O_15 
REMARK       I    between atoms: C_16  and  N_18 
REMARK    5  A    between atoms: N_18  and  C_20 
REMARK    6  A    between atoms: C_23  and  N_26 
ROOT
HETATM    1  C   UNL     1      -0.435  12.793  25.882  0.00  0.00     0.135 A 
HETATM    2  N   UNL     1      -1.126  13.112  26.994  0.00  0.00    -0.170 NA
HETATM    3  N   UNL     1      -0.388  14.066  27.581  0.00  0.00    -0.277 N 
HETATM    4  H   UNL     1      -0.710  14.446  28.465  0.00  0.00     0.189 HD
HETATM    5  C   UNL     1       0.740  13.601  25.759  0.00  0.00     0.027 A 
HETATM    6  C   UNL     1       0.762  14.377  26.912  0.00  0.00     0.065 A 
HETATM    7  C   UNL     1       1.804  13.742  24.842  0.00  0.00     0.036 C 
HETATM    8  C   UNL     1       2.898  14.595  25.130  0.00  0.00     0.066 C 
HETATM    9  C   UNL     1       2.918  15.251  26.367  0.00  0.00     0.083 C 
HETATM   10  C   UNL     1       1.824  15.224  27.240  0.00  0.00     0.069 C 
ENDROOT
BRANCH   8  11
HETATM   11  C   UNL     1       4.006  14.576  24.126  0.00  0.00     0.260 C 
HETATM   12  O   UNL     1       3.899  15.445  23.254  0.00  0.00    -0.267 OA
HETATM   13  N   UNL     1       5.077  13.651  24.160  0.00  0.00    -0.318 N 
HETATM   14  C   UNL     1       5.144  12.477  25.030  0.00  0.00     0.159 C 
BRANCH  13  15
HETATM   15  C   UNL     1       6.192  13.829  23.255  0.00  0.00     0.037 A 
HETATM   16  C   UNL     1       6.448  12.901  22.244  0.00  0.00     0.032 A 
HETATM   17  C   UNL     1       7.554  13.036  21.394  0.00  0.00     0.031 A 
HETATM   18  C   UNL     1       8.464  14.092  21.508  0.00  0.00     0.030 A 
HETATM   19  C   UNL     1       8.159  15.059  22.477  0.00  0.00     0.031 A 
HETATM   20  C   UNL     1       7.039  14.939  23.331  0.00  0.00     0.032 A 
BRANCH  18  21
HETATM   21  N   UNL     1       9.588  14.148  20.713  0.00  0.00    -0.377 N 
HETATM   22  C   UNL     1      10.641  15.168  20.825  0.00  0.00     0.149 C 
HETATM   23  C   UNL     1      11.995  14.512  21.132  0.00  0.00     0.187 C 
HETATM   24  O   UNL     1      12.324  13.496  20.168  0.00  0.00    -0.388 OA
HETATM   25  C   UNL     1      11.318  12.471  20.171  0.00  0.00     0.187 C 
HETATM   26  C   UNL     1       9.930  13.032  19.811  0.00  0.00     0.149 C 
ENDBRANCH  18  21
ENDBRANCH  13  15
ENDBRANCH   8  11
BRANCH   9  27
HETATM   27  O   UNL     1       4.022  15.886  26.871  0.00  0.00    -0.360 OA
HETATM   28  H   UNL     1       3.738  16.767  27.172  0.00  0.00     0.217 HD
ENDBRANCH   9  27
BRANCH   1  29
HETATM   29  C   UNL     1      -0.884  11.712  24.987  0.00  0.00     0.180 C 
HETATM   30  O   UNL     1      -1.068  10.568  25.401  0.00  0.00    -0.291 OA
BRANCH  29  31
HETATM   31  C   UNL     1      -1.122  12.079  23.524  0.00  0.00     0.081 C 
HETATM   32  C   UNL     1      -2.597  12.191  23.174  0.00  0.00     0.013 C 
ENDBRANCH  29  31
ENDBRANCH   1  29
TORSDOF 6
ENDMDL
