MODEL 1
REMARK VINA RESULT:    -8.627      0.000      0.000
REMARK INTER + INTRA:         -11.448
REMARK INTER:                 -11.084
REMARK INTRA:                  -0.364
REMARK UNBOUND:                -0.551
REMARK  5 active torsions:
REMARK  status: ('A' for Active; 'I' for Inactive)
REMARK    1  A    between atoms: N_6  and  C_7 
REMARK    2  A    between atoms: C_12  and  N_13 
REMARK       I    between atoms: N_13  and  C_15 
REMARK    3  A    between atoms: C_15  and  C_17 
REMARK    4  A    between atoms: C_18  and  O_20 
REMARK    5  A    between atoms: C_24  and  C_28 
REMARK       I    between atoms: C_28  and  N_30 
ROOT
HETATM    1  C   UNL     1      -2.877  13.292  21.696  0.00  0.00     0.066 C 
HETATM    2  C   UNL     1      -4.229  13.637  21.904  0.00  0.00     0.083 C 
HETATM    3  C   UNL     1      -4.779  14.841  21.443  0.00  0.00     0.069 C 
HETATM    4  C   UNL     1      -2.084  14.177  20.935  0.00  0.00     0.036 C 
HETATM    5  C   UNL     1      -2.570  15.465  20.591  0.00  0.00     0.029 C 
HETATM    6  C   UNL     1      -3.910  15.740  20.818  0.00  0.00     0.065 C 
HETATM    7  C   UNL     1      -2.017  16.699  20.092  0.00  0.00     0.157 C 
HETATM    8  N   UNL     1      -3.003  17.595  19.871  0.00  0.00    -0.168 NA
HETATM    9  N   UNL     1      -4.117  16.990  20.306  0.00  0.00    -0.277 N 
HETATM   10  H   UNL     1      -4.990  17.494  20.257  0.00  0.00     0.189 HD
ENDROOT
BRANCH   1  11
HETATM   11  C   UNL     1      -2.351  12.003  22.313  0.00  0.00     0.260 C 
HETATM   12  N   UNL     1      -1.538  12.013  23.485  0.00  0.00    -0.318 N 
HETATM   13  C   UNL     1      -1.205  13.278  24.148  0.00  0.00     0.159 C 
HETATM   14  O   UNL     1      -2.753  10.980  21.746  0.00  0.00    -0.267 OA
BRANCH  12  15
HETATM   15  C   UNL     1      -1.080  10.798  24.167  0.00  0.00     0.037 A 
HETATM   16  C   UNL     1      -0.049  10.017  23.620  0.00  0.00     0.032 A 
HETATM   17  C   UNL     1       0.544   8.943  24.309  0.00  0.00     0.031 A 
HETATM   18  C   UNL     1       0.119   8.541  25.575  0.00  0.00     0.030 A 
HETATM   19  C   UNL     1      -0.980   9.243  26.079  0.00  0.00     0.031 A 
HETATM   20  C   UNL     1      -1.565  10.346  25.399  0.00  0.00     0.032 A 
BRANCH  18  21
HETATM   21  N   UNL     1       0.745   7.504  26.236  0.00  0.00    -0.377 N 
HETATM   22  C   UNL     1       1.940   6.806  25.737  0.00  0.00     0.149 C 
HETATM   23  C   UNL     1       1.613   5.335  25.434  0.00  0.00     0.187 C 
HETATM   24  O   UNL     1       1.059   4.671  26.584  0.00  0.00    -0.388 OA
HETATM   25  C   UNL     1      -0.149   5.329  27.002  0.00  0.00     0.187 C 
HETATM   26  C   UNL     1       0.100   6.803  27.368  0.00  0.00     0.149 C 
ENDBRANCH  18  21
ENDBRANCH  12  15
ENDBRANCH   1  11
BRANCH   2  27
HETATM   27  O   UNL     1      -5.115  12.829  22.574  0.00  0.00    -0.360 OA
HETATM   28  H   UNL     1      -4.692  11.946  22.679  0.00  0.00     0.217 HD
ENDBRANCH   2  27
BRANCH   7  29
HETATM   29  C   UNL     1      -0.585  17.004  19.847  0.00  0.00     0.275 C 
HETATM   30  O   UNL     1      -0.227  17.397  18.739  0.00  0.00    -0.266 OA
HETATM   31  N   UNL     1       0.354  16.830  20.884  0.00  0.00    -0.343 N 
HETATM   32  C   UNL     1       1.749  17.197  20.626  0.00  0.00     0.152 C 
HETATM   33  C   UNL     1       0.219  15.814  21.941  0.00  0.00     0.152 C 
HETATM   34  C   UNL     1       2.503  17.513  21.926  0.00  0.00     0.187 C 
HETATM   35  O   UNL     1       2.389  16.439  22.872  0.00  0.00    -0.388 OA
HETATM   36  C   UNL     1       1.011  16.204  23.193  0.00  0.00     0.187 C 
ENDBRANCH   7  29
TORSDOF 5
ENDMDL
MODEL 2
REMARK VINA RESULT:    -8.437      3.425      6.046
REMARK INTER + INTRA:         -11.208
REMARK INTER:                  -9.998
REMARK INTRA:                  -1.210
REMARK UNBOUND:                -0.551
REMARK  5 active torsions:
REMARK  status: ('A' for Active; 'I' for Inactive)
REMARK    1  A    between atoms: N_6  and  C_7 
REMARK    2  A    between atoms: C_12  and  N_13 
REMARK       I    between atoms: N_13  and  C_15 
REMARK    3  A    between atoms: C_15  and  C_17 
REMARK    4  A    between atoms: C_18  and  O_20 
REMARK    5  A    between atoms: C_24  and  C_28 
REMARK       I    between atoms: C_28  and  N_30 
ROOT
HETATM    1  C   UNL     1      -0.976   9.473  25.758  0.00  0.00     0.066 C 
HETATM    2  C   UNL     1      -1.214   9.654  27.137  0.00  0.00     0.083 C 
HETATM    3  C   UNL     1      -2.141  10.586  27.626  0.00  0.00     0.069 C 
HETATM    4  C   UNL     1      -1.760  10.220  24.853  0.00  0.00     0.036 C 
HETATM    5  C   UNL     1      -2.589  11.273  25.318  0.00  0.00     0.029 C 
HETATM    6  C   UNL     1      -2.784  11.396  26.686  0.00  0.00     0.065 C 
HETATM    7  C   UNL     1      -3.296  12.389  24.741  0.00  0.00     0.157 C 
HETATM    8  N   UNL     1      -4.010  13.029  25.691  0.00  0.00    -0.168 NA
HETATM    9  N   UNL     1      -3.690  12.408  26.834  0.00  0.00    -0.277 N 
HETATM   10  H   UNL     1      -4.099  12.741  27.694  0.00  0.00     0.189 HD
ENDROOT
BRANCH   1  11
HETATM   11  C   UNL     1       0.115   8.500  25.330  0.00  0.00     0.260 C 
HETATM   12  N   UNL     1       1.433   8.946  25.015  0.00  0.00    -0.318 N 
HETATM   13  C   UNL     1       1.782  10.367  25.123  0.00  0.00     0.159 C 
HETATM   14  O   UNL     1      -0.238   7.315  25.353  0.00  0.00    -0.267 OA
BRANCH  12  15
HETATM   15  C   UNL     1       2.539   8.043  24.683  0.00  0.00     0.037 A 
HETATM   16  C   UNL     1       2.705   7.569  23.371  0.00  0.00     0.032 A 
HETATM   17  C   UNL     1       3.838   6.843  22.958  0.00  0.00     0.031 A 
HETATM   18  C   UNL     1       4.864   6.496  23.836  0.00  0.00     0.030 A 
HETATM   19  C   UNL     1       4.652   6.868  25.168  0.00  0.00     0.031 A 
HETATM   20  C   UNL     1       3.523   7.626  25.584  0.00  0.00     0.032 A 
BRANCH  18  21
HETATM   21  N   UNL     1       5.975   5.810  23.391  0.00  0.00    -0.377 N 
HETATM   22  C   UNL     1       6.802   6.226  22.248  0.00  0.00     0.149 C 
HETATM   23  C   UNL     1       6.717   5.187  21.119  0.00  0.00     0.187 C 
HETATM   24  O   UNL     1       7.085   3.875  21.583  0.00  0.00    -0.388 OA
HETATM   25  C   UNL     1       6.211   3.463  22.648  0.00  0.00     0.187 C 
HETATM   26  C   UNL     1       6.269   4.432  23.842  0.00  0.00     0.149 C 
ENDBRANCH  18  21
ENDBRANCH  12  15
ENDBRANCH   1  11
BRANCH   2  27
HETATM   27  O   UNL     1      -0.560   8.940  28.111  0.00  0.00    -0.360 OA
HETATM   28  H   UNL     1       0.293   8.630  27.731  0.00  0.00     0.217 HD
ENDBRANCH   2  27
BRANCH   7  29
HETATM   29  C   UNL     1      -3.272  12.826  23.322  0.00  0.00     0.275 C 
HETATM   30  O   UNL     1      -3.922  12.205  22.484  0.00  0.00    -0.266 OA
HETATM   31  N   UNL     1      -2.496  13.942  22.947  0.00  0.00    -0.343 N 
HETATM   32  C   UNL     1      -2.544  14.381  21.549  0.00  0.00     0.152 C 
HETATM   33  C   UNL     1      -1.247  14.327  23.623  0.00  0.00     0.152 C 
HETATM   34  C   UNL     1      -2.162  15.862  21.407  0.00  0.00     0.187 C 
HETATM   35  O   UNL     1      -0.895  16.138  22.022  0.00  0.00    -0.388 OA
HETATM   36  C   UNL     1      -0.940  15.814  23.419  0.00  0.00     0.187 C 
ENDBRANCH   7  29
TORSDOF 5
ENDMDL
MODEL 3
REMARK VINA RESULT:    -8.216      2.218      2.836
REMARK INTER + INTRA:         -10.929
REMARK INTER:                 -10.280
REMARK INTRA:                  -0.650
REMARK UNBOUND:                -0.551
REMARK  5 active torsions:
REMARK  status: ('A' for Active; 'I' for Inactive)
REMARK    1  A    between atoms: N_6  and  C_7 
REMARK    2  A    between atoms: C_12  and  N_13 
REMARK       I    between atoms: N_13  and  C_15 
REMARK    3  A    between atoms: C_15  and  C_17 
REMARK    4  A    between atoms: C_18  and  O_20 
REMARK    5  A    between atoms: C_24  and  C_28 
REMARK       I    between atoms: C_28  and  N_30 
ROOT
HETATM    1  C   UNL     1      -2.406  13.105  23.480  0.00  0.00     0.066 C 
HETATM    2  C   UNL     1      -3.677  13.201  22.876  0.00  0.00     0.083 C 
HETATM    3  C   UNL     1      -3.959  14.119  21.854  0.00  0.00     0.069 C 
HETATM    4  C   UNL     1      -1.375  13.926  22.974  0.00  0.00     0.036 C 
HETATM    5  C   UNL     1      -1.669  14.964  22.053  0.00  0.00     0.029 C 
HETATM    6  C   UNL     1      -2.937  15.001  21.493  0.00  0.00     0.065 C 
HETATM    7  C   UNL     1      -0.999  16.129  21.533  0.00  0.00     0.157 C 
HETATM    8  N   UNL     1      -1.761  16.721  20.589  0.00  0.00    -0.168 NA
HETATM    9  N   UNL     1      -2.903  16.021  20.584  0.00  0.00    -0.277 N 
HETATM   10  H   UNL     1      -3.640  16.306  19.957  0.00  0.00     0.189 HD
ENDROOT
BRANCH   1  11
HETATM   11  C   UNL     1      -2.224  12.139  24.643  0.00  0.00     0.260 C 
HETATM   12  N   UNL     1      -1.462  10.941  24.507  0.00  0.00    -0.318 N 
HETATM   13  C   UNL     1      -0.804  10.619  23.236  0.00  0.00     0.159 C 
HETATM   14  O   UNL     1      -2.733  12.531  25.700  0.00  0.00    -0.267 OA
BRANCH  12  15
HETATM   15  C   UNL     1      -1.184  10.024  25.617  0.00  0.00     0.037 A 
HETATM   16  C   UNL     1      -0.563   8.786  25.383  0.00  0.00     0.032 A 
HETATM   17  C   UNL     1      -0.120   7.944  26.420  0.00  0.00     0.031 A 
HETATM   18  C   UNL     1      -0.308   8.255  27.766  0.00  0.00     0.030 A 
HETATM   19  C   UNL     1      -1.025   9.431  28.006  0.00  0.00     0.031 A 
HETATM   20  C   UNL     1      -1.450  10.299  26.962  0.00  0.00     0.032 A 
BRANCH  18  21
HETATM   21  N   UNL     1       0.167   7.421  28.758  0.00  0.00    -0.377 N 
HETATM   22  C   UNL     1      -0.664   6.857  29.833  0.00  0.00     0.149 C 
HETATM   23  C   UNL     1      -0.210   7.396  31.199  0.00  0.00     0.187 C 
HETATM   24  O   UNL     1       1.188   7.142  31.427  0.00  0.00    -0.388 OA
HETATM   25  C   UNL     1       1.980   7.770  30.404  0.00  0.00     0.187 C 
HETATM   26  C   UNL     1       1.616   7.251  29.001  0.00  0.00     0.149 C 
ENDBRANCH  18  21
ENDBRANCH  12  15
ENDBRANCH   1  11
BRANCH   2  27
HETATM   27  O   UNL     1      -4.741  12.412  23.238  0.00  0.00    -0.360 OA
HETATM   28  H   UNL     1      -4.454  11.853  23.996  0.00  0.00     0.217 HD
ENDBRANCH   2  27
BRANCH   7  29
HETATM   29  C   UNL     1       0.327  16.657  21.943  0.00  0.00     0.275 C 
HETATM   30  O   UNL     1       0.400  17.741  22.518  0.00  0.00    -0.266 OA
HETATM   31  N   UNL     1       1.492  15.915  21.658  0.00  0.00    -0.343 N 
HETATM   32  C   UNL     1       2.778  16.437  22.130  0.00  0.00     0.152 C 
HETATM   33  C   UNL     1       1.630  15.035  20.487  0.00  0.00     0.152 C 
HETATM   34  C   UNL     1       3.823  15.321  22.280  0.00  0.00     0.187 C 
HETATM   35  O   UNL     1       3.954  14.560  21.070  0.00  0.00    -0.388 OA
HETATM   36  C   UNL     1       2.698  13.961  20.720  0.00  0.00     0.187 C 
ENDBRANCH   7  29
TORSDOF 5
ENDMDL
MODEL 4
REMARK VINA RESULT:    -8.176      3.527      6.147
REMARK INTER + INTRA:         -10.878
REMARK INTER:                  -9.879
REMARK INTRA:                  -0.999
REMARK UNBOUND:                -0.551
REMARK  5 active torsions:
REMARK  status: ('A' for Active; 'I' for Inactive)
REMARK    1  A    between atoms: N_6  and  C_7 
REMARK    2  A    between atoms: C_12  and  N_13 
REMARK       I    between atoms: N_13  and  C_15 
REMARK    3  A    between atoms: C_15  and  C_17 
REMARK    4  A    between atoms: C_18  and  O_20 
REMARK    5  A    between atoms: C_24  and  C_28 
REMARK       I    between atoms: C_28  and  N_30 
ROOT
HETATM    1  C   UNL     1      -0.559  10.016  25.790  0.00  0.00     0.066 C 
HETATM    2  C   UNL     1      -0.986   9.998  27.135  0.00  0.00     0.083 C 
HETATM    3  C   UNL     1      -2.174  10.612  27.557  0.00  0.00     0.069 C 
HETATM    4  C   UNL     1      -1.408  10.623  24.840  0.00  0.00     0.036 C 
HETATM    5  C   UNL     1      -2.531  11.381  25.259  0.00  0.00     0.029 C 
HETATM    6  C   UNL     1      -2.901  11.318  26.595  0.00  0.00     0.065 C 
HETATM    7  C   UNL     1      -3.440  12.331  24.667  0.00  0.00     0.157 C 
HETATM    8  N   UNL     1      -4.398  12.674  25.555  0.00  0.00    -0.168 NA
HETATM    9  N   UNL     1      -4.052  12.049  26.688  0.00  0.00    -0.277 N 
HETATM   10  H   UNL     1      -4.627  12.183  27.507  0.00  0.00     0.189 HD
ENDROOT
BRANCH   1  11
HETATM   11  C   UNL     1       0.790   9.398  25.447  0.00  0.00     0.260 C 
HETATM   12  N   UNL     1       0.908   8.028  25.066  0.00  0.00    -0.318 N 
HETATM   13  C   UNL     1      -0.283   7.178  24.969  0.00  0.00     0.159 C 
HETATM   14  O   UNL     1       1.727  10.205  25.465  0.00  0.00    -0.267 OA
BRANCH  12  15
HETATM   15  C   UNL     1       2.167   7.408  24.642  0.00  0.00     0.037 A 
HETATM   16  C   UNL     1       2.841   6.509  25.486  0.00  0.00     0.032 A 
HETATM   17  C   UNL     1       3.955   5.758  25.069  0.00  0.00     0.031 A 
HETATM   18  C   UNL     1       4.507   5.885  23.795  0.00  0.00     0.030 A 
HETATM   19  C   UNL     1       3.911   6.859  22.987  0.00  0.00     0.031 A 
HETATM   20  C   UNL     1       2.768   7.600  23.394  0.00  0.00     0.032 A 
BRANCH  18  21
HETATM   21  N   UNL     1       5.582   5.109  23.408  0.00  0.00    -0.377 N 
HETATM   22  C   UNL     1       6.953   5.616  23.247  0.00  0.00     0.149 C 
HETATM   23  C   UNL     1       7.393   5.511  21.778  0.00  0.00     0.187 C 
HETATM   24  O   UNL     1       7.269   4.164  21.286  0.00  0.00    -0.388 OA
HETATM   25  C   UNL     1       5.904   3.724  21.385  0.00  0.00     0.187 C 
HETATM   26  C   UNL     1       5.397   3.757  22.838  0.00  0.00     0.149 C 
ENDBRANCH  18  21
ENDBRANCH  12  15
ENDBRANCH   1  11
BRANCH   2  27
HETATM   27  O   UNL     1      -0.278   9.383  28.138  0.00  0.00    -0.360 OA
HETATM   28  H   UNL     1      -0.540   8.434  28.150  0.00  0.00     0.217 HD
ENDBRANCH   2  27
BRANCH   7  29
HETATM   29  C   UNL     1      -3.377  12.893  23.295  0.00  0.00     0.275 C 
HETATM   30  O   UNL     1      -4.069  12.403  22.404  0.00  0.00    -0.266 OA
HETATM   31  N   UNL     1      -2.517  13.976  23.021  0.00  0.00    -0.343 N 
HETATM   32  C   UNL     1      -2.525  14.544  21.670  0.00  0.00     0.152 C 
HETATM   33  C   UNL     1      -1.245  14.202  23.727  0.00  0.00     0.152 C 
HETATM   34  C   UNL     1      -2.031  15.999  21.664  0.00  0.00     0.187 C 
HETATM   35  O   UNL     1      -0.749  16.120  22.298  0.00  0.00    -0.388 OA
HETATM   36  C   UNL     1      -0.824  15.673  23.660  0.00  0.00     0.187 C 
ENDBRANCH   7  29
TORSDOF 5
ENDMDL
MODEL 5
REMARK VINA RESULT:    -7.929      3.677      5.293
REMARK INTER + INTRA:         -10.566
REMARK INTER:                  -9.935
REMARK INTRA:                  -0.631
REMARK UNBOUND:                -0.551
REMARK  5 active torsions:
REMARK  status: ('A' for Active; 'I' for Inactive)
REMARK    1  A    between atoms: N_6  and  C_7 
REMARK    2  A    between atoms: C_12  and  N_13 
REMARK       I    between atoms: N_13  and  C_15 
REMARK    3  A    between atoms: C_15  and  C_17 
REMARK    4  A    between atoms: C_18  and  O_20 
REMARK    5  A    between atoms: C_24  and  C_28 
REMARK       I    between atoms: C_28  and  N_30 
ROOT
HETATM    1  C   UNL     1      -2.628  10.610  26.241  0.00  0.00     0.066 C 
HETATM    2  C   UNL     1      -4.003  10.898  26.373  0.00  0.00     0.083 C 
HETATM    3  C   UNL     1      -4.749  11.499  25.348  0.00  0.00     0.069 C 
HETATM    4  C   UNL     1      -2.017  10.883  24.999  0.00  0.00     0.036 C 
HETATM    5  C   UNL     1      -2.704  11.627  24.006  0.00  0.00     0.029 C 
HETATM    6  C   UNL     1      -4.056  11.875  24.194  0.00  0.00     0.065 C 
HETATM    7  C   UNL     1      -2.367  12.316  22.786  0.00  0.00     0.157 C 
HETATM    8  N   UNL     1      -3.484  12.793  22.197  0.00  0.00    -0.168 NA
HETATM    9  N   UNL     1      -4.472  12.506  23.056  0.00  0.00    -0.277 N 
HETATM   10  H   UNL     1      -5.410  12.796  22.825  0.00  0.00     0.189 HD
ENDROOT
BRANCH   1  11
HETATM   11  C   UNL     1      -1.887  10.038  27.442  0.00  0.00     0.260 C 
HETATM   12  N   UNL     1      -0.956   8.966  27.304  0.00  0.00    -0.318 N 
HETATM   13  C   UNL     1      -0.668   8.397  25.984  0.00  0.00     0.159 C 
HETATM   14  O   UNL     1      -2.119  10.634  28.500  0.00  0.00    -0.267 OA
BRANCH  12  15
HETATM   15  C   UNL     1      -0.154   8.439  28.412  0.00  0.00     0.037 A 
HETATM   16  C   UNL     1       1.238   8.628  28.440  0.00  0.00     0.032 A 
HETATM   17  C   UNL     1       2.033   8.297  29.553  0.00  0.00     0.031 A 
HETATM   18  C   UNL     1       1.503   7.708  30.701  0.00  0.00     0.030 A 
HETATM   19  C   UNL     1       0.137   7.414  30.637  0.00  0.00     0.031 A 
HETATM   20  C   UNL     1      -0.675   7.772  29.526  0.00  0.00     0.032 A 
BRANCH  18  21
HETATM   21  N   UNL     1       2.307   7.425  31.787  0.00  0.00    -0.377 N 
HETATM   22  C   UNL     1       3.377   6.415  31.784  0.00  0.00     0.149 C 
HETATM   23  C   UNL     1       3.045   5.281  32.766  0.00  0.00     0.187 C 
HETATM   24  O   UNL     1       2.803   5.787  34.092  0.00  0.00    -0.388 OA
HETATM   25  C   UNL     1       1.703   6.712  34.076  0.00  0.00     0.187 C 
HETATM   26  C   UNL     1       1.974   7.907  33.145  0.00  0.00     0.149 C 
ENDBRANCH  18  21
ENDBRANCH  12  15
ENDBRANCH   1  11
BRANCH   2  27
HETATM   27  O   UNL     1      -4.723  10.619  27.509  0.00  0.00    -0.360 OA
HETATM   28  H   UNL     1      -4.956  11.477  27.932  0.00  0.00     0.217 HD
ENDBRANCH   2  27
BRANCH   7  29
HETATM   29  C   UNL     1      -1.011  12.514  22.216  0.00  0.00     0.275 C 
HETATM   30  O   UNL     1      -0.418  11.563  21.711  0.00  0.00    -0.266 OA
HETATM   31  N   UNL     1      -0.410  13.789  22.269  0.00  0.00    -0.343 N 
HETATM   32  C   UNL     1       0.904  13.962  21.643  0.00  0.00     0.152 C 
HETATM   33  C   UNL     1      -0.662  14.762  23.343  0.00  0.00     0.152 C 
HETATM   34  C   UNL     1       1.162  15.428  21.262  0.00  0.00     0.187 C 
HETATM   35  O   UNL     1       0.973  16.303  22.383  0.00  0.00    -0.388 OA
HETATM   36  C   UNL     1      -0.369  16.193  22.879  0.00  0.00     0.187 C 
ENDBRANCH   7  29
TORSDOF 5
ENDMDL
MODEL 6
REMARK VINA RESULT:    -7.805      4.141      7.512
REMARK INTER + INTRA:         -10.410
REMARK INTER:                  -9.235
REMARK INTRA:                  -1.175
REMARK UNBOUND:                -0.551
REMARK  5 active torsions:
REMARK  status: ('A' for Active; 'I' for Inactive)
REMARK    1  A    between atoms: N_6  and  C_7 
REMARK    2  A    between atoms: C_12  and  N_13 
REMARK       I    between atoms: N_13  and  C_15 
REMARK    3  A    between atoms: C_15  and  C_17 
REMARK    4  A    between atoms: C_18  and  O_20 
REMARK    5  A    between atoms: C_24  and  C_28 
REMARK       I    between atoms: C_28  and  N_30 
ROOT
HETATM    1  C   UNL     1       0.752   8.898  26.183  0.00  0.00     0.066 C 
HETATM    2  C   UNL     1       0.154   8.370  27.347  0.00  0.00     0.083 C 
HETATM    3  C   UNL     1      -1.000   8.924  27.919  0.00  0.00     0.069 C 
HETATM    4  C   UNL     1       0.108   9.982  25.548  0.00  0.00     0.036 C 
HETATM    5  C   UNL     1      -0.966  10.654  26.186  0.00  0.00     0.029 C 
HETATM    6  C   UNL     1      -1.511  10.082  27.326  0.00  0.00     0.065 C 
HETATM    7  C   UNL     1      -1.676  11.898  26.020  0.00  0.00     0.157 C 
HETATM    8  N   UNL     1      -2.695  11.973  26.902  0.00  0.00    -0.168 NA
HETATM    9  N   UNL     1      -2.574  10.874  27.658  0.00  0.00    -0.277 N 
HETATM   10  H   UNL     1      -3.230  10.732  28.411  0.00  0.00     0.189 HD
ENDROOT
BRANCH   1  11
HETATM   11  C   UNL     1       2.054   8.281  25.690  0.00  0.00     0.260 C 
HETATM   12  N   UNL     1       2.074   7.324  24.632  0.00  0.00    -0.318 N 
HETATM   13  C   UNL     1       0.829   6.925  23.967  0.00  0.00     0.159 C 
HETATM   14  O   UNL     1       3.062   8.739  26.241  0.00  0.00    -0.267 OA
BRANCH  12  15
HETATM   15  C   UNL     1       3.305   6.767  24.063  0.00  0.00     0.037 A 
HETATM   16  C   UNL     1       3.915   5.642  24.642  0.00  0.00     0.032 A 
HETATM   17  C   UNL     1       4.994   4.965  24.044  0.00  0.00     0.031 A 
HETATM   18  C   UNL     1       5.574   5.390  22.850  0.00  0.00     0.030 A 
HETATM   19  C   UNL     1       5.045   6.574  22.325  0.00  0.00     0.031 A 
HETATM   20  C   UNL     1       3.937   7.246  22.911  0.00  0.00     0.032 A 
BRANCH  18  21
HETATM   21  N   UNL     1       6.611   4.684  22.275  0.00  0.00    -0.377 N 
HETATM   22  C   UNL     1       8.035   4.992  22.478  0.00  0.00     0.149 C 
HETATM   23  C   UNL     1       8.682   5.431  21.155  0.00  0.00     0.187 C 
HETATM   24  O   UNL     1       8.500   4.440  20.127  0.00  0.00    -0.388 OA
HETATM   25  C   UNL     1       7.099   4.216  19.897  0.00  0.00     0.187 C 
HETATM   26  C   UNL     1       6.381   3.730  21.169  0.00  0.00     0.149 C 
ENDBRANCH  18  21
ENDBRANCH  12  15
ENDBRANCH   1  11
BRANCH   2  27
HETATM   27  O   UNL     1       0.651   7.279  28.016  0.00  0.00    -0.360 OA
HETATM   28  H   UNL     1       0.876   7.567  28.930  0.00  0.00     0.217 HD
ENDBRANCH   2  27
BRANCH   7  29
HETATM   29  C   UNL     1      -1.372  12.978  25.049  0.00  0.00     0.275 C 
HETATM   30  O   UNL     1      -0.988  14.073  25.456  0.00  0.00    -0.266 OA
HETATM   31  N   UNL     1      -1.537  12.745  23.668  0.00  0.00    -0.343 N 
HETATM   32  C   UNL     1      -1.170  13.814  22.735  0.00  0.00     0.152 C 
HETATM   33  C   UNL     1      -2.545  11.826  23.114  0.00  0.00     0.152 C 
HETATM   34  C   UNL     1      -0.844  13.261  21.339  0.00  0.00     0.187 C 
HETATM   35  O   UNL     1      -1.910  12.442  20.837  0.00  0.00    -0.388 OA
HETATM   36  C   UNL     1      -2.144  11.335  21.719  0.00  0.00     0.187 C 
ENDBRANCH   7  29
TORSDOF 5
ENDMDL
MODEL 7
REMARK VINA RESULT:    -7.768      5.097     10.531
REMARK INTER + INTRA:         -10.363
REMARK INTER:                  -9.184
REMARK INTRA:                  -1.179
REMARK UNBOUND:                -0.551
REMARK  5 active torsions:
REMARK  status: ('A' for Active; 'I' for Inactive)
REMARK    1  A    between atoms: N_6  and  C_7 
REMARK    2  A    between atoms: C_12  and  N_13 
REMARK       I    between atoms: N_13  and  C_15 
REMARK    3  A    between atoms: C_15  and  C_17 
REMARK    4  A    between atoms: C_18  and  O_20 
REMARK    5  A    between atoms: C_24  and  C_28 
REMARK       I    between atoms: C_28  and  N_30 
ROOT
HETATM    1  C   UNL     1       4.288   6.954  24.589  0.00  0.00     0.066 C 
HETATM    2  C   UNL     1       4.659   5.874  25.418  0.00  0.00     0.083 C 
HETATM    3  C   UNL     1       5.492   4.836  24.976  0.00  0.00     0.069 C 
HETATM    4  C   UNL     1       4.842   7.006  23.292  0.00  0.00     0.036 C 
HETATM    5  C   UNL     1       5.559   5.898  22.770  0.00  0.00     0.029 C 
HETATM    6  C   UNL     1       5.895   4.870  23.638  0.00  0.00     0.065 C 
HETATM    7  C   UNL     1       6.022   5.460  21.477  0.00  0.00     0.157 C 
HETATM    8  N   UNL     1       6.743   4.325  21.603  0.00  0.00    -0.168 NA
HETATM    9  N   UNL     1       6.655   4.006  22.901  0.00  0.00    -0.277 N 
HETATM   10  H   UNL     1       7.110   3.165  23.222  0.00  0.00     0.189 HD
ENDROOT
BRANCH   1  11
HETATM   11  C   UNL     1       3.308   7.985  25.132  0.00  0.00     0.260 C 
HETATM   12  N   UNL     1       1.926   7.959  24.781  0.00  0.00    -0.318 N 
HETATM   13  C   UNL     1       1.403   6.912  23.897  0.00  0.00     0.159 C 
HETATM   14  O   UNL     1       3.813   8.774  25.939  0.00  0.00    -0.267 OA
BRANCH  12  15
HETATM   15  C   UNL     1       0.927   8.873  25.343  0.00  0.00     0.037 A 
HETATM   16  C   UNL     1       0.719  10.142  24.776  0.00  0.00     0.032 A 
HETATM   17  C   UNL     1      -0.336  10.988  25.163  0.00  0.00     0.031 A 
HETATM   18  C   UNL     1      -1.231  10.652  26.178  0.00  0.00     0.030 A 
HETATM   19  C   UNL     1      -0.963   9.440  26.824  0.00  0.00     0.031 A 
HETATM   20  C   UNL     1       0.085   8.568  26.417  0.00  0.00     0.032 A 
BRANCH  18  21
HETATM   21  N   UNL     1      -2.273  11.492  26.511  0.00  0.00    -0.377 N 
HETATM   22  C   UNL     1      -3.613  11.033  26.909  0.00  0.00     0.149 C 
HETATM   23  C   UNL     1      -4.660  11.478  25.876  0.00  0.00     0.187 C 
HETATM   24  O   UNL     1      -4.631  12.903  25.677  0.00  0.00    -0.388 OA
HETATM   25  C   UNL     1      -3.332  13.313  25.216  0.00  0.00     0.187 C 
HETATM   26  C   UNL     1      -2.225  12.942  26.219  0.00  0.00     0.149 C 
ENDBRANCH  18  21
ENDBRANCH  12  15
ENDBRANCH   1  11
BRANCH   2  27
HETATM   27  O   UNL     1       4.237   5.747  26.718  0.00  0.00    -0.360 OA
HETATM   28  H   UNL     1       4.073   6.652  27.068  0.00  0.00     0.217 HD
ENDBRANCH   2  27
BRANCH   7  29
HETATM   29  C   UNL     1       5.768   6.110  20.168  0.00  0.00     0.275 C 
HETATM   30  O   UNL     1       6.269   7.206  19.925  0.00  0.00    -0.266 OA
HETATM   31  N   UNL     1       4.944   5.471  19.218  0.00  0.00    -0.343 N 
HETATM   32  C   UNL     1       4.763   6.113  17.913  0.00  0.00     0.152 C 
HETATM   33  C   UNL     1       3.824   4.586  19.578  0.00  0.00     0.152 C 
HETATM   34  C   UNL     1       4.368   5.097  16.831  0.00  0.00     0.187 C 
HETATM   35  O   UNL     1       3.220   4.332  17.225  0.00  0.00    -0.388 OA
HETATM   36  C   UNL     1       3.492   3.617  18.439  0.00  0.00     0.187 C 
ENDBRANCH   7  29
TORSDOF 5
ENDMDL
MODEL 8
REMARK VINA RESULT:    -7.677      4.096     10.523
REMARK INTER + INTRA:         -10.248
REMARK INTER:                  -9.066
REMARK INTRA:                  -1.182
REMARK UNBOUND:                -0.551
REMARK  5 active torsions:
REMARK  status: ('A' for Active; 'I' for Inactive)
REMARK    1  A    between atoms: N_6  and  C_7 
REMARK    2  A    between atoms: C_12  and  N_13 
REMARK       I    between atoms: N_13  and  C_15 
REMARK    3  A    between atoms: C_15  and  C_17 
REMARK    4  A    between atoms: C_18  and  O_20 
REMARK    5  A    between atoms: C_24  and  C_28 
REMARK       I    between atoms: C_28  and  N_30 
ROOT
HETATM    1  C   UNL     1       1.736   5.382  24.780  0.00  0.00     0.066 C 
HETATM    2  C   UNL     1       1.863   4.471  25.850  0.00  0.00     0.083 C 
HETATM    3  C   UNL     1       2.752   3.388  25.816  0.00  0.00     0.069 C 
HETATM    4  C   UNL     1       2.596   5.217  23.672  0.00  0.00     0.036 C 
HETATM    5  C   UNL     1       3.391   4.049  23.546  0.00  0.00     0.029 C 
HETATM    6  C   UNL     1       3.475   3.195  24.636  0.00  0.00     0.065 C 
HETATM    7  C   UNL     1       4.149   3.400  22.506  0.00  0.00     0.157 C 
HETATM    8  N   UNL     1       4.788   2.319  23.002  0.00  0.00    -0.168 NA
HETATM    9  N   UNL     1       4.372   2.230  24.272  0.00  0.00    -0.277 N 
HETATM   10  H   UNL     1       4.712   1.467  24.838  0.00  0.00     0.189 HD
ENDROOT
BRANCH   1  11
HETATM   11  C   UNL     1       0.678   6.474  24.874  0.00  0.00     0.260 C 
HETATM   12  N   UNL     1       1.023   7.823  25.182  0.00  0.00    -0.318 N 
HETATM   13  C   UNL     1       2.424   8.203  25.391  0.00  0.00     0.159 C 
HETATM   14  O   UNL     1      -0.462   6.087  24.595  0.00  0.00    -0.267 OA
BRANCH  12  15
HETATM   15  C   UNL     1       0.056   8.925  25.199  0.00  0.00     0.037 A 
HETATM   16  C   UNL     1      -0.315   9.570  24.007  0.00  0.00     0.032 A 
HETATM   17  C   UNL     1      -1.358  10.512  23.940  0.00  0.00     0.031 A 
HETATM   18  C   UNL     1      -2.074  10.915  25.066  0.00  0.00     0.030 A 
HETATM   19  C   UNL     1      -1.636  10.362  26.274  0.00  0.00     0.031 A 
HETATM   20  C   UNL     1      -0.602   9.389  26.343  0.00  0.00     0.032 A 
BRANCH  18  21
HETATM   21  N   UNL     1      -3.111  11.819  24.960  0.00  0.00    -0.377 N 
HETATM   22  C   UNL     1      -4.147  11.771  23.915  0.00  0.00     0.149 C 
HETATM   23  C   UNL     1      -4.054  13.012  23.013  0.00  0.00     0.187 C 
HETATM   24  O   UNL     1      -4.137  14.228  23.780  0.00  0.00    -0.388 OA
HETATM   25  C   UNL     1      -3.068  14.282  24.740  0.00  0.00     0.187 C 
HETATM   26  C   UNL     1      -3.114  13.091  25.714  0.00  0.00     0.149 C 
ENDBRANCH  18  21
ENDBRANCH  12  15
ENDBRANCH   1  11
BRANCH   2  27
HETATM   27  O   UNL     1       1.128   4.566  27.006  0.00  0.00    -0.360 OA
HETATM   28  H   UNL     1       1.676   4.202  27.738  0.00  0.00     0.217 HD
ENDBRANCH   2  27
BRANCH   7  29
HETATM   29  C   UNL     1       4.244   3.806  21.082  0.00  0.00     0.275 C 
HETATM   30  O   UNL     1       3.786   3.073  20.208  0.00  0.00    -0.266 OA
HETATM   31  N   UNL     1       4.870   5.024  20.742  0.00  0.00    -0.343 N 
HETATM   32  C   UNL     1       4.892   5.422  19.332  0.00  0.00     0.152 C 
HETATM   33  C   UNL     1       5.970   5.616  21.519  0.00  0.00     0.152 C 
HETATM   34  C   UNL     1       5.050   6.942  19.174  0.00  0.00     0.187 C 
HETATM   35  O   UNL     1       6.191   7.428  19.895  0.00  0.00    -0.388 OA
HETATM   36  C   UNL     1       6.060   7.129  21.293  0.00  0.00     0.187 C 
ENDBRANCH   7  29
TORSDOF 5
ENDMDL
MODEL 9
REMARK VINA RESULT:    -7.605      2.981      3.979
REMARK INTER + INTRA:         -10.158
REMARK INTER:                  -9.606
REMARK INTRA:                  -0.551
REMARK UNBOUND:                -0.551
REMARK  5 active torsions:
REMARK  status: ('A' for Active; 'I' for Inactive)
REMARK    1  A    between atoms: N_6  and  C_7 
REMARK    2  A    between atoms: C_12  and  N_13 
REMARK       I    between atoms: N_13  and  C_15 
REMARK    3  A    between atoms: C_15  and  C_17 
REMARK    4  A    between atoms: C_18  and  O_20 
REMARK    5  A    between atoms: C_24  and  C_28 
REMARK       I    between atoms: C_28  and  N_30 
ROOT
HETATM    1  C   UNL     1      -2.180  11.829  25.163  0.00  0.00     0.066 C 
HETATM    2  C   UNL     1      -3.423  12.474  25.335  0.00  0.00     0.083 C 
HETATM    3  C   UNL     1      -3.911  13.424  24.427  0.00  0.00     0.069 C 
HETATM    4  C   UNL     1      -1.448  12.117  23.991  0.00  0.00     0.036 C 
HETATM    5  C   UNL     1      -1.843  13.180  23.139  0.00  0.00     0.029 C 
HETATM    6  C   UNL     1      -3.078  13.771  23.360  0.00  0.00     0.065 C 
HETATM    7  C   UNL     1      -1.258  13.936  22.060  0.00  0.00     0.157 C 
HETATM    8  N   UNL     1      -2.161  14.804  21.556  0.00  0.00    -0.168 NA
HETATM    9  N   UNL     1      -3.235  14.675  22.347  0.00  0.00    -0.277 N 
HETATM   10  H   UNL     1      -4.040  15.255  22.165  0.00  0.00     0.189 HD
ENDROOT
BRANCH   1  11
HETATM   11  C   UNL     1      -1.696  10.879  26.250  0.00  0.00     0.260 C 
HETATM   12  N   UNL     1      -1.002   9.673  25.934  0.00  0.00    -0.318 N 
HETATM   13  C   UNL     1      -0.710   9.328  24.539  0.00  0.00     0.159 C 
HETATM   14  O   UNL     1      -1.903  11.289  27.398  0.00  0.00    -0.267 OA
BRANCH  12  15
HETATM   15  C   UNL     1      -0.441   8.770  26.943  0.00  0.00     0.037 A 
HETATM   16  C   UNL     1       0.805   9.042  27.532  0.00  0.00     0.032 A 
HETATM   17  C   UNL     1       1.312   8.309  28.621  0.00  0.00     0.031 A 
HETATM   18  C   UNL     1       0.634   7.221  29.170  0.00  0.00     0.030 A 
HETATM   19  C   UNL     1      -0.553   6.875  28.518  0.00  0.00     0.031 A 
HETATM   20  C   UNL     1      -1.083   7.629  27.435  0.00  0.00     0.032 A 
BRANCH  18  21
HETATM   21  N   UNL     1       1.146   6.544  30.258  0.00  0.00    -0.377 N 
HETATM   22  C   UNL     1       0.832   5.144  30.585  0.00  0.00     0.149 C 
HETATM   23  C   UNL     1       0.076   5.063  31.920  0.00  0.00     0.187 C 
HETATM   24  O   UNL     1       0.812   5.697  32.982  0.00  0.00    -0.388 OA
HETATM   25  C   UNL     1       1.037   7.082  32.670  0.00  0.00     0.187 C 
HETATM   26  C   UNL     1       1.831   7.252  31.362  0.00  0.00     0.149 C 
ENDBRANCH  18  21
ENDBRANCH  12  15
ENDBRANCH   1  11
BRANCH   2  27
HETATM   27  O   UNL     1      -4.253  12.229  26.401  0.00  0.00    -0.360 OA
HETATM   28  H   UNL     1      -5.068  11.801  26.052  0.00  0.00     0.217 HD
ENDBRANCH   2  27
BRANCH   7  29
HETATM   29  C   UNL     1       0.129  13.828  21.541  0.00  0.00     0.275 C 
HETATM   30  O   UNL     1       0.500  12.784  21.009  0.00  0.00    -0.266 OA
HETATM   31  N   UNL     1       1.011  14.920  21.672  0.00  0.00    -0.343 N 
HETATM   32  C   UNL     1       2.353  14.801  21.095  0.00  0.00     0.152 C 
HETATM   33  C   UNL     1       0.952  15.883  22.784  0.00  0.00     0.152 C 
HETATM   34  C   UNL     1       2.965  16.177  20.791  0.00  0.00     0.187 C 
HETATM   35  O   UNL     1       2.942  17.027  21.947  0.00  0.00    -0.388 OA
HETATM   36  C   UNL     1       1.593  17.220  22.397  0.00  0.00     0.187 C 
ENDBRANCH   7  29
TORSDOF 5
ENDMDL
