MODEL 1
REMARK VINA RESULT:    -9.320      0.000      0.000
REMARK INTER + INTRA:         -12.147
REMARK INTER:                 -10.953
REMARK INTRA:                  -1.194
REMARK UNBOUND:                -0.375
REMARK  5 active torsions:
REMARK  status: ('A' for Active; 'I' for Inactive)
REMARK    1  A    between atoms: C_5  and  N_6 
REMARK       I    between atoms: N_6  and  C_7 
REMARK    2  A    between atoms: C_7  and  C_9 
REMARK    3  A    between atoms: C_10  and  O_11 
REMARK    4  A    between atoms: C_17  and  C_18 
REMARK    5  A    between atoms: C_18  and  C_19 
ROOT
HETATM    1  C   UNL     1       7.251  12.056  21.374  0.00  0.00     0.066 C 
HETATM    2  C   UNL     1       8.343  11.578  22.114  0.00  0.00     0.083 C 
HETATM    3  C   UNL     1       8.820  12.249  23.252  0.00  0.00     0.069 C 
HETATM    4  C   UNL     1       8.160  13.426  23.628  0.00  0.00     0.065 A 
HETATM    5  N   UNL     1       8.345  14.284  24.667  0.00  0.00    -0.277 N 
HETATM    6  H   UNL     1       9.028  14.212  25.414  0.00  0.00     0.189 HD
HETATM    7  N   UNL     1       7.485  15.316  24.694  0.00  0.00    -0.178 NA
HETATM    8  C   UNL     1       6.722  15.139  23.598  0.00  0.00     0.071 A 
HETATM    9  C   UNL     1       7.115  13.965  22.886  0.00  0.00     0.020 A 
HETATM   10  C   UNL     1       6.702  13.308  21.708  0.00  0.00     0.035 C 
ENDROOT
BRANCH   1  11
HETATM   11  C   UNL     1       6.709  11.244  20.232  0.00  0.00     0.260 C 
HETATM   12  N   UNL     1       5.618  10.359  20.435  0.00  0.00    -0.318 N 
HETATM   13  C   UNL     1       5.149  10.032  21.789  0.00  0.00     0.159 C 
HETATM   14  O   UNL     1       7.306  11.409  19.164  0.00  0.00    -0.267 OA
BRANCH  12  15
HETATM   15  C   UNL     1       4.999   9.597  19.366  0.00  0.00     0.037 A 
HETATM   16  C   UNL     1       4.778   8.215  19.437  0.00  0.00     0.031 A 
HETATM   17  C   UNL     1       4.051   7.540  18.440  0.00  0.00     0.021 A 
HETATM   18  C   UNL     1       3.549   8.235  17.346  0.00  0.00     0.011 A 
HETATM   19 BR   UNL     1       2.513   7.344  16.043  0.00  0.00    -0.051 Br
HETATM   20  C   UNL     1       3.798   9.593  17.218  0.00  0.00     0.021 A 
HETATM   21  C   UNL     1       4.525  10.259  18.213  0.00  0.00     0.031 A 
ENDBRANCH  12  15
ENDBRANCH   1  11
BRANCH   2  22
HETATM   22  O   UNL     1       9.029  10.439  21.778  0.00  0.00    -0.360 OA
HETATM   23  H   UNL     1       8.391   9.691  21.820  0.00  0.00     0.217 HD
ENDBRANCH   2  22
BRANCH   8  24
HETATM   24  C   UNL     1       5.587  16.084  23.329  0.00  0.00     0.100 C 
BRANCH  24  25
HETATM   25  C   UNL     1       4.270  15.450  23.722  0.00  0.00    -0.052 C 
HETATM   26  C   UNL     1       3.449  14.747  22.827  0.00  0.00     0.014 C 
HETATM   27  C   UNL     1       2.319  14.053  23.274  0.00  0.00    -0.061 C 
HETATM   28  C   UNL     1       1.579  13.135  22.348  0.00  0.00     0.048 C 
HETATM   29  C   UNL     1       1.914  14.191  24.605  0.00  0.00     0.007 C 
HETATM   30  C   UNL     1       2.656  14.976  25.485  0.00  0.00     0.001 C 
HETATM   31  C   UNL     1       3.833  15.588  25.051  0.00  0.00     0.007 C 
ENDBRANCH  24  25
ENDBRANCH   8  24
TORSDOF 5
ENDMDL
MODEL 2
REMARK VINA RESULT:    -9.013      1.055      1.235
REMARK INTER + INTRA:         -11.759
REMARK INTER:                 -10.703
REMARK INTRA:                  -1.056
REMARK UNBOUND:                -0.375
REMARK  5 active torsions:
REMARK  status: ('A' for Active; 'I' for Inactive)
REMARK    1  A    between atoms: C_5  and  N_6 
REMARK       I    between atoms: N_6  and  C_7 
REMARK    2  A    between atoms: C_7  and  C_9 
REMARK    3  A    between atoms: C_10  and  O_11 
REMARK    4  A    between atoms: C_17  and  C_18 
REMARK    5  A    between atoms: C_18  and  C_19 
ROOT
HETATM    1  C   UNL     1       6.140  11.676  22.059  0.00  0.00     0.066 C 
HETATM    2  C   UNL     1       7.282  11.150  22.681  0.00  0.00     0.083 C 
HETATM    3  C   UNL     1       8.024  11.888  23.618  0.00  0.00     0.069 C 
HETATM    4  C   UNL     1       7.579  13.184  23.913  0.00  0.00     0.065 A 
HETATM    5  N   UNL     1       8.041  14.134  24.770  0.00  0.00    -0.277 N 
HETATM    6  H   UNL     1       8.831  14.064  25.403  0.00  0.00     0.189 HD
HETATM    7  N   UNL     1       7.323  15.270  24.777  0.00  0.00    -0.178 NA
HETATM    8  C   UNL     1       6.366  15.062  23.853  0.00  0.00     0.071 A 
HETATM    9  C   UNL     1       6.491  13.763  23.272  0.00  0.00     0.020 A 
HETATM   10  C   UNL     1       5.806  13.024  22.284  0.00  0.00     0.035 C 
ENDROOT
BRANCH   1  11
HETATM   11  C   UNL     1       5.317  10.808  21.149  0.00  0.00     0.260 C 
HETATM   12  N   UNL     1       5.767  10.519  19.834  0.00  0.00    -0.318 N 
HETATM   13  C   UNL     1       6.905  11.239  19.246  0.00  0.00     0.159 C 
HETATM   14  O   UNL     1       4.254  10.421  21.643  0.00  0.00    -0.267 OA
BRANCH  12  15
HETATM   15  C   UNL     1       5.061   9.634  18.926  0.00  0.00     0.037 A 
HETATM   16  C   UNL     1       4.708   8.319  19.253  0.00  0.00     0.031 A 
HETATM   17  C   UNL     1       3.904   7.544  18.398  0.00  0.00     0.021 A 
HETATM   18  C   UNL     1       3.456   8.068  17.190  0.00  0.00     0.011 A 
HETATM   19 BR   UNL     1       2.320   7.055  16.073  0.00  0.00    -0.051 Br
HETATM   20  C   UNL     1       3.835   9.347  16.811  0.00  0.00     0.021 A 
HETATM   21  C   UNL     1       4.637  10.112  17.667  0.00  0.00     0.031 A 
ENDBRANCH  12  15
ENDBRANCH   1  11
BRANCH   2  22
HETATM   22  O   UNL     1       7.762   9.893  22.416  0.00  0.00    -0.360 OA
HETATM   23  H   UNL     1       8.495   9.992  21.767  0.00  0.00     0.217 HD
ENDBRANCH   2  22
BRANCH   8  24
HETATM   24  C   UNL     1       5.318  16.113  23.626  0.00  0.00     0.100 C 
BRANCH  24  25
HETATM   25  C   UNL     1       3.939  15.545  23.888  0.00  0.00    -0.052 C 
HETATM   26  C   UNL     1       3.028  15.220  22.871  0.00  0.00     0.014 C 
HETATM   27  C   UNL     1       1.829  14.559  23.159  0.00  0.00    -0.061 C 
HETATM   28  C   UNL     1       0.971  14.029  22.049  0.00  0.00     0.048 C 
HETATM   29  C   UNL     1       1.460  14.362  24.493  0.00  0.00     0.007 C 
HETATM   30  C   UNL     1       2.302  14.778  25.521  0.00  0.00     0.001 C 
HETATM   31  C   UNL     1       3.539  15.352  25.221  0.00  0.00     0.007 C 
ENDBRANCH  24  25
ENDBRANCH   8  24
TORSDOF 5
ENDMDL
MODEL 3
REMARK VINA RESULT:    -8.935      3.748      4.612
REMARK INTER + INTRA:         -11.661
REMARK INTER:                 -10.542
REMARK INTRA:                  -1.119
REMARK UNBOUND:                -0.375
REMARK  5 active torsions:
REMARK  status: ('A' for Active; 'I' for Inactive)
REMARK    1  A    between atoms: C_5  and  N_6 
REMARK       I    between atoms: N_6  and  C_7 
REMARK    2  A    between atoms: C_7  and  C_9 
REMARK    3  A    between atoms: C_10  and  O_11 
REMARK    4  A    between atoms: C_17  and  C_18 
REMARK    5  A    between atoms: C_18  and  C_19 
ROOT
HETATM    1  C   UNL     1       8.211  10.809  22.458  0.00  0.00     0.066 C 
HETATM    2  C   UNL     1       9.397  10.060  22.455  0.00  0.00     0.083 C 
HETATM    3  C   UNL     1      10.657  10.664  22.315  0.00  0.00     0.069 C 
HETATM    4  C   UNL     1      10.689  12.058  22.175  0.00  0.00     0.065 A 
HETATM    5  N   UNL     1      11.719  12.938  22.047  0.00  0.00    -0.277 N 
HETATM    6  H   UNL     1      12.712  12.732  22.046  0.00  0.00     0.189 HD
HETATM    7  N   UNL     1      11.339  14.223  21.946  0.00  0.00    -0.178 NA
HETATM    8  C   UNL     1       9.994  14.174  21.976  0.00  0.00     0.071 A 
HETATM    9  C   UNL     1       9.534  12.828  22.110  0.00  0.00     0.020 A 
HETATM   10  C   UNL     1       8.279  12.187  22.183  0.00  0.00     0.035 C 
ENDROOT
BRANCH   1  11
HETATM   11  C   UNL     1       6.897  10.129  22.723  0.00  0.00     0.260 C 
HETATM   12  N   UNL     1       6.032  10.612  23.739  0.00  0.00    -0.318 N 
HETATM   13  C   UNL     1       6.487  11.620  24.708  0.00  0.00     0.159 C 
HETATM   14  O   UNL     1       6.684   9.143  22.012  0.00  0.00    -0.267 OA
BRANCH  12  15
HETATM   15  C   UNL     1       4.721  10.050  24.006  0.00  0.00     0.037 A 
HETATM   16  C   UNL     1       4.529   8.799  24.605  0.00  0.00     0.031 A 
HETATM   17  C   UNL     1       3.246   8.354  24.971  0.00  0.00     0.021 A 
HETATM   18  C   UNL     1       2.131   9.148  24.726  0.00  0.00     0.011 A 
HETATM   19 BR   UNL     1       0.417   8.583  25.279  0.00  0.00    -0.051 Br
HETATM   20  C   UNL     1       2.281  10.367  24.083  0.00  0.00     0.021 A 
HETATM   21  C   UNL     1       3.562  10.803  23.719  0.00  0.00     0.031 A 
ENDBRANCH  12  15
ENDBRANCH   1  11
BRANCH   2  22
HETATM   22  O   UNL     1       9.415   8.694  22.575  0.00  0.00    -0.360 OA
HETATM   23  H   UNL     1       9.340   8.320  21.668  0.00  0.00     0.217 HD
ENDBRANCH   2  22
BRANCH   8  24
HETATM   24  C   UNL     1       9.207  15.453  21.950  0.00  0.00     0.100 C 
BRANCH  24  25
HETATM   25  C   UNL     1       8.210  15.482  23.088  0.00  0.00    -0.052 C 
HETATM   26  C   UNL     1       6.866  15.853  22.934  0.00  0.00     0.014 C 
HETATM   27  C   UNL     1       5.953  15.717  23.987  0.00  0.00    -0.061 C 
HETATM   28  C   UNL     1       4.486  15.912  23.746  0.00  0.00     0.048 C 
HETATM   29  C   UNL     1       6.420  15.356  25.254  0.00  0.00     0.007 C 
HETATM   30  C   UNL     1       7.773  15.090  25.453  0.00  0.00     0.001 C 
HETATM   31  C   UNL     1       8.658  15.138  24.376  0.00  0.00     0.007 C 
ENDBRANCH  24  25
ENDBRANCH   8  24
TORSDOF 5
ENDMDL
MODEL 4
REMARK VINA RESULT:    -8.587      2.156      3.488
REMARK INTER + INTRA:         -11.222
REMARK INTER:                 -10.962
REMARK INTRA:                  -0.260
REMARK UNBOUND:                -0.375
REMARK  5 active torsions:
REMARK  status: ('A' for Active; 'I' for Inactive)
REMARK    1  A    between atoms: C_5  and  N_6 
REMARK       I    between atoms: N_6  and  C_7 
REMARK    2  A    between atoms: C_7  and  C_9 
REMARK    3  A    between atoms: C_10  and  O_11 
REMARK    4  A    between atoms: C_17  and  C_18 
REMARK    5  A    between atoms: C_18  and  C_19 
ROOT
HETATM    1  C   UNL     1       8.590  10.977  23.030  0.00  0.00     0.066 C 
HETATM    2  C   UNL     1       9.775  10.226  23.053  0.00  0.00     0.083 C 
HETATM    3  C   UNL     1      10.860  10.574  23.873  0.00  0.00     0.069 C 
HETATM    4  C   UNL     1      10.718  11.712  24.678  0.00  0.00     0.065 A 
HETATM    5  N   UNL     1      11.547  12.297  25.585  0.00  0.00    -0.277 N 
HETATM    6  H   UNL     1      12.468  11.986  25.871  0.00  0.00     0.189 HD
HETATM    7  N   UNL     1      11.038  13.393  26.174  0.00  0.00    -0.178 NA
HETATM    8  C   UNL     1       9.831  13.548  25.597  0.00  0.00     0.071 A 
HETATM    9  C   UNL     1       9.586  12.517  24.639  0.00  0.00     0.020 A 
HETATM   10  C   UNL     1       8.539  12.183  23.753  0.00  0.00     0.035 C 
ENDROOT
BRANCH   1  11
HETATM   11  C   UNL     1       7.418  10.501  22.221  0.00  0.00     0.260 C 
HETATM   12  N   UNL     1       7.291  10.870  20.856  0.00  0.00    -0.318 N 
HETATM   13  C   UNL     1       8.153  11.905  20.267  0.00  0.00     0.159 C 
HETATM   14  O   UNL     1       6.611   9.813  22.852  0.00  0.00    -0.267 OA
BRANCH  12  15
HETATM   15  C   UNL     1       6.225  10.393  19.995  0.00  0.00     0.037 A 
HETATM   16  C   UNL     1       5.478  11.234  19.160  0.00  0.00     0.031 A 
HETATM   17  C   UNL     1       4.549  10.712  18.241  0.00  0.00     0.021 A 
HETATM   18  C   UNL     1       4.341   9.340  18.156  0.00  0.00     0.011 A 
HETATM   19 BR   UNL     1       3.147   8.634  16.875  0.00  0.00    -0.051 Br
HETATM   20  C   UNL     1       5.023   8.485  19.008  0.00  0.00     0.021 A 
HETATM   21  C   UNL     1       5.945   9.012  19.923  0.00  0.00     0.031 A 
ENDBRANCH  12  15
ENDBRANCH   1  11
BRANCH   2  22
HETATM   22  O   UNL     1       9.966   9.113  22.273  0.00  0.00    -0.360 OA
HETATM   23  H   UNL     1      10.116   9.424  21.352  0.00  0.00     0.217 HD
ENDBRANCH   2  22
BRANCH   8  24
HETATM   24  C   UNL     1       8.928  14.656  26.059  0.00  0.00     0.100 C 
BRANCH  24  25
HETATM   25  C   UNL     1       7.992  15.071  24.945  0.00  0.00    -0.052 C 
HETATM   26  C   UNL     1       6.600  15.170  25.096  0.00  0.00     0.014 C 
HETATM   27  C   UNL     1       5.798  15.702  24.080  0.00  0.00    -0.061 C 
HETATM   28  C   UNL     1       4.351  15.999  24.336  0.00  0.00     0.048 C 
HETATM   29  C   UNL     1       6.371  15.993  22.839  0.00  0.00     0.007 C 
HETATM   30  C   UNL     1       7.734  15.797  22.633  0.00  0.00     0.001 C 
HETATM   31  C   UNL     1       8.542  15.354  23.682  0.00  0.00     0.007 C 
ENDBRANCH  24  25
ENDBRANCH   8  24
TORSDOF 5
ENDMDL
MODEL 5
REMARK VINA RESULT:    -8.504      1.396      1.896
REMARK INTER + INTRA:         -11.117
REMARK INTER:                 -10.526
REMARK INTRA:                  -0.591
REMARK UNBOUND:                -0.375
REMARK  5 active torsions:
REMARK  status: ('A' for Active; 'I' for Inactive)
REMARK    1  A    between atoms: C_5  and  N_6 
REMARK       I    between atoms: N_6  and  C_7 
REMARK    2  A    between atoms: C_7  and  C_9 
REMARK    3  A    between atoms: C_10  and  O_11 
REMARK    4  A    between atoms: C_17  and  C_18 
REMARK    5  A    between atoms: C_18  and  C_19 
ROOT
HETATM    1  C   UNL     1       8.310  12.316  21.234  0.00  0.00     0.066 C 
HETATM    2  C   UNL     1       9.673  12.618  21.091  0.00  0.00     0.083 C 
HETATM    3  C   UNL     1      10.422  13.184  22.135  0.00  0.00     0.069 C 
HETATM    4  C   UNL     1       9.753  13.443  23.339  0.00  0.00     0.065 A 
HETATM    5  N   UNL     1      10.179  13.951  24.527  0.00  0.00    -0.277 N 
HETATM    6  H   UNL     1      11.119  14.236  24.776  0.00  0.00     0.189 HD
HETATM    7  N   UNL     1       9.221  14.038  25.466  0.00  0.00    -0.178 NA
HETATM    8  C   UNL     1       8.110  13.596  24.847  0.00  0.00     0.071 A 
HETATM    9  C   UNL     1       8.392  13.217  23.500  0.00  0.00     0.020 A 
HETATM   10  C   UNL     1       7.649  12.712  22.411  0.00  0.00     0.035 C 
ENDROOT
BRANCH   1  11
HETATM   11  C   UNL     1       7.580  11.608  20.128  0.00  0.00     0.260 C 
HETATM   12  N   UNL     1       6.688  10.544  20.423  0.00  0.00    -0.318 N 
HETATM   13  C   UNL     1       6.633   9.951  21.767  0.00  0.00     0.159 C 
HETATM   14  O   UNL     1       7.852  12.020  18.996  0.00  0.00    -0.267 OA
BRANCH  12  15
HETATM   15  C   UNL     1       5.899   9.861  19.415  0.00  0.00     0.037 A 
HETATM   16  C   UNL     1       5.833   8.466  19.306  0.00  0.00     0.031 A 
HETATM   17  C   UNL     1       4.948   7.845  18.406  0.00  0.00     0.021 A 
HETATM   18  C   UNL     1       4.128   8.612  17.586  0.00  0.00     0.011 A 
HETATM   19 BR   UNL     1       2.891   7.781  16.427  0.00  0.00    -0.051 Br
HETATM   20  C   UNL     1       4.210   9.996  17.629  0.00  0.00     0.021 A 
HETATM   21  C   UNL     1       5.095  10.608  18.526  0.00  0.00     0.031 A 
ENDBRANCH  12  15
ENDBRANCH   1  11
BRANCH   2  22
HETATM   22  O   UNL     1      10.367  12.395  19.929  0.00  0.00    -0.360 OA
HETATM   23  H   UNL     1      11.095  13.055  19.892  0.00  0.00     0.217 HD
ENDBRANCH   2  22
BRANCH   8  24
HETATM   24  C   UNL     1       6.827  13.488  25.621  0.00  0.00     0.100 C 
BRANCH  24  25
HETATM   25  C   UNL     1       5.722  14.246  24.917  0.00  0.00    -0.052 C 
HETATM   26  C   UNL     1       4.414  13.759  24.777  0.00  0.00     0.014 C 
HETATM   27  C   UNL     1       3.396  14.562  24.250  0.00  0.00    -0.061 C 
HETATM   28  C   UNL     1       1.968  14.108  24.306  0.00  0.00     0.048 C 
HETATM   29  C   UNL     1       3.720  15.811  23.712  0.00  0.00     0.007 C 
HETATM   30  C   UNL     1       5.035  16.267  23.742  0.00  0.00     0.001 C 
HETATM   31  C   UNL     1       6.026  15.497  24.353  0.00  0.00     0.007 C 
ENDBRANCH  24  25
ENDBRANCH   8  24
TORSDOF 5
ENDMDL
MODEL 6
REMARK VINA RESULT:    -8.460      3.781      5.011
REMARK INTER + INTRA:         -11.061
REMARK INTER:                 -10.441
REMARK INTRA:                  -0.620
REMARK UNBOUND:                -0.375
REMARK  5 active torsions:
REMARK  status: ('A' for Active; 'I' for Inactive)
REMARK    1  A    between atoms: C_5  and  N_6 
REMARK       I    between atoms: N_6  and  C_7 
REMARK    2  A    between atoms: C_7  and  C_9 
REMARK    3  A    between atoms: C_10  and  O_11 
REMARK    4  A    between atoms: C_17  and  C_18 
REMARK    5  A    between atoms: C_18  and  C_19 
ROOT
HETATM    1  C   UNL     1       9.919  10.607  23.068  0.00  0.00     0.066 C 
HETATM    2  C   UNL     1      10.904  10.666  22.070  0.00  0.00     0.083 C 
HETATM    3  C   UNL     1      11.474  11.883  21.660  0.00  0.00     0.069 C 
HETATM    4  C   UNL     1      11.018  13.049  22.288  0.00  0.00     0.065 A 
HETATM    5  N   UNL     1      11.369  14.356  22.148  0.00  0.00    -0.277 N 
HETATM    6  H   UNL     1      12.080  14.744  21.538  0.00  0.00     0.189 HD
HETATM    7  N   UNL     1      10.698  15.198  22.953  0.00  0.00    -0.178 NA
HETATM    8  C   UNL     1       9.844  14.404  23.626  0.00  0.00     0.071 A 
HETATM    9  C   UNL     1      10.001  13.039  23.235  0.00  0.00     0.020 A 
HETATM   10  C   UNL     1       9.398  11.810  23.577  0.00  0.00     0.035 C 
ENDROOT
BRANCH   1  11
HETATM   11  C   UNL     1       9.422   9.273  23.550  0.00  0.00     0.260 C 
HETATM   12  N   UNL     1       8.200   8.743  23.060  0.00  0.00    -0.318 N 
HETATM   13  C   UNL     1       7.279   9.569  22.267  0.00  0.00     0.159 C 
HETATM   14  O   UNL     1      10.147   8.736  24.393  0.00  0.00    -0.267 OA
BRANCH  12  15
HETATM   15  C   UNL     1       7.693   7.434  23.428  0.00  0.00     0.037 A 
HETATM   16  C   UNL     1       8.419   6.250  23.245  0.00  0.00     0.031 A 
HETATM   17  C   UNL     1       7.949   5.021  23.741  0.00  0.00     0.021 A 
HETATM   18  C   UNL     1       6.734   4.955  24.413  0.00  0.00     0.011 A 
HETATM   19 BR   UNL     1       6.134   3.319  25.141  0.00  0.00    -0.051 Br
HETATM   20  C   UNL     1       5.964   6.099  24.560  0.00  0.00     0.021 A 
HETATM   21  C   UNL     1       6.438   7.319  24.062  0.00  0.00     0.031 A 
ENDBRANCH  12  15
ENDBRANCH   1  11
BRANCH   2  22
HETATM   22  O   UNL     1      11.371   9.553  21.418  0.00  0.00    -0.360 OA
HETATM   23  H   UNL     1      11.979   9.087  22.036  0.00  0.00     0.217 HD
ENDBRANCH   2  22
BRANCH   8  24
HETATM   24  C   UNL     1       8.959  14.999  24.683  0.00  0.00     0.100 C 
BRANCH  24  25
HETATM   25  C   UNL     1       7.518  15.007  24.219  0.00  0.00    -0.052 C 
HETATM   26  C   UNL     1       6.446  15.421  25.024  0.00  0.00     0.014 C 
HETATM   27  C   UNL     1       5.156  15.552  24.498  0.00  0.00    -0.061 C 
HETATM   28  C   UNL     1       4.070  16.196  25.307  0.00  0.00     0.048 C 
HETATM   29  C   UNL     1       4.901  15.114  23.195  0.00  0.00     0.007 C 
HETATM   30  C   UNL     1       5.932  14.596  22.416  0.00  0.00     0.001 C 
HETATM   31  C   UNL     1       7.234  14.557  22.918  0.00  0.00     0.007 C 
ENDBRANCH  24  25
ENDBRANCH   8  24
TORSDOF 5
ENDMDL
MODEL 7
REMARK VINA RESULT:    -8.445      2.045      4.644
REMARK INTER + INTRA:         -11.042
REMARK INTER:                 -10.063
REMARK INTRA:                  -0.980
REMARK UNBOUND:                -0.375
REMARK  5 active torsions:
REMARK  status: ('A' for Active; 'I' for Inactive)
REMARK    1  A    between atoms: C_5  and  N_6 
REMARK       I    between atoms: N_6  and  C_7 
REMARK    2  A    between atoms: C_7  and  C_9 
REMARK    3  A    between atoms: C_10  and  O_11 
REMARK    4  A    between atoms: C_17  and  C_18 
REMARK    5  A    between atoms: C_18  and  C_19 
ROOT
HETATM    1  C   UNL     1       4.652  12.442  21.391  0.00  0.00     0.066 C 
HETATM    2  C   UNL     1       3.679  12.628  22.385  0.00  0.00     0.083 C 
HETATM    3  C   UNL     1       3.846  13.559  23.423  0.00  0.00     0.069 C 
HETATM    4  C   UNL     1       5.032  14.304  23.433  0.00  0.00     0.065 A 
HETATM    5  N   UNL     1       5.487  15.283  24.262  0.00  0.00    -0.277 N 
HETATM    6  H   UNL     1       5.012  15.685  25.062  0.00  0.00     0.189 HD
HETATM    7  N   UNL     1       6.694  15.772  23.930  0.00  0.00    -0.178 NA
HETATM    8  C   UNL     1       7.058  15.052  22.851  0.00  0.00     0.071 A 
HETATM    9  C   UNL     1       6.046  14.106  22.503  0.00  0.00     0.020 A 
HETATM   10  C   UNL     1       5.881  13.115  21.513  0.00  0.00     0.035 C 
ENDROOT
BRANCH   1  11
HETATM   11  C   UNL     1       4.378  11.516  20.240  0.00  0.00     0.260 C 
HETATM   12  N   UNL     1       5.088  10.293  20.119  0.00  0.00    -0.318 N 
HETATM   13  C   UNL     1       6.259  10.009  20.960  0.00  0.00     0.159 C 
HETATM   14  O   UNL     1       3.531  11.932  19.444  0.00  0.00    -0.267 OA
BRANCH  12  15
HETATM   15  C   UNL     1       4.829   9.319  19.075  0.00  0.00     0.037 A 
HETATM   16  C   UNL     1       4.363   8.023  19.332  0.00  0.00     0.031 A 
HETATM   17  C   UNL     1       3.993   7.159  18.285  0.00  0.00     0.021 A 
HETATM   18  C   UNL     1       4.102   7.573  16.962  0.00  0.00     0.011 A 
HETATM   19 BR   UNL     1       3.541   6.441  15.559  0.00  0.00    -0.051 Br
HETATM   20  C   UNL     1       4.613   8.829  16.673  0.00  0.00     0.021 A 
HETATM   21  C   UNL     1       4.981   9.683  17.720  0.00  0.00     0.031 A 
ENDBRANCH  12  15
ENDBRANCH   1  11
BRANCH   2  22
HETATM   22  O   UNL     1       2.509  11.913  22.424  0.00  0.00    -0.360 OA
HETATM   23  H   UNL     1       2.435  11.427  21.572  0.00  0.00     0.217 HD
ENDBRANCH   2  22
BRANCH   8  24
HETATM   24  C   UNL     1       8.350  15.369  22.153  0.00  0.00     0.100 C 
BRANCH  24  25
HETATM   25  C   UNL     1       9.184  14.116  21.997  0.00  0.00    -0.052 C 
HETATM   26  C   UNL     1       9.755  13.424  23.077  0.00  0.00     0.014 C 
HETATM   27  C   UNL     1      10.389  12.190  22.890  0.00  0.00    -0.061 C 
HETATM   28  C   UNL     1      10.802  11.366  24.073  0.00  0.00     0.048 C 
HETATM   29  C   UNL     1      10.596  11.717  21.591  0.00  0.00     0.007 C 
HETATM   30  C   UNL     1      10.133  12.446  20.498  0.00  0.00     0.001 C 
HETATM   31  C   UNL     1       9.419  13.628  20.700  0.00  0.00     0.007 C 
ENDBRANCH  24  25
ENDBRANCH   8  24
TORSDOF 5
ENDMDL
MODEL 8
REMARK VINA RESULT:    -8.379      2.232      4.588
REMARK INTER + INTRA:         -10.959
REMARK INTER:                 -10.032
REMARK INTRA:                  -0.927
REMARK UNBOUND:                -0.375
REMARK  5 active torsions:
REMARK  status: ('A' for Active; 'I' for Inactive)
REMARK    1  A    between atoms: C_5  and  N_6 
REMARK       I    between atoms: N_6  and  C_7 
REMARK    2  A    between atoms: C_7  and  C_9 
REMARK    3  A    between atoms: C_10  and  O_11 
REMARK    4  A    between atoms: C_17  and  C_18 
REMARK    5  A    between atoms: C_18  and  C_19 
ROOT
HETATM    1  C   UNL     1       4.795  12.336  21.754  0.00  0.00     0.066 C 
HETATM    2  C   UNL     1       3.951  12.283  22.873  0.00  0.00     0.083 C 
HETATM    3  C   UNL     1       4.122  13.139  23.974  0.00  0.00     0.069 C 
HETATM    4  C   UNL     1       5.178  14.058  23.916  0.00  0.00     0.065 A 
HETATM    5  N   UNL     1       5.596  15.022  24.779  0.00  0.00    -0.277 N 
HETATM    6  H   UNL     1       5.182  15.277  25.669  0.00  0.00     0.189 HD
HETATM    7  N   UNL     1       6.663  15.721  24.354  0.00  0.00    -0.178 NA
HETATM    8  C   UNL     1       6.976  15.160  23.171  0.00  0.00     0.071 A 
HETATM    9  C   UNL     1       6.073  14.099  22.853  0.00  0.00     0.020 A 
HETATM   10  C   UNL     1       5.919  13.181  21.793  0.00  0.00     0.035 C 
ENDROOT
BRANCH   1  11
HETATM   11  C   UNL     1       4.503  11.478  20.555  0.00  0.00     0.260 C 
HETATM   12  N   UNL     1       5.182  10.245  20.374  0.00  0.00    -0.318 N 
HETATM   13  C   UNL     1       6.342   9.888  21.204  0.00  0.00     0.159 C 
HETATM   14  O   UNL     1       3.671  11.957  19.779  0.00  0.00    -0.267 OA
BRANCH  12  15
HETATM   15  C   UNL     1       4.903   9.333  19.280  0.00  0.00     0.037 A 
HETATM   16  C   UNL     1       4.417   8.033  19.468  0.00  0.00     0.031 A 
HETATM   17  C   UNL     1       4.029   7.233  18.379  0.00  0.00     0.021 A 
HETATM   18  C   UNL     1       4.140   7.716  17.080  0.00  0.00     0.011 A 
HETATM   19 BR   UNL     1       3.555   6.671  15.620  0.00  0.00    -0.051 Br
HETATM   20  C   UNL     1       4.671   8.978  16.856  0.00  0.00     0.021 A 
HETATM   21  C   UNL     1       5.057   9.768  17.946  0.00  0.00     0.031 A 
ENDBRANCH  12  15
ENDBRANCH   1  11
BRANCH   2  22
HETATM   22  O   UNL     1       2.913  11.393  22.981  0.00  0.00    -0.360 OA
HETATM   23  H   UNL     1       2.098  11.914  23.161  0.00  0.00     0.217 HD
ENDBRANCH   2  22
BRANCH   8  24
HETATM   24  C   UNL     1       8.100  15.732  22.356  0.00  0.00     0.100 C 
BRANCH  24  25
HETATM   25  C   UNL     1       9.362  14.921  22.558  0.00  0.00    -0.052 C 
HETATM   26  C   UNL     1       9.643  13.736  21.862  0.00  0.00     0.014 C 
HETATM   27  C   UNL     1      10.888  13.108  21.976  0.00  0.00    -0.061 C 
HETATM   28  C   UNL     1      11.248  11.970  21.068  0.00  0.00     0.048 C 
HETATM   29  C   UNL     1      11.808  13.580  22.917  0.00  0.00     0.007 C 
HETATM   30  C   UNL     1      11.503  14.692  23.698  0.00  0.00     0.001 C 
HETATM   31  C   UNL     1      10.296  15.367  23.510  0.00  0.00     0.007 C 
ENDBRANCH  24  25
ENDBRANCH   8  24
TORSDOF 5
ENDMDL
MODEL 9
REMARK VINA RESULT:    -8.316      3.454      4.470
REMARK INTER + INTRA:         -10.879
REMARK INTER:                 -10.503
REMARK INTRA:                  -0.375
REMARK UNBOUND:                -0.375
REMARK  5 active torsions:
REMARK  status: ('A' for Active; 'I' for Inactive)
REMARK    1  A    between atoms: C_5  and  N_6 
REMARK       I    between atoms: N_6  and  C_7 
REMARK    2  A    between atoms: C_7  and  C_9 
REMARK    3  A    between atoms: C_10  and  O_11 
REMARK    4  A    between atoms: C_17  and  C_18 
REMARK    5  A    between atoms: C_18  and  C_19 
ROOT
HETATM    1  C   UNL     1       9.005  11.469  22.822  0.00  0.00     0.066 C 
HETATM    2  C   UNL     1      10.002  11.608  21.844  0.00  0.00     0.083 C 
HETATM    3  C   UNL     1      10.294  12.848  21.253  0.00  0.00     0.069 C 
HETATM    4  C   UNL     1       9.546  13.954  21.677  0.00  0.00     0.065 A 
HETATM    5  N   UNL     1       9.590  15.270  21.334  0.00  0.00    -0.277 N 
HETATM    6  H   UNL     1      10.224  15.718  20.681  0.00  0.00     0.189 HD
HETATM    7  N   UNL     1       8.699  16.041  21.981  0.00  0.00    -0.178 NA
HETATM    8  C   UNL     1       8.018  15.177  22.759  0.00  0.00     0.071 A 
HETATM    9  C   UNL     1       8.509  13.846  22.596  0.00  0.00     0.020 A 
HETATM   10  C   UNL     1       8.191  12.576  23.122  0.00  0.00     0.035 C 
ENDROOT
BRANCH   1  11
HETATM   11  C   UNL     1       8.806  10.145  23.504  0.00  0.00     0.260 C 
HETATM   12  N   UNL     1       7.800   9.250  23.056  0.00  0.00    -0.318 N 
HETATM   13  C   UNL     1       6.780   9.679  22.088  0.00  0.00     0.159 C 
HETATM   14  O   UNL     1       9.561   9.949  24.462  0.00  0.00    -0.267 OA
BRANCH  12  15
HETATM   15  C   UNL     1       7.596   7.929  23.620  0.00  0.00     0.037 A 
HETATM   16  C   UNL     1       6.352   7.470  24.072  0.00  0.00     0.031 A 
HETATM   17  C   UNL     1       6.170   6.137  24.483  0.00  0.00     0.021 A 
HETATM   18  C   UNL     1       7.237   5.246  24.465  0.00  0.00     0.011 A 
HETATM   19 BR   UNL     1       6.980   3.439  24.949  0.00  0.00    -0.051 Br
HETATM   20  C   UNL     1       8.495   5.684  24.077  0.00  0.00     0.021 A 
HETATM   21  C   UNL     1       8.669   7.013  23.672  0.00  0.00     0.031 A 
ENDBRANCH  12  15
ENDBRANCH   1  11
BRANCH   2  22
HETATM   22  O   UNL     1      10.750  10.553  21.389  0.00  0.00    -0.360 OA
HETATM   23  H   UNL     1      11.100  10.803  20.504  0.00  0.00     0.217 HD
ENDBRANCH   2  22
BRANCH   8  24
HETATM   24  C   UNL     1       6.962  15.698  23.691  0.00  0.00     0.100 C 
BRANCH  24  25
HETATM   25  C   UNL     1       5.610  15.120  23.330  0.00  0.00    -0.052 C 
HETATM   26  C   UNL     1       5.437  14.045  22.446  0.00  0.00     0.014 C 
HETATM   27  C   UNL     1       4.182  13.453  22.264  0.00  0.00    -0.061 C 
HETATM   28  C   UNL     1       4.052  12.178  21.487  0.00  0.00     0.048 C 
HETATM   29  C   UNL     1       3.057  14.042  22.851  0.00  0.00     0.007 C 
HETATM   30  C   UNL     1       3.195  15.178  23.644  0.00  0.00     0.001 C 
HETATM   31  C   UNL     1       4.463  15.704  23.895  0.00  0.00     0.007 C 
ENDBRANCH  24  25
ENDBRANCH   8  24
TORSDOF 5
ENDMDL
