REMARK  5 active torsions:
REMARK  status: ('A' for Active; 'I' for Inactive)
REMARK    1  A    between atoms: C_5  and  N_6 
REMARK       I    between atoms: N_6  and  C_7 
REMARK    2  A    between atoms: C_7  and  C_9 
REMARK    3  A    between atoms: C_10  and  O_11 
REMARK    4  A    between atoms: C_17  and  C_18 
REMARK    5  A    between atoms: C_18  and  C_19 
ROOT
HETATM    1  C   UNL     1       7.176   2.530  -0.526  0.00  0.00     0.066 C 
HETATM    2  C   UNL     1       7.884   3.740  -0.464  0.00  0.00     0.083 C 
HETATM    3  C   UNL     1       7.232   4.984  -0.477  0.00  0.00     0.069 C 
HETATM    4  C   UNL     1       5.833   4.975  -0.556  0.00  0.00     0.065 A 
HETATM    5  N   UNL     1       4.914   5.978  -0.564  0.00  0.00    -0.277 N 
HETATM    6  H   UNL     1       5.086   6.975  -0.493  0.00  0.00     0.189 HD
HETATM    7  N   UNL     1       3.639   5.560  -0.642  0.00  0.00    -0.178 NA
HETATM    8  C   UNL     1       3.735   4.219  -0.723  0.00  0.00     0.071 A 
HETATM    9  C   UNL     1       5.100   3.801  -0.682  0.00  0.00     0.020 A 
HETATM   10  C   UNL     1       5.786   2.569  -0.737  0.00  0.00     0.035 C 
ENDROOT
BRANCH   1  11
HETATM   11  C   UNL     1       7.911   1.226  -0.396  0.00  0.00     0.260 C 
HETATM   12  N   UNL     1       7.334   0.146   0.322  0.00  0.00    -0.318 N 
HETATM   13  C   UNL     1       6.135   0.340   1.150  0.00  0.00     0.159 C 
HETATM   14  O   UNL     1       9.022   1.214  -0.934  0.00  0.00    -0.267 OA
BRANCH  12  15
HETATM   15  C   UNL     1       7.953  -1.162   0.431  0.00  0.00     0.037 A 
HETATM   16  C   UNL     1       9.325  -1.380   0.251  0.00  0.00     0.031 A 
HETATM   17  C   UNL     1       9.904  -2.637   0.502  0.00  0.00     0.021 A 
HETATM   18  C   UNL     1       9.114  -3.702   0.920  0.00  0.00     0.011 A 
HETATM   19 BR   UNL     1       9.899  -5.371   1.325  0.00  0.00    -0.051 Br
HETATM   20  C   UNL     1       7.744  -3.534   1.053  0.00  0.00     0.021 A 
HETATM   21  C   UNL     1       7.174  -2.280   0.799  0.00  0.00     0.031 A 
ENDBRANCH  12  15
ENDBRANCH   1  11
BRANCH   2  22
HETATM   22  O   UNL     1       9.253   3.799  -0.399  0.00  0.00    -0.360 OA
HETATM   23  H   UNL     1       9.596   2.915  -0.661  0.00  0.00     0.217 HD
ENDBRANCH   2  22
BRANCH   8  24
HETATM   24  C   UNL     1       2.483   3.390  -0.760  0.00  0.00     0.100 C 
BRANCH  24  25
HETATM   25  C   UNL     1       2.500   2.465  -1.958  0.00  0.00    -0.052 C 
HETATM   26  C   UNL     1       3.167   2.760  -3.157  0.00  0.00     0.014 C 
HETATM   27  C   UNL     1       3.277   1.807  -4.176  0.00  0.00    -0.061 C 
HETATM   28  C   UNL     1       4.170   2.059  -5.354  0.00  0.00     0.048 C 
HETATM   29  C   UNL     1       2.579   0.601  -4.063  0.00  0.00     0.007 C 
HETATM   30  C   UNL     1       1.820   0.335  -2.926  0.00  0.00     0.001 C 
HETATM   31  C   UNL     1       1.793   1.253  -1.875  0.00  0.00     0.007 C 
ENDBRANCH  24  25
ENDBRANCH   8  24
TORSDOF 5
