MODEL 1
REMARK VINA RESULT:    -7.346      0.000      0.000
REMARK INTER + INTRA:         -10.640
REMARK INTER:                  -9.961
REMARK INTRA:                  -0.679
REMARK UNBOUND:                -0.932
REMARK  6 active torsions:
REMARK  status: ('A' for Active; 'I' for Inactive)
REMARK    1  A    between atoms: C_2  and  C_3 
REMARK    2  A    between atoms: C_3  and  C_4 
REMARK    3  A    between atoms: C_11  and  C_15 
REMARK    4  A    between atoms: C_12  and  O_14 
REMARK       I    between atoms: C_15  and  N_17 
REMARK    5  A    between atoms: N_17  and  C_19 
REMARK    6  A    between atoms: C_22  and  N_25 
ROOT
HETATM    1  C   UNL     1       7.228  13.899  24.561  0.00  0.00     0.260 C 
HETATM    2  O   UNL     1       6.696  12.960  25.164  0.00  0.00    -0.267 OA
HETATM    3  N   UNL     1       6.554  14.655  23.575  0.00  0.00    -0.318 N 
HETATM    4  C   UNL     1       7.181  15.668  22.725  0.00  0.00     0.159 C 
ENDROOT
BRANCH   1   5
HETATM    5  C   UNL     1       8.643  14.147  24.976  0.00  0.00     0.066 A 
HETATM    6  C   UNL     1       9.619  13.774  24.018  0.00  0.00     0.035 A 
HETATM    7  C   UNL     1      10.986  14.053  24.234  0.00  0.00     0.019 A 
HETATM    8  C   UNL     1      12.198  13.949  23.499  0.00  0.00     0.067 A 
HETATM    9  C   UNL     1      11.352  14.630  25.444  0.00  0.00     0.065 A 
HETATM   10  N   UNL     1      13.250  14.383  24.213  0.00  0.00    -0.178 NA
HETATM   11  N   UNL     1      12.714  14.761  25.383  0.00  0.00    -0.277 N 
HETATM   12  H   UNL     1      13.330  15.142  26.091  0.00  0.00     0.189 HD
HETATM   13  C   UNL     1      10.430  15.010  26.418  0.00  0.00     0.069 A 
HETATM   14  C   UNL     1       9.069  14.826  26.123  0.00  0.00     0.083 A 
BRANCH   8  15
HETATM   15  C   UNL     1      12.400  13.505  22.085  0.00  0.00     0.062 C 
BRANCH  15  16
HETATM   16  C   UNL     1      11.706  12.177  21.778  0.00  0.00     0.002 C 
HETATM   17  C   UNL     1      10.613  12.341  20.732  0.00  0.00     0.005 C 
ENDBRANCH  15  16
ENDBRANCH   8  15
BRANCH  14  18
HETATM   18  O   UNL     1       8.219  15.454  26.994  0.00  0.00    -0.360 OA
HETATM   19  H   UNL     1       8.733  16.149  27.446  0.00  0.00     0.217 HD
ENDBRANCH  14  18
ENDBRANCH   1   5
BRANCH   3  20
HETATM   20  C   UNL     1       5.145  14.427  23.345  0.00  0.00     0.037 A 
HETATM   21  C   UNL     1       4.170  15.254  23.913  0.00  0.00     0.032 A 
HETATM   22  C   UNL     1       2.800  15.029  23.704  0.00  0.00     0.031 A 
HETATM   23  C   UNL     1       2.340  13.964  22.926  0.00  0.00     0.030 A 
HETATM   24  C   UNL     1       3.324  13.162  22.331  0.00  0.00     0.031 A 
HETATM   25  C   UNL     1       4.698  13.391  22.520  0.00  0.00     0.032 A 
BRANCH  23  26
HETATM   26  N   UNL     1       1.002  13.732  22.687  0.00  0.00    -0.377 N 
HETATM   27  C   UNL     1       0.370  13.959  21.379  0.00  0.00     0.149 C 
HETATM   28  C   UNL     1      -0.696  12.868  21.165  0.00  0.00     0.187 C 
HETATM   29  O   UNL     1      -1.663  12.837  22.233  0.00  0.00    -0.388 OA
HETATM   30  C   UNL     1      -1.010  12.613  23.496  0.00  0.00     0.187 C 
HETATM   31  C   UNL     1       0.026  13.708  23.791  0.00  0.00     0.149 C 
ENDBRANCH  23  26
ENDBRANCH   3  20
TORSDOF 6
ENDMDL
MODEL 2
REMARK VINA RESULT:    -7.330      6.874      9.129
REMARK INTER + INTRA:         -10.619
REMARK INTER:                  -9.646
REMARK INTRA:                  -0.973
REMARK UNBOUND:                -0.932
REMARK  6 active torsions:
REMARK  status: ('A' for Active; 'I' for Inactive)
REMARK    1  A    between atoms: C_2  and  C_3 
REMARK    2  A    between atoms: C_3  and  C_4 
REMARK    3  A    between atoms: C_11  and  C_15 
REMARK    4  A    between atoms: C_12  and  O_14 
REMARK       I    between atoms: C_15  and  N_17 
REMARK    5  A    between atoms: N_17  and  C_19 
REMARK    6  A    between atoms: C_22  and  N_25 
ROOT
HETATM    1  C   UNL     1       5.249  10.278  19.305  0.00  0.00     0.260 C 
HETATM    2  O   UNL     1       5.808   9.225  19.631  0.00  0.00    -0.267 OA
HETATM    3  N   UNL     1       4.393  10.376  18.184  0.00  0.00    -0.318 N 
HETATM    4  C   UNL     1       3.834  11.625  17.665  0.00  0.00     0.159 C 
ENDROOT
BRANCH   1   5
HETATM    5  C   UNL     1       5.571  11.427  20.206  0.00  0.00     0.066 A 
HETATM    6  C   UNL     1       4.472  11.931  20.946  0.00  0.00     0.035 A 
HETATM    7  C   UNL     1       4.657  12.942  21.914  0.00  0.00     0.019 A 
HETATM    8  C   UNL     1       3.867  13.597  22.898  0.00  0.00     0.067 A 
HETATM    9  C   UNL     1       5.929  13.480  22.063  0.00  0.00     0.065 A 
HETATM   10  N   UNL     1       4.580  14.511  23.577  0.00  0.00    -0.178 NA
HETATM   11  N   UNL     1       5.805  14.435  23.036  0.00  0.00    -0.277 N 
HETATM   12  H   UNL     1       6.530  15.039  23.406  0.00  0.00     0.189 HD
HETATM   13  C   UNL     1       7.040  13.022  21.355  0.00  0.00     0.069 A 
HETATM   14  C   UNL     1       6.845  11.936  20.484  0.00  0.00     0.083 A 
BRANCH   8  15
HETATM   15  C   UNL     1       2.444  13.341  23.277  0.00  0.00     0.062 C 
BRANCH  15  16
HETATM   16  C   UNL     1       1.465  14.273  22.560  0.00  0.00     0.002 C 
HETATM   17  C   UNL     1       0.860  13.614  21.330  0.00  0.00     0.005 C 
ENDBRANCH  15  16
ENDBRANCH   8  15
BRANCH  14  18
HETATM   18  O   UNL     1       8.006  11.371  20.029  0.00  0.00    -0.360 OA
HETATM   19  H   UNL     1       8.711  12.034  20.140  0.00  0.00     0.217 HD
ENDBRANCH  14  18
ENDBRANCH   1   5
BRANCH   3  20
HETATM   20  C   UNL     1       4.035   9.178  17.458  0.00  0.00     0.037 A 
HETATM   21  C   UNL     1       4.780   8.744  16.356  0.00  0.00     0.032 A 
HETATM   22  C   UNL     1       4.428   7.588  15.638  0.00  0.00     0.031 A 
HETATM   23  C   UNL     1       3.315   6.820  15.981  0.00  0.00     0.030 A 
HETATM   24  C   UNL     1       2.595   7.241  17.109  0.00  0.00     0.031 A 
HETATM   25  C   UNL     1       2.950   8.385  17.844  0.00  0.00     0.032 A 
BRANCH  23  26
HETATM   26  N   UNL     1       2.959   5.671  15.308  0.00  0.00    -0.377 N 
HETATM   27  C   UNL     1       3.340   5.409  13.912  0.00  0.00     0.149 C 
HETATM   28  C   UNL     1       3.620   3.901  13.766  0.00  0.00     0.187 C 
HETATM   29  O   UNL     1       2.497   3.098  14.177  0.00  0.00    -0.388 OA
HETATM   30  C   UNL     1       2.153   3.379  15.546  0.00  0.00     0.187 C 
HETATM   31  C   UNL     1       1.804   4.863  15.741  0.00  0.00     0.149 C 
ENDBRANCH  23  26
ENDBRANCH   3  20
TORSDOF 6
ENDMDL
MODEL 3
REMARK VINA RESULT:    -7.317      5.681      9.666
REMARK INTER + INTRA:         -10.602
REMARK INTER:                  -9.676
REMARK INTRA:                  -0.926
REMARK UNBOUND:                -0.932
REMARK  6 active torsions:
REMARK  status: ('A' for Active; 'I' for Inactive)
REMARK    1  A    between atoms: C_2  and  C_3 
REMARK    2  A    between atoms: C_3  and  C_4 
REMARK    3  A    between atoms: C_11  and  C_15 
REMARK    4  A    between atoms: C_12  and  O_14 
REMARK       I    between atoms: C_15  and  N_17 
REMARK    5  A    between atoms: N_17  and  C_19 
REMARK    6  A    between atoms: C_22  and  N_25 
ROOT
HETATM    1  C   UNL     1       6.264  10.877  19.348  0.00  0.00     0.260 C 
HETATM    2  O   UNL     1       7.269  11.396  18.848  0.00  0.00    -0.267 OA
HETATM    3  N   UNL     1       5.923  11.029  20.711  0.00  0.00    -0.318 N 
HETATM    4  C   UNL     1       4.839  10.313  21.387  0.00  0.00     0.159 C 
ENDROOT
BRANCH   1   5
HETATM    5  C   UNL     1       5.459  10.078  18.374  0.00  0.00     0.066 A 
HETATM    6  C   UNL     1       5.668   8.677  18.435  0.00  0.00     0.035 A 
HETATM    7  C   UNL     1       4.894   7.797  17.648  0.00  0.00     0.019 A 
HETATM    8  C   UNL     1       4.728   6.392  17.517  0.00  0.00     0.067 A 
HETATM    9  C   UNL     1       3.980   8.349  16.758  0.00  0.00     0.065 A 
HETATM   10  N   UNL     1       3.814   6.087  16.581  0.00  0.00    -0.178 NA
HETATM   11  N   UNL     1       3.403   7.279  16.127  0.00  0.00    -0.277 N 
HETATM   12  H   UNL     1       2.689   7.298  15.407  0.00  0.00     0.189 HD
HETATM   13  C   UNL     1       3.743   9.719  16.659  0.00  0.00     0.069 A 
HETATM   14  C   UNL     1       4.445  10.560  17.539  0.00  0.00     0.083 A 
BRANCH   8  15
HETATM   15  C   UNL     1       5.367   5.297  18.308  0.00  0.00     0.062 C 
BRANCH  15  16
HETATM   16  C   UNL     1       4.849   5.227  19.746  0.00  0.00     0.002 C 
HETATM   17  C   UNL     1       5.887   5.719  20.743  0.00  0.00     0.005 C 
ENDBRANCH  15  16
ENDBRANCH   8  15
BRANCH  14  18
HETATM   18  O   UNL     1       3.978  11.846  17.573  0.00  0.00    -0.360 OA
HETATM   19  H   UNL     1       4.727  12.417  17.826  0.00  0.00     0.217 HD
ENDBRANCH  14  18
ENDBRANCH   1   5
BRANCH   3  20
HETATM   20  C   UNL     1       6.689  11.935  21.539  0.00  0.00     0.037 A 
HETATM   21  C   UNL     1       6.350  13.288  21.646  0.00  0.00     0.032 A 
HETATM   22  C   UNL     1       7.100  14.174  22.438  0.00  0.00     0.031 A 
HETATM   23  C   UNL     1       8.224  13.753  23.151  0.00  0.00     0.030 A 
HETATM   24  C   UNL     1       8.534  12.388  23.067  0.00  0.00     0.031 A 
HETATM   25  C   UNL     1       7.780  11.491  22.292  0.00  0.00     0.032 A 
BRANCH  23  26
HETATM   26  N   UNL     1       8.964  14.596  23.951  0.00  0.00    -0.377 N 
HETATM   27  C   UNL     1       8.592  14.919  25.337  0.00  0.00     0.149 C 
HETATM   28  C   UNL     1       9.885  15.051  26.163  0.00  0.00     0.187 C 
HETATM   29  O   UNL     1      10.788  16.026  25.606  0.00  0.00    -0.388 OA
HETATM   30  C   UNL     1      11.131  15.678  24.253  0.00  0.00     0.187 C 
HETATM   31  C   UNL     1       9.880  15.591  23.364  0.00  0.00     0.149 C 
ENDBRANCH  23  26
ENDBRANCH   3  20
TORSDOF 6
ENDMDL
MODEL 4
REMARK VINA RESULT:    -7.192      2.355      3.260
REMARK INTER + INTRA:         -10.436
REMARK INTER:                  -9.696
REMARK INTRA:                  -0.740
REMARK UNBOUND:                -0.932
REMARK  6 active torsions:
REMARK  status: ('A' for Active; 'I' for Inactive)
REMARK    1  A    between atoms: C_2  and  C_3 
REMARK    2  A    between atoms: C_3  and  C_4 
REMARK    3  A    between atoms: C_11  and  C_15 
REMARK    4  A    between atoms: C_12  and  O_14 
REMARK       I    between atoms: C_15  and  N_17 
REMARK    5  A    between atoms: N_17  and  C_19 
REMARK    6  A    between atoms: C_22  and  N_25 
ROOT
HETATM    1  C   UNL     1       6.161  13.140  22.362  0.00  0.00     0.260 C 
HETATM    2  O   UNL     1       5.693  12.892  21.245  0.00  0.00    -0.267 OA
HETATM    3  N   UNL     1       5.352  13.415  23.487  0.00  0.00    -0.318 N 
HETATM    4  C   UNL     1       5.852  13.867  24.787  0.00  0.00     0.159 C 
ENDROOT
BRANCH   1   5
HETATM    5  C   UNL     1       7.656  13.121  22.398  0.00  0.00     0.066 A 
HETATM    6  C   UNL     1       8.275  14.367  22.127  0.00  0.00     0.035 A 
HETATM    7  C   UNL     1       9.675  14.515  22.235  0.00  0.00     0.019 A 
HETATM    8  C   UNL     1      10.617  15.578  22.163  0.00  0.00     0.067 A 
HETATM    9  C   UNL     1      10.431  13.389  22.537  0.00  0.00     0.065 A 
HETATM   10  N   UNL     1      11.872  15.140  22.357  0.00  0.00    -0.178 NA
HETATM   11  N   UNL     1      11.730  13.822  22.553  0.00  0.00    -0.277 N 
HETATM   12  H   UNL     1      12.562  13.272  22.735  0.00  0.00     0.189 HD
HETATM   13  C   UNL     1       9.869  12.142  22.807  0.00  0.00     0.069 A 
HETATM   14  C   UNL     1       8.466  12.055  22.807  0.00  0.00     0.083 A 
BRANCH   8  15
HETATM   15  C   UNL     1      10.365  17.040  21.978  0.00  0.00     0.062 C 
BRANCH  15  16
HETATM   16  C   UNL     1       9.346  17.330  20.875  0.00  0.00     0.002 C 
HETATM   17  C   UNL     1       9.323  18.805  20.503  0.00  0.00     0.005 C 
ENDBRANCH  15  16
ENDBRANCH   8  15
BRANCH  14  18
HETATM   18  O   UNL     1       7.980  10.888  23.333  0.00  0.00    -0.360 OA
HETATM   19  H   UNL     1       7.967  10.232  22.612  0.00  0.00     0.217 HD
ENDBRANCH  14  18
ENDBRANCH   1   5
BRANCH   3  20
HETATM   20  C   UNL     1       3.917  13.273  23.382  0.00  0.00     0.037 A 
HETATM   21  C   UNL     1       3.286  12.048  23.624  0.00  0.00     0.032 A 
HETATM   22  C   UNL     1       1.894  11.902  23.509  0.00  0.00     0.031 A 
HETATM   23  C   UNL     1       1.069  12.966  23.142  0.00  0.00     0.030 A 
HETATM   24  C   UNL     1       1.706  14.200  22.938  0.00  0.00     0.031 A 
HETATM   25  C   UNL     1       3.096  14.360  23.067  0.00  0.00     0.032 A 
BRANCH  23  26
HETATM   26  N   UNL     1      -0.301  12.856  23.042  0.00  0.00    -0.377 N 
HETATM   27  C   UNL     1      -1.064  13.353  21.887  0.00  0.00     0.149 C 
HETATM   28  C   UNL     1      -2.230  12.380  21.628  0.00  0.00     0.187 C 
HETATM   29  O   UNL     1      -3.063  12.209  22.791  0.00  0.00    -0.388 OA
HETATM   30  C   UNL     1      -2.285  11.722  23.899  0.00  0.00     0.187 C 
HETATM   31  C   UNL     1      -1.139  12.685  24.243  0.00  0.00     0.149 C 
ENDBRANCH  23  26
ENDBRANCH   3  20
TORSDOF 6
ENDMDL
MODEL 5
REMARK VINA RESULT:    -7.096      5.488      6.879
REMARK INTER + INTRA:         -10.310
REMARK INTER:                  -9.973
REMARK INTRA:                  -0.337
REMARK UNBOUND:                -0.932
REMARK  6 active torsions:
REMARK  status: ('A' for Active; 'I' for Inactive)
REMARK    1  A    between atoms: C_2  and  C_3 
REMARK    2  A    between atoms: C_3  and  C_4 
REMARK    3  A    between atoms: C_11  and  C_15 
REMARK    4  A    between atoms: C_12  and  O_14 
REMARK       I    between atoms: C_15  and  N_17 
REMARK    5  A    between atoms: N_17  and  C_19 
REMARK    6  A    between atoms: C_22  and  N_25 
ROOT
HETATM    1  C   UNL     1       7.473  11.630  20.232  0.00  0.00     0.260 C 
HETATM    2  O   UNL     1       7.663  11.756  19.017  0.00  0.00    -0.267 OA
HETATM    3  N   UNL     1       6.522  10.732  20.769  0.00  0.00    -0.318 N 
HETATM    4  C   UNL     1       6.148  10.657  22.182  0.00  0.00     0.159 C 
ENDROOT
BRANCH   1   5
HETATM    5  C   UNL     1       8.341  12.517  21.066  0.00  0.00     0.066 A 
HETATM    6  C   UNL     1       7.641  13.370  21.956  0.00  0.00     0.035 A 
HETATM    7  C   UNL     1       8.339  14.180  22.877  0.00  0.00     0.019 A 
HETATM    8  C   UNL     1       8.014  15.040  23.961  0.00  0.00     0.067 A 
HETATM    9  C   UNL     1       9.728  14.175  22.831  0.00  0.00     0.065 A 
HETATM   10  N   UNL     1       9.115  15.572  24.519  0.00  0.00    -0.178 NA
HETATM   11  N   UNL     1      10.123  15.054  23.804  0.00  0.00    -0.277 N 
HETATM   12  H   UNL     1      11.071  15.310  24.057  0.00  0.00     0.189 HD
HETATM   13  C   UNL     1      10.460  13.359  21.970  0.00  0.00     0.069 A 
HETATM   14  C   UNL     1       9.738  12.478  21.147  0.00  0.00     0.083 A 
BRANCH   8  15
HETATM   15  C   UNL     1       6.672  15.337  24.550  0.00  0.00     0.062 C 
BRANCH  15  16
HETATM   16  C   UNL     1       5.711  15.970  23.541  0.00  0.00     0.002 C 
HETATM   17  C   UNL     1       4.293  16.043  24.085  0.00  0.00     0.005 C 
ENDBRANCH  15  16
ENDBRANCH   8  15
BRANCH  14  18
HETATM   18  O   UNL     1      10.509  11.532  20.530  0.00  0.00    -0.360 OA
HETATM   19  H   UNL     1       9.902  10.909  20.089  0.00  0.00     0.217 HD
ENDBRANCH  14  18
ENDBRANCH   1   5
BRANCH   3  20
HETATM   20  C   UNL     1       5.831   9.818  19.886  0.00  0.00     0.037 A 
HETATM   21  C   UNL     1       5.958   8.432  20.028  0.00  0.00     0.032 A 
HETATM   22  C   UNL     1       5.300   7.540  19.165  0.00  0.00     0.031 A 
HETATM   23  C   UNL     1       4.493   7.989  18.119  0.00  0.00     0.030 A 
HETATM   24  C   UNL     1       4.341   9.379  18.007  0.00  0.00     0.031 A 
HETATM   25  C   UNL     1       4.981  10.278  18.877  0.00  0.00     0.032 A 
BRANCH  23  26
HETATM   26  N   UNL     1       3.819   7.137  17.271  0.00  0.00    -0.377 N 
HETATM   27  C   UNL     1       4.082   5.691  17.212  0.00  0.00     0.149 C 
HETATM   28  C   UNL     1       2.744   4.970  16.958  0.00  0.00     0.187 C 
HETATM   29  O   UNL     1       2.087   5.448  15.769  0.00  0.00    -0.388 OA
HETATM   30  C   UNL     1       1.845   6.863  15.862  0.00  0.00     0.187 C 
HETATM   31  C   UNL     1       3.155   7.642  16.056  0.00  0.00     0.149 C 
ENDBRANCH  23  26
ENDBRANCH   3  20
TORSDOF 6
ENDMDL
MODEL 6
REMARK VINA RESULT:    -6.999      4.315      5.268
REMARK INTER + INTRA:         -10.181
REMARK INTER:                  -9.398
REMARK INTRA:                  -0.783
REMARK UNBOUND:                -0.932
REMARK  6 active torsions:
REMARK  status: ('A' for Active; 'I' for Inactive)
REMARK    1  A    between atoms: C_2  and  C_3 
REMARK    2  A    between atoms: C_3  and  C_4 
REMARK    3  A    between atoms: C_11  and  C_15 
REMARK    4  A    between atoms: C_12  and  O_14 
REMARK       I    between atoms: C_15  and  N_17 
REMARK    5  A    between atoms: N_17  and  C_19 
REMARK    6  A    between atoms: C_22  and  N_25 
ROOT
HETATM    1  C   UNL     1       7.333  12.827  22.763  0.00  0.00     0.260 C 
HETATM    2  O   UNL     1       7.945  13.123  21.731  0.00  0.00    -0.267 OA
HETATM    3  N   UNL     1       6.240  11.930  22.774  0.00  0.00    -0.318 N 
HETATM    4  C   UNL     1       5.386  11.667  23.934  0.00  0.00     0.159 C 
ENDROOT
BRANCH   1   5
HETATM    5  C   UNL     1       7.860  13.509  23.985  0.00  0.00     0.066 A 
HETATM    6  C   UNL     1       9.192  13.169  24.330  0.00  0.00     0.035 A 
HETATM    7  C   UNL     1       9.849  13.821  25.396  0.00  0.00     0.019 A 
HETATM    8  C   UNL     1      11.157  13.845  25.952  0.00  0.00     0.067 A 
HETATM    9  C   UNL     1       9.128  14.745  26.142  0.00  0.00     0.065 A 
HETATM   10  N   UNL     1      11.235  14.685  26.998  0.00  0.00    -0.178 NA
HETATM   11  N   UNL     1       9.998  15.189  27.102  0.00  0.00    -0.277 N 
HETATM   12  H   UNL     1       9.818  15.870  27.831  0.00  0.00     0.189 HD
HETATM   13  C   UNL     1       7.815  15.109  25.844  0.00  0.00     0.069 A 
HETATM   14  C   UNL     1       7.229  14.529  24.707  0.00  0.00     0.083 A 
BRANCH   8  15
HETATM   15  C   UNL     1      12.387  13.137  25.481  0.00  0.00     0.062 C 
BRANCH  15  16
HETATM   16  C   UNL     1      13.503  14.101  25.072  0.00  0.00     0.002 C 
HETATM   17  C   UNL     1      13.093  14.971  23.894  0.00  0.00     0.005 C 
ENDBRANCH  15  16
ENDBRANCH   8  15
BRANCH  14  18
HETATM   18  O   UNL     1       6.055  15.118  24.323  0.00  0.00    -0.360 OA
HETATM   19  H   UNL     1       5.451  15.081  25.087  0.00  0.00     0.217 HD
ENDBRANCH  14  18
ENDBRANCH   1   5
BRANCH   3  20
HETATM   20  C   UNL     1       5.895  11.216  21.565  0.00  0.00     0.037 A 
HETATM   21  C   UNL     1       5.230  11.848  20.509  0.00  0.00     0.032 A 
HETATM   22  C   UNL     1       4.881  11.155  19.338  0.00  0.00     0.031 A 
HETATM   23  C   UNL     1       5.170   9.800  19.171  0.00  0.00     0.030 A 
HETATM   24  C   UNL     1       5.869   9.183  20.220  0.00  0.00     0.031 A 
HETATM   25  C   UNL     1       6.238   9.873  21.386  0.00  0.00     0.032 A 
BRANCH  23  26
HETATM   26  N   UNL     1       4.857   9.101  18.026  0.00  0.00    -0.377 N 
HETATM   27  C   UNL     1       5.794   8.177  17.369  0.00  0.00     0.149 C 
HETATM   28  C   UNL     1       4.985   6.996  16.800  0.00  0.00     0.187 C 
HETATM   29  O   UNL     1       3.943   7.433  15.906  0.00  0.00    -0.388 OA
HETATM   30  C   UNL     1       3.046   8.333  16.581  0.00  0.00     0.187 C 
HETATM   31  C   UNL     1       3.791   9.564  17.120  0.00  0.00     0.149 C 
ENDBRANCH  23  26
ENDBRANCH   3  20
TORSDOF 6
ENDMDL
MODEL 7
REMARK VINA RESULT:    -6.979      6.474      8.418
REMARK INTER + INTRA:         -10.155
REMARK INTER:                  -9.372
REMARK INTRA:                  -0.784
REMARK UNBOUND:                -0.932
REMARK  6 active torsions:
REMARK  status: ('A' for Active; 'I' for Inactive)
REMARK    1  A    between atoms: C_2  and  C_3 
REMARK    2  A    between atoms: C_3  and  C_4 
REMARK    3  A    between atoms: C_11  and  C_15 
REMARK    4  A    between atoms: C_12  and  O_14 
REMARK       I    between atoms: C_15  and  N_17 
REMARK    5  A    between atoms: N_17  and  C_19 
REMARK    6  A    between atoms: C_22  and  N_25 
ROOT
HETATM    1  C   UNL     1       5.427  11.044  19.902  0.00  0.00     0.260 C 
HETATM    2  O   UNL     1       4.690  11.453  18.997  0.00  0.00    -0.267 OA
HETATM    3  N   UNL     1       5.686   9.672  20.118  0.00  0.00    -0.318 N 
HETATM    4  C   UNL     1       6.419   9.129  21.263  0.00  0.00     0.159 C 
ENDROOT
BRANCH   1   5
HETATM    5  C   UNL     1       6.007  12.140  20.738  0.00  0.00     0.066 A 
HETATM    6  C   UNL     1       5.092  12.762  21.625  0.00  0.00     0.035 A 
HETATM    7  C   UNL     1       5.531  13.736  22.547  0.00  0.00     0.019 A 
HETATM    8  C   UNL     1       4.972  14.470  23.629  0.00  0.00     0.067 A 
HETATM    9  C   UNL     1       6.865  14.122  22.506  0.00  0.00     0.065 A 
HETATM   10  N   UNL     1       5.877  15.290  24.190  0.00  0.00    -0.178 NA
HETATM   11  N   UNL     1       6.993  15.077  23.479  0.00  0.00    -0.277 N 
HETATM   12  H   UNL     1       7.830  15.590  23.735  0.00  0.00     0.189 HD
HETATM   13  C   UNL     1       7.800  13.545  21.648  0.00  0.00     0.069 A 
HETATM   14  C   UNL     1       7.358  12.496  20.825  0.00  0.00     0.083 A 
BRANCH   8  15
HETATM   15  C   UNL     1       3.599  14.377  24.213  0.00  0.00     0.062 C 
BRANCH  15  16
HETATM   16  C   UNL     1       2.534  15.023  23.324  0.00  0.00     0.002 C 
HETATM   17  C   UNL     1       1.543  13.996  22.797  0.00  0.00     0.005 C 
ENDBRANCH  15  16
ENDBRANCH   8  15
BRANCH  14  18
HETATM   18  O   UNL     1       8.367  11.805  20.211  0.00  0.00    -0.360 OA
HETATM   19  H   UNL     1       9.174  11.944  20.740  0.00  0.00     0.217 HD
ENDBRANCH  14  18
ENDBRANCH   1   5
BRANCH   3  20
HETATM   20  C   UNL     1       5.189   8.698  19.171  0.00  0.00     0.037 A 
HETATM   21  C   UNL     1       5.678   8.640  17.861  0.00  0.00     0.032 A 
HETATM   22  C   UNL     1       5.189   7.705  16.934  0.00  0.00     0.031 A 
HETATM   23  C   UNL     1       4.187   6.792  17.267  0.00  0.00     0.030 A 
HETATM   24  C   UNL     1       3.729   6.833  18.593  0.00  0.00     0.031 A 
HETATM   25  C   UNL     1       4.225   7.753  19.532  0.00  0.00     0.032 A 
BRANCH  23  26
HETATM   26  N   UNL     1       3.704   5.851  16.384  0.00  0.00    -0.377 N 
HETATM   27  C   UNL     1       3.021   6.203  15.130  0.00  0.00     0.149 C 
HETATM   28  C   UNL     1       3.414   5.165  14.062  0.00  0.00     0.187 C 
HETATM   29  O   UNL     1       3.116   3.819  14.477  0.00  0.00    -0.388 OA
HETATM   30  C   UNL     1       3.800   3.509  15.705  0.00  0.00     0.187 C 
HETATM   31  C   UNL     1       3.400   4.478  16.827  0.00  0.00     0.149 C 
ENDBRANCH  23  26
ENDBRANCH   3  20
TORSDOF 6
ENDMDL
MODEL 8
REMARK VINA RESULT:    -6.923      5.079      6.374
REMARK INTER + INTRA:         -10.080
REMARK INTER:                  -9.726
REMARK INTRA:                  -0.354
REMARK UNBOUND:                -0.932
REMARK  6 active torsions:
REMARK  status: ('A' for Active; 'I' for Inactive)
REMARK    1  A    between atoms: C_2  and  C_3 
REMARK    2  A    between atoms: C_3  and  C_4 
REMARK    3  A    between atoms: C_11  and  C_15 
REMARK    4  A    between atoms: C_12  and  O_14 
REMARK       I    between atoms: C_15  and  N_17 
REMARK    5  A    between atoms: N_17  and  C_19 
REMARK    6  A    between atoms: C_22  and  N_25 
ROOT
HETATM    1  C   UNL     1       6.992  10.619  22.398  0.00  0.00     0.260 C 
HETATM    2  O   UNL     1       6.373   9.696  22.940  0.00  0.00    -0.267 OA
HETATM    3  N   UNL     1       6.976  10.835  21.002  0.00  0.00    -0.318 N 
HETATM    4  C   UNL     1       7.810  11.810  20.296  0.00  0.00     0.159 C 
ENDROOT
BRANCH   1   5
HETATM    5  C   UNL     1       7.754  11.471  23.362  0.00  0.00     0.066 A 
HETATM    6  C   UNL     1       7.134  12.702  23.690  0.00  0.00     0.035 A 
HETATM    7  C   UNL     1       7.691  13.554  24.669  0.00  0.00     0.019 A 
HETATM    8  C   UNL     1       7.325  14.757  25.330  0.00  0.00     0.067 A 
HETATM    9  C   UNL     1       8.902  13.185  25.242  0.00  0.00     0.065 A 
HETATM   10  N   UNL     1       8.261  15.139  26.216  0.00  0.00    -0.178 NA
HETATM   11  N   UNL     1       9.203  14.191  26.121  0.00  0.00    -0.277 N 
HETATM   12  H   UNL     1      10.019  14.265  26.718  0.00  0.00     0.189 HD
HETATM   13  C   UNL     1       9.552  11.988  24.949  0.00  0.00     0.069 A 
HETATM   14  C   UNL     1       8.914  11.109  24.058  0.00  0.00     0.083 A 
BRANCH   8  15
HETATM   15  C   UNL     1       6.063  15.548  25.204  0.00  0.00     0.062 C 
BRANCH  15  16
HETATM   16  C   UNL     1       5.741  15.921  23.755  0.00  0.00     0.002 C 
HETATM   17  C   UNL     1       4.243  15.912  23.491  0.00  0.00     0.005 C 
ENDBRANCH  15  16
ENDBRANCH   8  15
BRANCH  14  18
HETATM   18  O   UNL     1       9.464   9.856  24.019  0.00  0.00    -0.360 OA
HETATM   19  H   UNL     1       8.811   9.244  24.405  0.00  0.00     0.217 HD
ENDBRANCH  14  18
ENDBRANCH   1   5
BRANCH   3  20
HETATM   20  C   UNL     1       6.098  10.042  20.170  0.00  0.00     0.037 A 
HETATM   21  C   UNL     1       5.426  10.602  19.078  0.00  0.00     0.032 A 
HETATM   22  C   UNL     1       4.562   9.839  18.275  0.00  0.00     0.031 A 
HETATM   23  C   UNL     1       4.323   8.487  18.529  0.00  0.00     0.030 A 
HETATM   24  C   UNL     1       5.029   7.926  19.604  0.00  0.00     0.031 A 
HETATM   25  C   UNL     1       5.909   8.677  20.401  0.00  0.00     0.032 A 
BRANCH  23  26
HETATM   26  N   UNL     1       3.496   7.710  17.746  0.00  0.00    -0.377 N 
HETATM   27  C   UNL     1       3.207   8.016  16.337  0.00  0.00     0.149 C 
HETATM   28  C   UNL     1       3.090   6.684  15.572  0.00  0.00     0.187 C 
HETATM   29  O   UNL     1       2.100   5.812  16.149  0.00  0.00    -0.388 OA
HETATM   30  C   UNL     1       2.414   5.534  17.525  0.00  0.00     0.187 C 
HETATM   31  C   UNL     1       2.485   6.826  18.353  0.00  0.00     0.149 C 
ENDBRANCH  23  26
ENDBRANCH   3  20
TORSDOF 6
ENDMDL
MODEL 9
REMARK VINA RESULT:    -6.912      1.693      3.237
REMARK INTER + INTRA:         -10.067
REMARK INTER:                  -9.135
REMARK INTRA:                  -0.932
REMARK UNBOUND:                -0.932
REMARK  6 active torsions:
REMARK  status: ('A' for Active; 'I' for Inactive)
REMARK    1  A    between atoms: C_2  and  C_3 
REMARK    2  A    between atoms: C_3  and  C_4 
REMARK    3  A    between atoms: C_11  and  C_15 
REMARK    4  A    between atoms: C_12  and  O_14 
REMARK       I    between atoms: C_15  and  N_17 
REMARK    5  A    between atoms: N_17  and  C_19 
REMARK    6  A    between atoms: C_22  and  N_25 
ROOT
HETATM    1  C   UNL     1       7.159  13.724  22.532  0.00  0.00     0.260 C 
HETATM    2  O   UNL     1       6.699  14.740  21.998  0.00  0.00    -0.267 OA
HETATM    3  N   UNL     1       6.341  12.731  23.119  0.00  0.00    -0.318 N 
HETATM    4  C   UNL     1       6.835  11.594  23.898  0.00  0.00     0.159 C 
ENDROOT
BRANCH   1   5
HETATM    5  C   UNL     1       8.652  13.656  22.497  0.00  0.00     0.066 A 
HETATM    6  C   UNL     1       9.309  14.488  23.438  0.00  0.00     0.035 A 
HETATM    7  C   UNL     1      10.712  14.442  23.586  0.00  0.00     0.019 A 
HETATM    8  C   UNL     1      11.685  15.004  24.456  0.00  0.00     0.067 A 
HETATM    9  C   UNL     1      11.433  13.617  22.731  0.00  0.00     0.065 A 
HETATM   10  N   UNL     1      12.926  14.600  24.138  0.00  0.00    -0.178 NA
HETATM   11  N   UNL     1      12.744  13.790  23.085  0.00  0.00    -0.277 N 
HETATM   12  H   UNL     1      13.559  13.349  22.674  0.00  0.00     0.189 HD
HETATM   13  C   UNL     1      10.832  12.784  21.787  0.00  0.00     0.069 A 
HETATM   14  C   UNL     1       9.428  12.767  21.745  0.00  0.00     0.083 A 
BRANCH   8  15
HETATM   15  C   UNL     1      11.478  15.881  25.649  0.00  0.00     0.062 C 
BRANCH  15  16
HETATM   16  C   UNL     1      10.737  15.169  26.783  0.00  0.00     0.002 C 
HETATM   17  C   UNL     1      11.648  14.212  27.537  0.00  0.00     0.005 C 
ENDBRANCH  15  16
ENDBRANCH   8  15
BRANCH  14  18
HETATM   18  O   UNL     1       8.905  11.749  20.994  0.00  0.00    -0.360 OA
HETATM   19  H   UNL     1       8.442  12.157  20.240  0.00  0.00     0.217 HD
ENDBRANCH  14  18
ENDBRANCH   1   5
BRANCH   3  20
HETATM   20  C   UNL     1       4.904  12.820  22.979  0.00  0.00     0.037 A 
HETATM   21  C   UNL     1       4.259  12.411  21.807  0.00  0.00     0.032 A 
HETATM   22  C   UNL     1       2.866  12.508  21.662  0.00  0.00     0.031 A 
HETATM   23  C   UNL     1       2.054  13.024  22.674  0.00  0.00     0.030 A 
HETATM   24  C   UNL     1       2.705  13.397  23.859  0.00  0.00     0.031 A 
HETATM   25  C   UNL     1       4.097  13.286  24.020  0.00  0.00     0.032 A 
BRANCH  23  26
HETATM   26  N   UNL     1       0.683  13.111  22.566  0.00  0.00    -0.377 N 
HETATM   27  C   UNL     1       0.002  13.562  21.343  0.00  0.00     0.149 C 
HETATM   28  C   UNL     1      -1.300  12.753  21.192  0.00  0.00     0.187 C 
HETATM   29  O   UNL     1      -2.146  12.864  22.353  0.00  0.00    -0.388 OA
HETATM   30  C   UNL     1      -1.449  12.414  23.528  0.00  0.00     0.187 C 
HETATM   31  C   UNL     1      -0.168  13.229  23.764  0.00  0.00     0.149 C 
ENDBRANCH  23  26
ENDBRANCH   3  20
TORSDOF 6
ENDMDL
