MODEL 1
REMARK VINA RESULT:   -11.632      0.000      0.000
REMARK INTER + INTRA:         -16.010
REMARK INTER:                 -14.911
REMARK INTRA:                  -1.100
REMARK UNBOUND:                -1.318
REMARK  5 active torsions:
REMARK  status: ('A' for Active; 'I' for Inactive)
REMARK    1  A    between atoms: C_2  and  N_3 
REMARK       I    between atoms: N_3  and  C_4 
REMARK    2  A    between atoms: C_4  and  C_6 
REMARK    3  A    between atoms: C_6  and  C_10 
REMARK    4  A    between atoms: C_17  and  N_18 
REMARK    5  A    between atoms: C_20  and  C_21 
REMARK       I    between atoms: C_21  and  N_23 
ROOT
HETATM    1  C   UNL     1       1.166   8.514  27.631  0.00  0.00    -0.039 A 
HETATM    2  C   UNL     1       1.514   9.182  26.442  0.00  0.00     0.024 A 
HETATM    3  C   UNL     1       0.590   9.971  25.699  0.00  0.00     0.028 A 
HETATM    4  C   UNL     1      -0.726  10.086  26.142  0.00  0.00     0.073 A 
HETATM    5  C   UNL     1      -1.090   9.411  27.295  0.00  0.00     0.033 A 
HETATM    6  C   UNL     1      -0.176   8.639  28.023  0.00  0.00     0.011 A 
HETATM    7  N   UNL     1      -1.657  10.801  25.500  0.00  0.00    -0.218 NA
HETATM    8  C   UNL     1      -1.297  11.454  24.399  0.00  0.00     0.200 A 
HETATM    9  N   UNL     1      -0.091  11.402  23.857  0.00  0.00    -0.212 NA
HETATM   10  C   UNL     1       0.836  10.661  24.511  0.00  0.00     0.140 A 
ENDROOT
BRANCH  10  11
HETATM   11  C   UNL     1       2.181  10.640  23.836  0.00  0.00     0.274 C 
HETATM   12  O   UNL     1       2.507   9.687  23.131  0.00  0.00    -0.266 OA
HETATM   13  N   UNL     1       3.022  11.720  24.054  0.00  0.00    -0.338 N 
HETATM   14  C   UNL     1       4.419  11.709  23.620  0.00  0.00     0.165 C 
HETATM   15  C   UNL     1       2.579  13.053  24.461  0.00  0.00     0.165 C 
HETATM   16  C   UNL     1       4.897  13.087  23.965  0.00  0.00    -0.032 A 
HETATM   17  C   UNL     1       6.171  13.622  23.878  0.00  0.00     0.009 A 
HETATM   18  C   UNL     1       3.829  13.864  24.426  0.00  0.00    -0.032 A 
HETATM   19  C   UNL     1       6.354  14.957  24.257  0.00  0.00     0.001 A 
HETATM   20  C   UNL     1       5.275  15.734  24.708  0.00  0.00     0.001 A 
HETATM   21  C   UNL     1       3.997  15.187  24.795  0.00  0.00     0.009 A 
ENDBRANCH  10  11
BRANCH   8  22
HETATM   22  N   UNL     1      -2.259  12.180  23.738  0.00  0.00    -0.271 NA
HETATM   23  H   UNL     1      -1.892  12.574  22.883  0.00  0.00     0.127 HD
HETATM   24  H   UNL     1      -2.747  12.796  24.372  0.00  0.00     0.127 HD
ENDBRANCH   8  22
BRANCH   1  25
HETATM   25  C   UNL     1       2.235   7.648  28.476  0.00  0.00     0.068 C 
HETATM   26  C   UNL     1       2.573   8.170  29.928  0.00  0.00     0.024 C 
HETATM   27  C   UNL     1       3.788   8.899  29.340  0.00  0.00     0.003 C 
HETATM   28  C   UNL     1       3.764   7.893  28.182  0.00  0.00     0.024 C 
BRANCH  25  29
HETATM   29  C   UNL     1       1.765   6.130  28.410  0.00  0.00     0.231 C 
HETATM   30  N   UNL     1       1.774   5.601  27.130  0.00  0.00    -0.360 N 
HETATM   31  H   UNL     1       1.967   6.213  26.349  0.00  0.00     0.162 HD
HETATM   32  O   UNL     1       1.423   5.456  29.384  0.00  0.00    -0.272 OA
BRANCH  30  33
HETATM   33  C   UNL     1       1.360   4.242  26.851  0.00  0.00     0.118 C 
HETATM   34  C   UNL     1      -0.091   4.179  26.412  0.00  0.00     0.026 C 
ENDBRANCH  30  33
ENDBRANCH  25  29
ENDBRANCH   1  25
TORSDOF 5
ENDMDL
MODEL 2
REMARK VINA RESULT:   -11.451      1.393      1.868
REMARK INTER + INTRA:         -15.781
REMARK INTER:                 -15.275
REMARK INTRA:                  -0.506
REMARK UNBOUND:                -1.318
REMARK  5 active torsions:
REMARK  status: ('A' for Active; 'I' for Inactive)
REMARK    1  A    between atoms: C_2  and  N_3 
REMARK       I    between atoms: N_3  and  C_4 
REMARK    2  A    between atoms: C_4  and  C_6 
REMARK    3  A    between atoms: C_6  and  C_10 
REMARK    4  A    between atoms: C_17  and  N_18 
REMARK    5  A    between atoms: C_20  and  C_21 
REMARK       I    between atoms: C_21  and  N_23 
ROOT
HETATM    1  C   UNL     1       1.000   8.720  27.830  0.00  0.00    -0.039 A 
HETATM    2  C   UNL     1       1.372   9.324  26.614  0.00  0.00     0.024 A 
HETATM    3  C   UNL     1       0.468  10.082  25.817  0.00  0.00     0.028 A 
HETATM    4  C   UNL     1      -0.854  10.230  26.232  0.00  0.00     0.073 A 
HETATM    5  C   UNL     1      -1.242   9.619  27.412  0.00  0.00     0.033 A 
HETATM    6  C   UNL     1      -0.347   8.877  28.193  0.00  0.00     0.011 A 
HETATM    7  N   UNL     1      -1.768  10.920  25.539  0.00  0.00    -0.218 NA
HETATM    8  C   UNL     1      -1.384  11.512  24.412  0.00  0.00     0.200 A 
HETATM    9  N   UNL     1      -0.171  11.423  23.893  0.00  0.00    -0.212 NA
HETATM   10  C   UNL     1       0.739  10.708  24.600  0.00  0.00     0.140 A 
ENDROOT
BRANCH  10  11
HETATM   11  C   UNL     1       2.095  10.641  23.948  0.00  0.00     0.274 C 
HETATM   12  O   UNL     1       2.417   9.658  23.285  0.00  0.00    -0.266 OA
HETATM   13  N   UNL     1       2.949  11.715  24.140  0.00  0.00    -0.338 N 
HETATM   14  C   UNL     1       4.352  11.667  23.730  0.00  0.00     0.165 C 
HETATM   15  C   UNL     1       2.520  13.069  24.490  0.00  0.00     0.165 C 
HETATM   16  C   UNL     1       4.847  13.049  24.031  0.00  0.00    -0.032 A 
HETATM   17  C   UNL     1       6.130  13.561  23.946  0.00  0.00     0.009 A 
HETATM   18  C   UNL     1       3.784  13.859  24.446  0.00  0.00    -0.032 A 
HETATM   19  C   UNL     1       6.328  14.906  24.278  0.00  0.00     0.001 A 
HETATM   20  C   UNL     1       5.255  15.717  24.682  0.00  0.00     0.001 A 
HETATM   21  C   UNL     1       3.967  15.192  24.768  0.00  0.00     0.009 A 
ENDBRANCH  10  11
BRANCH   8  22
HETATM   22  N   UNL     1      -2.329  12.212  23.700  0.00  0.00    -0.271 NA
HETATM   23  H   UNL     1      -2.949  12.715  24.320  0.00  0.00     0.127 HD
HETATM   24  H   UNL     1      -2.743  11.634  22.983  0.00  0.00     0.127 HD
ENDBRANCH   8  22
BRANCH   1  25
HETATM   25  C   UNL     1       2.047   7.889  28.735  0.00  0.00     0.068 C 
HETATM   26  C   UNL     1       3.238   8.712  29.368  0.00  0.00     0.024 C 
HETATM   27  C   UNL     1       4.106   8.298  28.172  0.00  0.00     0.003 C 
HETATM   28  C   UNL     1       3.181   7.089  27.986  0.00  0.00     0.024 C 
BRANCH  25  29
HETATM   29  C   UNL     1       1.197   7.044  29.779  0.00  0.00     0.231 C 
HETATM   30  N   UNL     1       1.123   7.624  31.036  0.00  0.00    -0.360 N 
HETATM   31  H   UNL     1       1.673   8.451  31.226  0.00  0.00     0.162 HD
HETATM   32  O   UNL     1       0.639   5.974  29.530  0.00  0.00    -0.272 OA
BRANCH  30  33
HETATM   33  C   UNL     1       0.415   7.004  32.135  0.00  0.00     0.118 C 
HETATM   34  C   UNL     1       1.158   5.792  32.665  0.00  0.00     0.026 C 
ENDBRANCH  30  33
ENDBRANCH  25  29
ENDBRANCH   1  25
TORSDOF 5
ENDMDL
MODEL 3
REMARK VINA RESULT:   -10.522      1.342      2.144
REMARK INTER + INTRA:         -14.609
REMARK INTER:                 -13.799
REMARK INTRA:                  -0.810
REMARK UNBOUND:                -1.318
REMARK  5 active torsions:
REMARK  status: ('A' for Active; 'I' for Inactive)
REMARK    1  A    between atoms: C_2  and  N_3 
REMARK       I    between atoms: N_3  and  C_4 
REMARK    2  A    between atoms: C_4  and  C_6 
REMARK    3  A    between atoms: C_6  and  C_10 
REMARK    4  A    between atoms: C_17  and  N_18 
REMARK    5  A    between atoms: C_20  and  C_21 
REMARK       I    between atoms: C_21  and  N_23 
ROOT
HETATM    1  C   UNL     1       1.340   7.722  27.009  0.00  0.00    -0.039 A 
HETATM    2  C   UNL     1       1.731   8.576  25.960  0.00  0.00     0.024 A 
HETATM    3  C   UNL     1       0.827   9.454  25.298  0.00  0.00     0.028 A 
HETATM    4  C   UNL     1      -0.514   9.472  25.676  0.00  0.00     0.073 A 
HETATM    5  C   UNL     1      -0.920   8.617  26.686  0.00  0.00     0.033 A 
HETATM    6  C   UNL     1      -0.025   7.758  27.337  0.00  0.00     0.011 A 
HETATM    7  N   UNL     1      -1.430  10.261  25.101  0.00  0.00    -0.218 NA
HETATM    8  C   UNL     1      -1.029  11.086  24.138  0.00  0.00     0.200 A 
HETATM    9  N   UNL     1       0.205  11.144  23.665  0.00  0.00    -0.212 NA
HETATM   10  C   UNL     1       1.117  10.327  24.248  0.00  0.00     0.140 A 
ENDROOT
BRANCH  10  11
HETATM   11  C   UNL     1       2.496  10.439  23.656  0.00  0.00     0.274 C 
HETATM   12  O   UNL     1       2.949   9.533  22.961  0.00  0.00    -0.266 OA
HETATM   13  N   UNL     1       3.221  11.586  23.940  0.00  0.00    -0.338 N 
HETATM   14  C   UNL     1       4.636  11.709  23.593  0.00  0.00     0.165 C 
HETATM   15  C   UNL     1       2.635  12.866  24.337  0.00  0.00     0.165 C 
HETATM   16  C   UNL     1       4.967  13.117  23.984  0.00  0.00    -0.032 A 
HETATM   17  C   UNL     1       6.189  13.767  23.983  0.00  0.00     0.009 A 
HETATM   18  C   UNL     1       3.807  13.787  24.389  0.00  0.00    -0.032 A 
HETATM   19  C   UNL     1       6.228  15.105  24.390  0.00  0.00     0.001 A 
HETATM   20  C   UNL     1       5.058  15.774  24.784  0.00  0.00     0.001 A 
HETATM   21  C   UNL     1       3.831  15.112  24.785  0.00  0.00     0.009 A 
ENDBRANCH  10  11
BRANCH   8  22
HETATM   22  N   UNL     1      -1.975  11.887  23.544  0.00  0.00    -0.271 NA
HETATM   23  H   UNL     1      -2.872  11.425  23.513  0.00  0.00     0.127 HD
HETATM   24  H   UNL     1      -1.622  12.293  22.690  0.00  0.00     0.127 HD
ENDBRANCH   8  22
BRANCH   1  25
HETATM   25  C   UNL     1       2.385   6.755  27.768  0.00  0.00     0.068 C 
HETATM   26  C   UNL     1       3.797   6.572  27.085  0.00  0.00     0.024 C 
HETATM   27  C   UNL     1       3.264   5.296  26.419  0.00  0.00     0.003 C 
HETATM   28  C   UNL     1       2.231   5.202  27.548  0.00  0.00     0.024 C 
BRANCH  25  29
HETATM   29  C   UNL     1       2.439   7.223  29.286  0.00  0.00     0.231 C 
HETATM   30  N   UNL     1       1.935   6.288  30.176  0.00  0.00    -0.360 N 
HETATM   31  H   UNL     1       1.492   5.456  29.810  0.00  0.00     0.162 HD
HETATM   32  O   UNL     1       2.883   8.306  29.674  0.00  0.00    -0.272 OA
BRANCH  30  33
HETATM   33  C   UNL     1       1.873   6.528  31.601  0.00  0.00     0.118 C 
HETATM   34  C   UNL     1       0.462   6.859  32.051  0.00  0.00     0.026 C 
ENDBRANCH  30  33
ENDBRANCH  25  29
ENDBRANCH   1  25
TORSDOF 5
ENDMDL
MODEL 4
REMARK VINA RESULT:    -9.470      2.345      4.410
REMARK INTER + INTRA:         -13.280
REMARK INTER:                 -12.935
REMARK INTRA:                  -0.345
REMARK UNBOUND:                -1.318
REMARK  5 active torsions:
REMARK  status: ('A' for Active; 'I' for Inactive)
REMARK    1  A    between atoms: C_2  and  N_3 
REMARK       I    between atoms: N_3  and  C_4 
REMARK    2  A    between atoms: C_4  and  C_6 
REMARK    3  A    between atoms: C_6  and  C_10 
REMARK    4  A    between atoms: C_17  and  N_18 
REMARK    5  A    between atoms: C_20  and  C_21 
REMARK       I    between atoms: C_21  and  N_23 
ROOT
HETATM    1  C   UNL     1       2.579   6.190  25.253  0.00  0.00    -0.039 A 
HETATM    2  C   UNL     1       2.559   7.547  24.880  0.00  0.00     0.024 A 
HETATM    3  C   UNL     1       3.205   8.038  23.710  0.00  0.00     0.028 A 
HETATM    4  C   UNL     1       3.909   7.156  22.893  0.00  0.00     0.073 A 
HETATM    5  C   UNL     1       3.962   5.823  23.262  0.00  0.00     0.033 A 
HETATM    6  C   UNL     1       3.322   5.345  24.412  0.00  0.00     0.011 A 
HETATM    7  N   UNL     1       4.549   7.537  21.781  0.00  0.00    -0.218 NA
HETATM    8  C   UNL     1       4.485   8.818  21.429  0.00  0.00     0.200 A 
HETATM    9  N   UNL     1       3.878   9.759  22.132  0.00  0.00    -0.212 NA
HETATM   10  C   UNL     1       3.248   9.360  23.263  0.00  0.00     0.140 A 
ENDROOT
BRANCH  10  11
HETATM   11  C   UNL     1       2.587  10.483  24.017  0.00  0.00     0.274 C 
HETATM   12  O   UNL     1       1.493  10.313  24.550  0.00  0.00    -0.266 OA
HETATM   13  N   UNL     1       3.254  11.696  24.067  0.00  0.00    -0.338 N 
HETATM   14  C   UNL     1       2.617  12.905  24.591  0.00  0.00     0.165 C 
HETATM   15  C   UNL     1       4.696  11.864  23.889  0.00  0.00     0.165 C 
HETATM   16  C   UNL     1       3.717  13.921  24.548  0.00  0.00    -0.032 A 
HETATM   17  C   UNL     1       3.673  15.276  24.826  0.00  0.00     0.009 A 
HETATM   18  C   UNL     1       4.918  13.312  24.167  0.00  0.00    -0.032 A 
HETATM   19  C   UNL     1       4.859  16.012  24.720  0.00  0.00     0.001 A 
HETATM   20  C   UNL     1       6.063  15.392  24.348  0.00  0.00     0.001 A 
HETATM   21  C   UNL     1       6.098  14.027  24.068  0.00  0.00     0.009 A 
ENDBRANCH  10  11
BRANCH   8  22
HETATM   22  N   UNL     1       5.152   9.205  20.290  0.00  0.00    -0.271 NA
HETATM   23  H   UNL     1       4.732  10.032  19.889  0.00  0.00     0.127 HD
HETATM   24  H   UNL     1       5.318   8.416  19.682  0.00  0.00     0.127 HD
ENDBRANCH   8  22
BRANCH   1  25
HETATM   25  C   UNL     1       1.816   5.646  26.567  0.00  0.00     0.068 C 
HETATM   26  C   UNL     1       1.394   4.124  26.557  0.00  0.00     0.024 C 
HETATM   27  C   UNL     1       0.008   4.553  26.059  0.00  0.00     0.003 C 
HETATM   28  C   UNL     1       0.269   5.931  26.680  0.00  0.00     0.024 C 
BRANCH  25  29
HETATM   29  C   UNL     1       2.681   6.086  27.827  0.00  0.00     0.231 C 
HETATM   30  N   UNL     1       2.169   7.186  28.496  0.00  0.00    -0.360 N 
HETATM   31  H   UNL     1       1.380   7.677  28.098  0.00  0.00     0.162 HD
HETATM   32  O   UNL     1       3.710   5.523  28.205  0.00  0.00    -0.272 OA
BRANCH  30  33
HETATM   33  C   UNL     1       2.819   7.758  29.656  0.00  0.00     0.118 C 
HETATM   34  C   UNL     1       3.714   8.923  29.276  0.00  0.00     0.026 C 
ENDBRANCH  30  33
ENDBRANCH  25  29
ENDBRANCH   1  25
TORSDOF 5
ENDMDL
MODEL 5
REMARK VINA RESULT:    -9.276      3.150      6.934
REMARK INTER + INTRA:         -13.035
REMARK INTER:                 -12.841
REMARK INTRA:                  -0.194
REMARK UNBOUND:                -1.318
REMARK  5 active torsions:
REMARK  status: ('A' for Active; 'I' for Inactive)
REMARK    1  A    between atoms: C_2  and  N_3 
REMARK       I    between atoms: N_3  and  C_4 
REMARK    2  A    between atoms: C_4  and  C_6 
REMARK    3  A    between atoms: C_6  and  C_10 
REMARK    4  A    between atoms: C_17  and  N_18 
REMARK    5  A    between atoms: C_20  and  C_21 
REMARK       I    between atoms: C_21  and  N_23 
ROOT
HETATM    1  C   UNL     1       4.723   9.994  22.777  0.00  0.00    -0.039 A 
HETATM    2  C   UNL     1       3.699  10.852  23.220  0.00  0.00     0.024 A 
HETATM    3  C   UNL     1       3.939  12.192  23.640  0.00  0.00     0.028 A 
HETATM    4  C   UNL     1       5.240  12.689  23.638  0.00  0.00     0.073 A 
HETATM    5  C   UNL     1       6.262  11.847  23.233  0.00  0.00     0.033 A 
HETATM    6  C   UNL     1       6.020  10.531  22.817  0.00  0.00     0.011 A 
HETATM    7  N   UNL     1       5.552  13.932  24.023  0.00  0.00    -0.218 NA
HETATM    8  C   UNL     1       4.563  14.737  24.402  0.00  0.00     0.200 A 
HETATM    9  N   UNL     1       3.293  14.379  24.480  0.00  0.00    -0.212 NA
HETATM   10  C   UNL     1       2.996  13.112  24.100  0.00  0.00     0.140 A 
ENDROOT
BRANCH  10  11
HETATM   11  C   UNL     1       1.534  12.770  24.222  0.00  0.00     0.274 C 
HETATM   12  O   UNL     1       0.701  13.353  23.533  0.00  0.00    -0.266 OA
HETATM   13  N   UNL     1       1.183  11.793  25.139  0.00  0.00    -0.338 N 
HETATM   14  C   UNL     1      -0.214  11.528  25.486  0.00  0.00     0.165 C 
HETATM   15  C   UNL     1       2.083  10.754  25.639  0.00  0.00     0.165 C 
HETATM   16  C   UNL     1      -0.123  10.353  26.412  0.00  0.00    -0.032 A 
HETATM   17  C   UNL     1      -1.121   9.728  27.139  0.00  0.00     0.009 A 
HETATM   18  C   UNL     1       1.198   9.896  26.478  0.00  0.00    -0.032 A 
HETATM   19  C   UNL     1      -0.772   8.628  27.931  0.00  0.00     0.001 A 
HETATM   20  C   UNL     1       0.554   8.168  27.984  0.00  0.00     0.001 A 
HETATM   21  C   UNL     1       1.553   8.805  27.250  0.00  0.00     0.009 A 
ENDBRANCH  10  11
BRANCH   8  22
HETATM   22  N   UNL     1       4.891  16.010  24.806  0.00  0.00    -0.271 NA
HETATM   23  H   UNL     1       4.367  16.274  25.628  0.00  0.00     0.127 HD
HETATM   24  H   UNL     1       4.896  16.648  24.023  0.00  0.00     0.127 HD
ENDBRANCH   8  22
BRANCH   1  25
HETATM   25  C   UNL     1       4.428   8.488  22.277  0.00  0.00     0.068 C 
HETATM   26  C   UNL     1       3.186   7.761  22.927  0.00  0.00     0.024 C 
HETATM   27  C   UNL     1       4.143   7.123  23.943  0.00  0.00     0.003 C 
HETATM   28  C   UNL     1       5.274   7.327  22.927  0.00  0.00     0.024 C 
BRANCH  25  29
HETATM   29  C   UNL     1       4.423   8.515  20.687  0.00  0.00     0.231 C 
HETATM   30  N   UNL     1       4.039   7.314  20.112  0.00  0.00    -0.360 N 
HETATM   31  H   UNL     1       3.897   6.510  20.708  0.00  0.00     0.162 HD
HETATM   32  O   UNL     1       4.721   9.493  19.999  0.00  0.00    -0.272 OA
BRANCH  30  33
HETATM   33  C   UNL     1       3.989   7.123  18.678  0.00  0.00     0.118 C 
HETATM   34  C   UNL     1       2.880   6.168  18.280  0.00  0.00     0.026 C 
ENDBRANCH  30  33
ENDBRANCH  25  29
ENDBRANCH   1  25
TORSDOF 5
ENDMDL
MODEL 6
REMARK VINA RESULT:    -9.239      1.871      2.871
REMARK INTER + INTRA:         -12.988
REMARK INTER:                 -12.968
REMARK INTRA:                  -0.020
REMARK UNBOUND:                -1.318
REMARK  5 active torsions:
REMARK  status: ('A' for Active; 'I' for Inactive)
REMARK    1  A    between atoms: C_2  and  N_3 
REMARK       I    between atoms: N_3  and  C_4 
REMARK    2  A    between atoms: C_4  and  C_6 
REMARK    3  A    between atoms: C_6  and  C_10 
REMARK    4  A    between atoms: C_17  and  N_18 
REMARK    5  A    between atoms: C_20  and  C_21 
REMARK       I    between atoms: C_21  and  N_23 
ROOT
HETATM    1  C   UNL     1       1.891   6.330  25.365  0.00  0.00    -0.039 A 
HETATM    2  C   UNL     1       2.268   7.543  24.758  0.00  0.00     0.024 A 
HETATM    3  C   UNL     1       1.382   8.650  24.624  0.00  0.00     0.028 A 
HETATM    4  C   UNL     1       0.073   8.543  25.091  0.00  0.00     0.073 A 
HETATM    5  C   UNL     1      -0.321   7.345  25.664  0.00  0.00     0.033 A 
HETATM    6  C   UNL     1       0.556   6.261  25.796  0.00  0.00     0.011 A 
HETATM    7  N   UNL     1      -0.823   9.532  24.997  0.00  0.00    -0.218 NA
HETATM    8  C   UNL     1      -0.433  10.681  24.454  0.00  0.00     0.200 A 
HETATM    9  N   UNL     1       0.768  10.901  23.945  0.00  0.00    -0.212 NA
HETATM   10  C   UNL     1       1.659   9.884  24.034  0.00  0.00     0.140 A 
ENDROOT
BRANCH  10  11
HETATM   11  C   UNL     1       3.001  10.200  23.429  0.00  0.00     0.274 C 
HETATM   12  O   UNL     1       3.543   9.401  22.669  0.00  0.00    -0.266 OA
HETATM   13  N   UNL     1       3.588  11.407  23.775  0.00  0.00    -0.338 N 
HETATM   14  C   UNL     1       4.970  11.723  23.413  0.00  0.00     0.165 C 
HETATM   15  C   UNL     1       2.862  12.579  24.262  0.00  0.00     0.165 C 
HETATM   16  C   UNL     1       5.137  13.134  23.889  0.00  0.00    -0.032 A 
HETATM   17  C   UNL     1       6.272  13.926  23.910  0.00  0.00     0.009 A 
HETATM   18  C   UNL     1       3.915  13.630  24.355  0.00  0.00    -0.032 A 
HETATM   19  C   UNL     1       6.158  15.231  24.402  0.00  0.00     0.001 A 
HETATM   20  C   UNL     1       4.926  15.727  24.858  0.00  0.00     0.001 A 
HETATM   21  C   UNL     1       3.789  14.921  24.835  0.00  0.00     0.009 A 
ENDBRANCH  10  11
BRANCH   8  22
HETATM   22  N   UNL     1      -1.361  11.691  24.353  0.00  0.00    -0.271 NA
HETATM   23  H   UNL     1      -2.224  11.349  23.953  0.00  0.00     0.127 HD
HETATM   24  H   UNL     1      -0.950  12.521  23.953  0.00  0.00     0.127 HD
ENDBRANCH   8  22
BRANCH   1  25
HETATM   25  C   UNL     1       2.917   5.096  25.535  0.00  0.00     0.068 C 
HETATM   26  C   UNL     1       4.345   5.274  24.882  0.00  0.00     0.024 C 
HETATM   27  C   UNL     1       3.826   4.533  23.642  0.00  0.00     0.003 C 
HETATM   28  C   UNL     1       2.766   3.882  24.540  0.00  0.00     0.024 C 
BRANCH  25  29
HETATM   29  C   UNL     1       2.937   4.712  27.077  0.00  0.00     0.231 C 
HETATM   30  N   UNL     1       3.530   5.671  27.882  0.00  0.00    -0.360 N 
HETATM   31  H   UNL     1       3.982   6.463  27.447  0.00  0.00     0.162 HD
HETATM   32  O   UNL     1       2.475   3.671  27.549  0.00  0.00    -0.272 OA
BRANCH  30  33
HETATM   33  C   UNL     1       3.668   5.503  29.313  0.00  0.00     0.118 C 
HETATM   34  C   UNL     1       4.025   6.810  29.996  0.00  0.00     0.026 C 
ENDBRANCH  30  33
ENDBRANCH  25  29
ENDBRANCH   1  25
TORSDOF 5
ENDMDL
MODEL 7
REMARK VINA RESULT:    -9.168      2.060      2.395
REMARK INTER + INTRA:         -12.899
REMARK INTER:                 -12.515
REMARK INTRA:                  -0.383
REMARK UNBOUND:                -1.318
REMARK  5 active torsions:
REMARK  status: ('A' for Active; 'I' for Inactive)
REMARK    1  A    between atoms: C_2  and  N_3 
REMARK       I    between atoms: N_3  and  C_4 
REMARK    2  A    between atoms: C_4  and  C_6 
REMARK    3  A    between atoms: C_6  and  C_10 
REMARK    4  A    between atoms: C_17  and  N_18 
REMARK    5  A    between atoms: C_20  and  C_21 
REMARK       I    between atoms: C_21  and  N_23 
ROOT
HETATM    1  C   UNL     1       1.528   6.895  26.082  0.00  0.00    -0.039 A 
HETATM    2  C   UNL     1       1.928   7.982  25.282  0.00  0.00     0.024 A 
HETATM    3  C   UNL     1       1.045   9.036  24.911  0.00  0.00     0.028 A 
HETATM    4  C   UNL     1      -0.283   9.001  25.332  0.00  0.00     0.073 A 
HETATM    5  C   UNL     1      -0.698   7.923  26.096  0.00  0.00     0.033 A 
HETATM    6  C   UNL     1       0.176   6.891  26.461  0.00  0.00     0.011 A 
HETATM    7  N   UNL     1      -1.177   9.946  25.022  0.00  0.00    -0.218 NA
HETATM    8  C   UNL     1      -0.767  10.982  24.296  0.00  0.00     0.200 A 
HETATM    9  N   UNL     1       0.454  11.119  23.807  0.00  0.00    -0.212 NA
HETATM   10  C   UNL     1       1.344  10.145  24.118  0.00  0.00     0.140 A 
ENDROOT
BRANCH  10  11
HETATM   11  C   UNL     1       2.711  10.361  23.523  0.00  0.00     0.274 C 
HETATM   12  O   UNL     1       3.212   9.509  22.794  0.00  0.00    -0.266 OA
HETATM   13  N   UNL     1       3.367  11.539  23.844  0.00  0.00    -0.338 N 
HETATM   14  C   UNL     1       4.770  11.759  23.493  0.00  0.00     0.165 C 
HETATM   15  C   UNL     1       2.708  12.767  24.288  0.00  0.00     0.165 C 
HETATM   16  C   UNL     1       5.018  13.170  23.932  0.00  0.00    -0.032 A 
HETATM   17  C   UNL     1       6.199  13.892  23.947  0.00  0.00     0.009 A 
HETATM   18  C   UNL     1       3.822  13.754  24.366  0.00  0.00    -0.032 A 
HETATM   19  C   UNL     1       6.160  15.215  24.400  0.00  0.00     0.001 A 
HETATM   20  C   UNL     1       4.954  15.798  24.824  0.00  0.00     0.001 A 
HETATM   21  C   UNL     1       3.770  15.064  24.808  0.00  0.00     0.009 A 
ENDBRANCH  10  11
BRANCH   8  22
HETATM   22  N   UNL     1      -1.693  11.946  23.972  0.00  0.00    -0.271 NA
HETATM   23  H   UNL     1      -1.657  12.164  22.986  0.00  0.00     0.127 HD
HETATM   24  H   UNL     1      -1.662  12.713  24.628  0.00  0.00     0.127 HD
ENDBRANCH   8  22
BRANCH   1  25
HETATM   25  C   UNL     1       2.550   5.725  26.518  0.00  0.00     0.068 C 
HETATM   26  C   UNL     1       2.189   4.929  27.833  0.00  0.00     0.024 C 
HETATM   27  C   UNL     1       3.109   5.877  28.613  0.00  0.00     0.003 C 
HETATM   28  C   UNL     1       3.852   6.150  27.299  0.00  0.00     0.024 C 
BRANCH  25  29
HETATM   29  C   UNL     1       2.793   4.814  25.238  0.00  0.00     0.231 C 
HETATM   30  N   UNL     1       4.016   5.032  24.624  0.00  0.00    -0.360 N 
HETATM   31  H   UNL     1       4.599   5.791  24.951  0.00  0.00     0.162 HD
HETATM   32  O   UNL     1       1.995   3.980  24.806  0.00  0.00    -0.272 OA
BRANCH  30  33
HETATM   33  C   UNL     1       4.422   4.320  23.431  0.00  0.00     0.118 C 
HETATM   34  C   UNL     1       5.932   4.221  23.327  0.00  0.00     0.026 C 
ENDBRANCH  30  33
ENDBRANCH  25  29
ENDBRANCH   1  25
TORSDOF 5
ENDMDL
MODEL 8
REMARK VINA RESULT:    -9.136      2.607      6.658
REMARK INTER + INTRA:         -12.858
REMARK INTER:                 -11.839
REMARK INTRA:                  -1.019
REMARK UNBOUND:                -1.318
REMARK  5 active torsions:
REMARK  status: ('A' for Active; 'I' for Inactive)
REMARK    1  A    between atoms: C_2  and  N_3 
REMARK       I    between atoms: N_3  and  C_4 
REMARK    2  A    between atoms: C_4  and  C_6 
REMARK    3  A    between atoms: C_6  and  C_10 
REMARK    4  A    between atoms: C_17  and  N_18 
REMARK    5  A    between atoms: C_20  and  C_21 
REMARK       I    between atoms: C_21  and  N_23 
ROOT
HETATM    1  C   UNL     1       3.876  10.501  23.283  0.00  0.00    -0.039 A 
HETATM    2  C   UNL     1       3.124   9.568  24.024  0.00  0.00     0.024 A 
HETATM    3  C   UNL     1       1.926   9.911  24.712  0.00  0.00     0.028 A 
HETATM    4  C   UNL     1       1.469  11.227  24.681  0.00  0.00     0.073 A 
HETATM    5  C   UNL     1       2.212  12.162  23.981  0.00  0.00     0.033 A 
HETATM    6  C   UNL     1       3.388  11.818  23.302  0.00  0.00     0.011 A 
HETATM    7  N   UNL     1       0.357  11.633  25.306  0.00  0.00    -0.218 NA
HETATM    8  C   UNL     1      -0.355  10.727  25.969  0.00  0.00     0.200 A 
HETATM    9  N   UNL     1      -0.015   9.456  26.102  0.00  0.00    -0.212 NA
HETATM   10  C   UNL     1       1.121   9.064  25.475  0.00  0.00     0.140 A 
ENDROOT
BRANCH  10  11
HETATM   11  C   UNL     1       1.453   7.609  25.676  0.00  0.00     0.274 C 
HETATM   12  O   UNL     1       1.007   6.759  24.909  0.00  0.00    -0.266 OA
HETATM   13  N   UNL     1       2.260   7.282  26.755  0.00  0.00    -0.338 N 
HETATM   14  C   UNL     1       2.475   5.894  27.163  0.00  0.00     0.165 C 
HETATM   15  C   UNL     1       3.186   8.203  27.413  0.00  0.00     0.165 C 
HETATM   16  C   UNL     1       3.470   6.012  28.277  0.00  0.00    -0.032 A 
HETATM   17  C   UNL     1       3.970   5.032  29.116  0.00  0.00     0.009 A 
HETATM   18  C   UNL     1       3.895   7.340  28.401  0.00  0.00    -0.032 A 
HETATM   19  C   UNL     1       4.912   5.406  30.082  0.00  0.00     0.001 A 
HETATM   20  C   UNL     1       5.342   6.738  30.194  0.00  0.00     0.001 A 
HETATM   21  C   UNL     1       4.831   7.719  29.346  0.00  0.00     0.009 A 
ENDBRANCH  10  11
BRANCH   8  22
HETATM   22  N   UNL     1      -1.491  11.152  26.617  0.00  0.00    -0.271 NA
HETATM   23  H   UNL     1      -1.513  10.811  27.568  0.00  0.00     0.127 HD
HETATM   24  H   UNL     1      -2.310  11.009  26.044  0.00  0.00     0.127 HD
ENDBRANCH   8  22
BRANCH   1  25
HETATM   25  C   UNL     1       5.215  10.088  22.484  0.00  0.00     0.068 C 
HETATM   26  C   UNL     1       6.414   9.541  23.355  0.00  0.00     0.024 C 
HETATM   27  C   UNL     1       6.993  10.963  23.377  0.00  0.00     0.003 C 
HETATM   28  C   UNL     1       6.212  11.244  22.088  0.00  0.00     0.024 C 
BRANCH  25  29
HETATM   29  C   UNL     1       4.774   9.134  21.291  0.00  0.00     0.231 C 
HETATM   30  N   UNL     1       4.466   7.845  21.694  0.00  0.00    -0.360 N 
HETATM   31  H   UNL     1       4.634   7.580  22.655  0.00  0.00     0.162 HD
HETATM   32  O   UNL     1       4.698   9.475  20.108  0.00  0.00    -0.272 OA
BRANCH  30  33
HETATM   33  C   UNL     1       4.064   6.816  20.759  0.00  0.00     0.118 C 
HETATM   34  C   UNL     1       3.767   5.506  21.464  0.00  0.00     0.026 C 
ENDBRANCH  30  33
ENDBRANCH  25  29
ENDBRANCH   1  25
TORSDOF 5
ENDMDL
MODEL 9
REMARK VINA RESULT:    -8.900      2.705      4.269
REMARK INTER + INTRA:         -12.560
REMARK INTER:                 -11.242
REMARK INTRA:                  -1.318
REMARK UNBOUND:                -1.318
REMARK  5 active torsions:
REMARK  status: ('A' for Active; 'I' for Inactive)
REMARK    1  A    between atoms: C_2  and  N_3 
REMARK       I    between atoms: N_3  and  C_4 
REMARK    2  A    between atoms: C_4  and  C_6 
REMARK    3  A    between atoms: C_6  and  C_10 
REMARK    4  A    between atoms: C_17  and  N_18 
REMARK    5  A    between atoms: C_20  and  C_21 
REMARK       I    between atoms: C_21  and  N_23 
ROOT
HETATM    1  C   UNL     1       3.020   7.254  26.816  0.00  0.00    -0.039 A 
HETATM    2  C   UNL     1       3.619   7.949  25.747  0.00  0.00     0.024 A 
HETATM    3  C   UNL     1       3.631   7.454  24.412  0.00  0.00     0.028 A 
HETATM    4  C   UNL     1       3.046   6.221  24.131  0.00  0.00     0.073 A 
HETATM    5  C   UNL     1       2.479   5.513  25.177  0.00  0.00     0.033 A 
HETATM    6  C   UNL     1       2.466   6.005  26.488  0.00  0.00     0.011 A 
HETATM    7  N   UNL     1       3.021   5.682  22.906  0.00  0.00    -0.218 NA
HETATM    8  C   UNL     1       3.560   6.374  21.907  0.00  0.00     0.200 A 
HETATM    9  N   UNL     1       4.173   7.538  22.045  0.00  0.00    -0.212 NA
HETATM   10  C   UNL     1       4.203   8.063  23.294  0.00  0.00     0.140 A 
ENDROOT
BRANCH  10  11
HETATM   11  C   UNL     1       4.922   9.382  23.379  0.00  0.00     0.274 C 
HETATM   12  O   UNL     1       6.139   9.438  23.216  0.00  0.00    -0.266 OA
HETATM   13  N   UNL     1       4.161  10.506  23.658  0.00  0.00    -0.338 N 
HETATM   14  C   UNL     1       4.777  11.797  23.966  0.00  0.00     0.165 C 
HETATM   15  C   UNL     1       2.725  10.624  23.410  0.00  0.00     0.165 C 
HETATM   16  C   UNL     1       3.602  12.718  24.094  0.00  0.00    -0.032 A 
HETATM   17  C   UNL     1       3.565  14.047  24.478  0.00  0.00     0.009 A 
HETATM   18  C   UNL     1       2.425  12.045  23.749  0.00  0.00    -0.032 A 
HETATM   19  C   UNL     1       2.324  14.693  24.505  0.00  0.00     0.001 A 
HETATM   20  C   UNL     1       1.148  14.014  24.147  0.00  0.00     0.001 A 
HETATM   21  C   UNL     1       1.194  12.675  23.763  0.00  0.00     0.009 A 
ENDBRANCH  10  11
BRANCH   8  22
HETATM   22  N   UNL     1       3.539   5.811  20.652  0.00  0.00    -0.271 NA
HETATM   23  H   UNL     1       3.510   6.525  19.937  0.00  0.00     0.127 HD
HETATM   24  H   UNL     1       2.864   5.063  20.602  0.00  0.00     0.127 HD
ENDBRANCH   8  22
BRANCH   1  25
HETATM   25  C   UNL     1       2.990   7.844  28.318  0.00  0.00     0.068 C 
HETATM   26  C   UNL     1       4.013   9.002  28.639  0.00  0.00     0.024 C 
HETATM   27  C   UNL     1       4.978   7.943  29.188  0.00  0.00     0.003 C 
HETATM   28  C   UNL     1       3.764   7.039  29.431  0.00  0.00     0.024 C 
BRANCH  25  29
HETATM   29  C   UNL     1       1.475   8.185  28.657  0.00  0.00     0.231 C 
HETATM   30  N   UNL     1       0.847   8.954  27.689  0.00  0.00    -0.360 N 
HETATM   31  H   UNL     1       1.396   9.317  26.922  0.00  0.00     0.162 HD
HETATM   32  O   UNL     1       0.880   7.815  29.671  0.00  0.00    -0.272 OA
BRANCH  30  33
HETATM   33  C   UNL     1      -0.526   9.391  27.818  0.00  0.00     0.118 C 
HETATM   34  C   UNL     1      -0.857  10.490  26.826  0.00  0.00     0.026 C 
ENDBRANCH  30  33
ENDBRANCH  25  29
ENDBRANCH   1  25
TORSDOF 5
ENDMDL
