REMARK  5 active torsions:
REMARK  status: ('A' for Active; 'I' for Inactive)
REMARK    1  A    between atoms: C_3  and  O_4 
REMARK    2  A    between atoms: C_6  and  O_7 
REMARK    3  A    between atoms: C_8  and  C_9 
REMARK    4  A    between atoms: C_15  and  C_16 
REMARK    5  A    between atoms: C_19  and  O_22 
ROOT
HETATM    1  C   UNL     1      -2.746  -0.161  -0.243  0.00  0.00     0.099 A 
HETATM    2  N   UNL     1      -3.424  -1.303  -0.462  0.00  0.00    -0.173 NA
HETATM    3  N   UNL     1      -4.707  -0.956  -0.509  0.00  0.00    -0.281 N 
HETATM    4  H   UNL     1      -5.397  -1.697  -0.604  0.00  0.00     0.189 HD
HETATM    5  C   UNL     1      -4.915   0.383  -0.441  0.00  0.00     0.033 A 
HETATM    6  C   UNL     1      -6.261   0.994  -0.565  0.00  0.00     0.070 C 
HETATM    7  C   UNL     1      -3.666   0.955  -0.230  0.00  0.00     0.008 A 
ENDROOT
BRANCH   1   8
HETATM    8  C   UNL     1      -1.271  -0.203  -0.123  0.00  0.00     0.028 A 
HETATM    9  C   UNL     1      -0.496   0.823  -0.689  0.00  0.00     0.019 A 
HETATM   10  C   UNL     1       0.903   0.798  -0.656  0.00  0.00     0.037 A 
HETATM   11  C   UNL     1       1.553  -0.282  -0.080  0.00  0.00     0.068 A 
HETATM   12  C   UNL     1       0.827  -1.323   0.481  0.00  0.00     0.074 A 
HETATM   13  C   UNL     1      -0.574  -1.278   0.470  0.00  0.00     0.081 A 
BRANCH  11  14
HETATM   14  O   UNL     1       2.913  -0.360  -0.049  0.00  0.00    -0.361 OA
HETATM   15  H   UNL     1       3.279   0.412  -0.511  0.00  0.00     0.217 HD
ENDBRANCH  11  14
BRANCH  13  16
HETATM   16  O   UNL     1      -1.242  -2.310   1.080  0.00  0.00    -0.360 OA
HETATM   17  H   UNL     1      -0.641  -3.068   1.161  0.00  0.00     0.217 HD
ENDBRANCH  13  16
ENDBRANCH   1   8
BRANCH   7  18
HETATM   18  C   UNL     1      -3.482   2.436  -0.027  0.00  0.00     0.068 C 
HETATM   19  C   UNL     1      -2.676   2.806   1.195  0.00  0.00    -0.015 C 
HETATM   20  C   UNL     1      -1.916   3.916   1.237  0.00  0.00     0.006 C 
HETATM   21  C   UNL     1      -1.748   4.840   0.056  0.00  0.00     0.166 C 
HETATM   22  C   UNL     1      -2.298   4.281  -1.235  0.00  0.00     0.006 C 
HETATM   23  C   UNL     1      -3.066   3.178  -1.282  0.00  0.00    -0.015 C 
BRANCH  21  24
HETATM   24  O   UNL     1      -2.296   6.137   0.304  0.00  0.00    -0.383 OA
HETATM   25  C   UNL     1      -3.673   6.166   0.664  0.00  0.00     0.202 C 
ENDBRANCH  21  24
ENDBRANCH   7  18
TORSDOF 5
