MODEL 1
REMARK VINA RESULT:    -9.984      0.000      0.000
REMARK INTER + INTRA:         -12.550
REMARK INTER:                 -11.478
REMARK INTRA:                  -1.072
REMARK UNBOUND:                -0.524
REMARK  4 active torsions:
REMARK  status: ('A' for Active; 'I' for Inactive)
REMARK    1  A    between atoms: N_1  and  C_2 
REMARK    2  A    between atoms: C_7  and  C_9 
REMARK       I    between atoms: C_9  and  N_11 
REMARK    3  A    between atoms: N_11  and  C_12 
REMARK    4  A    between atoms: C_24  and  C_25 
ROOT
HETATM    1  C   UNL     1       6.802  10.776  21.922  0.00  0.00     0.153 C 
HETATM    2  C   UNL     1       6.901  12.265  22.192  0.00  0.00    -0.020 A 
HETATM    3  C   UNL     1       6.011  13.264  21.808  0.00  0.00     0.010 A 
HETATM    4  C   UNL     1       6.166  14.542  22.345  0.00  0.00     0.001 A 
HETATM    5  C   UNL     1       7.174  14.795  23.275  0.00  0.00     0.001 A 
HETATM    6  C   UNL     1       8.066  13.784  23.654  0.00  0.00     0.013 A 
HETATM    7  C   UNL     1       7.969  12.519  23.089  0.00  0.00    -0.016 A 
HETATM    8  C   UNL     1       8.757  11.289  23.270  0.00  0.00    -0.003 A 
HETATM    9  C   UNL     1       8.107  10.265  22.508  0.00  0.00    -0.019 A 
HETATM   10  C   UNL     1       8.570   8.958  22.466  0.00  0.00     0.010 A 
HETATM   11  C   UNL     1       9.713   8.649  23.189  0.00  0.00     0.002 A 
HETATM   12  C   UNL     1      10.372   9.636  23.942  0.00  0.00     0.016 A 
HETATM   13  C   UNL     1       9.917  10.977  24.003  0.00  0.00     0.022 A 
ENDROOT
BRANCH   1  14
HETATM   14  N   UNL     1       6.501  10.375  20.560  0.00  0.00    -0.343 N 
HETATM   15  C   UNL     1       5.318   9.686  20.328  0.00  0.00     0.273 C 
HETATM   16  O   UNL     1       4.500   9.538  21.234  0.00  0.00    -0.266 OA
HETATM   17  H   UNL     1       7.178  10.497  19.812  0.00  0.00     0.163 HD
BRANCH  15  18
HETATM   18  C   UNL     1       5.054   9.109  18.961  0.00  0.00     0.150 A 
HETATM   19  C   UNL     1       4.583   9.912  17.929  0.00  0.00     0.086 A 
HETATM   20  C   UNL     1       4.413   9.267  16.729  0.00  0.00     0.146 A 
HETATM   21 CL   UNL     1       4.173  11.579  17.992  0.00  0.00    -0.080 Cl
HETATM   22  N   UNL     1       4.648   7.954  16.542  0.00  0.00    -0.229 NA
HETATM   23  C   UNL     1       5.056   7.255  17.604  0.00  0.00     0.199 A 
HETATM   24  N   UNL     1       5.298   7.772  18.818  0.00  0.00    -0.211 NA
BRANCH  23  25
HETATM   25  N   UNL     1       5.250   5.910  17.392  0.00  0.00    -0.271 NA
HETATM   26  H   UNL     1       5.666   5.489  18.213  0.00  0.00     0.127 HD
HETATM   27  H   UNL     1       4.438   5.463  16.996  0.00  0.00     0.127 HD
ENDBRANCH  23  25
ENDBRANCH  15  18
ENDBRANCH   1  14
BRANCH  13  28
HETATM   28  C   UNL     1      10.691  11.943  24.800  0.00  0.00     0.140 A 
HETATM   29  N   UNL     1      10.610  12.134  26.105  0.00  0.00    -0.227 NA
HETATM   30  C   UNL     1      11.555  13.072  26.436  0.00  0.00     0.103 A 
HETATM   31  C   UNL     1      11.953  13.558  27.683  0.00  0.00     0.150 A 
HETATM   32  C   UNL     1      12.171  13.564  25.294  0.00  0.00     0.065 A 
HETATM   33  N   UNL     1      12.905  14.526  27.768  0.00  0.00    -0.271 NA
HETATM   34  C   UNL     1      13.450  15.003  26.623  0.00  0.00     0.118 A 
HETATM   35  C   UNL     1      13.137  14.566  25.339  0.00  0.00     0.051 A 
HETATM   36  N   UNL     1      11.610  12.835  24.272  0.00  0.00    -0.338 N 
HETATM   37  H   UNL     1      11.861  12.903  23.298  0.00  0.00     0.167 HD
ENDBRANCH  13  28
TORSDOF 4
ENDMDL
MODEL 2
REMARK VINA RESULT:    -9.780      4.922      5.932
REMARK INTER + INTRA:         -12.305
REMARK INTER:                 -11.904
REMARK INTRA:                  -0.401
REMARK UNBOUND:                -0.524
REMARK  4 active torsions:
REMARK  status: ('A' for Active; 'I' for Inactive)
REMARK    1  A    between atoms: N_1  and  C_2 
REMARK    2  A    between atoms: C_7  and  C_9 
REMARK       I    between atoms: C_9  and  N_11 
REMARK    3  A    between atoms: N_11  and  C_12 
REMARK    4  A    between atoms: C_24  and  C_25 
ROOT
HETATM    1  C   UNL     1       3.236  12.661  24.051  0.00  0.00     0.153 C 
HETATM    2  C   UNL     1       3.990  13.926  23.687  0.00  0.00    -0.020 A 
HETATM    3  C   UNL     1       3.499  15.227  23.627  0.00  0.00     0.010 A 
HETATM    4  C   UNL     1       4.404  16.278  23.490  0.00  0.00     0.001 A 
HETATM    5  C   UNL     1       5.776  16.024  23.452  0.00  0.00     0.001 A 
HETATM    6  C   UNL     1       6.260  14.712  23.512  0.00  0.00     0.013 A 
HETATM    7  C   UNL     1       5.377  13.643  23.589  0.00  0.00    -0.016 A 
HETATM    8  C   UNL     1       5.584  12.188  23.644  0.00  0.00    -0.003 A 
HETATM    9  C   UNL     1       4.295  11.593  23.839  0.00  0.00    -0.019 A 
HETATM   10  C   UNL     1       4.115  10.223  23.960  0.00  0.00     0.010 A 
HETATM   11  C   UNL     1       5.237   9.410  23.878  0.00  0.00     0.002 A 
HETATM   12  C   UNL     1       6.512   9.968  23.684  0.00  0.00     0.016 A 
HETATM   13  C   UNL     1       6.721  11.364  23.560  0.00  0.00     0.022 A 
ENDROOT
BRANCH   1  14
HETATM   14  N   UNL     1       1.959  12.448  23.395  0.00  0.00    -0.343 N 
HETATM   15  C   UNL     1       0.849  13.120  23.892  0.00  0.00     0.273 C 
HETATM   16  O   UNL     1       0.980  13.961  24.777  0.00  0.00    -0.266 OA
HETATM   17  H   UNL     1       1.851  11.752  22.663  0.00  0.00     0.163 HD
BRANCH  15  18
HETATM   18  C   UNL     1      -0.517  12.795  23.345  0.00  0.00     0.150 A 
HETATM   19  C   UNL     1      -0.830  13.050  22.015  0.00  0.00     0.086 A 
HETATM   20  C   UNL     1      -2.099  12.680  21.640  0.00  0.00     0.146 A 
HETATM   21 CL   UNL     1       0.161  13.785  20.820  0.00  0.00    -0.080 Cl
HETATM   22  N   UNL     1      -3.001  12.138  22.479  0.00  0.00    -0.229 NA
HETATM   23  C   UNL     1      -2.624  11.972  23.750  0.00  0.00     0.199 A 
HETATM   24  N   UNL     1      -1.404  12.253  24.232  0.00  0.00    -0.211 NA
BRANCH  23  25
HETATM   25  N   UNL     1      -3.579  11.451  24.590  0.00  0.00    -0.271 NA
HETATM   26  H   UNL     1      -4.497  11.565  24.178  0.00  0.00     0.127 HD
HETATM   27  H   UNL     1      -3.331  10.538  24.936  0.00  0.00     0.127 HD
ENDBRANCH  23  25
ENDBRANCH  15  18
ENDBRANCH   1  14
BRANCH  13  28
HETATM   28  C   UNL     1       8.093  11.848  23.333  0.00  0.00     0.140 A 
HETATM   29  N   UNL     1       8.797  11.731  22.221  0.00  0.00    -0.227 NA
HETATM   30  C   UNL     1       9.988  12.384  22.426  0.00  0.00     0.103 A 
HETATM   31  C   UNL     1      11.042  12.645  21.548  0.00  0.00     0.150 A 
HETATM   32  C   UNL     1      10.078  12.827  23.737  0.00  0.00     0.065 A 
HETATM   33  N   UNL     1      12.154  13.292  21.988  0.00  0.00    -0.271 NA
HETATM   34  C   UNL     1      12.213  13.672  23.287  0.00  0.00     0.118 A 
HETATM   35  C   UNL     1      11.206  13.479  24.229  0.00  0.00     0.051 A 
HETATM   36  N   UNL     1       8.869  12.480  24.292  0.00  0.00    -0.338 N 
HETATM   37  H   UNL     1       8.572  12.692  25.231  0.00  0.00     0.167 HD
ENDBRANCH  13  28
TORSDOF 4
ENDMDL
MODEL 3
REMARK VINA RESULT:    -9.770      4.810      9.516
REMARK INTER + INTRA:         -12.293
REMARK INTER:                 -11.335
REMARK INTRA:                  -0.958
REMARK UNBOUND:                -0.524
REMARK  4 active torsions:
REMARK  status: ('A' for Active; 'I' for Inactive)
REMARK    1  A    between atoms: N_1  and  C_2 
REMARK    2  A    between atoms: C_7  and  C_9 
REMARK       I    between atoms: C_9  and  N_11 
REMARK    3  A    between atoms: N_11  and  C_12 
REMARK    4  A    between atoms: C_24  and  C_25 
ROOT
HETATM    1  C   UNL     1       6.645  12.987  23.962  0.00  0.00     0.153 C 
HETATM    2  C   UNL     1       5.906  11.721  23.571  0.00  0.00    -0.020 A 
HETATM    3  C   UNL     1       6.401  10.421  23.526  0.00  0.00     0.010 A 
HETATM    4  C   UNL     1       5.503   9.368  23.358  0.00  0.00     0.001 A 
HETATM    5  C   UNL     1       4.133   9.620  23.272  0.00  0.00     0.001 A 
HETATM    6  C   UNL     1       3.645  10.931  23.316  0.00  0.00     0.013 A 
HETATM    7  C   UNL     1       4.523  12.001  23.425  0.00  0.00    -0.016 A 
HETATM    8  C   UNL     1       4.311  13.456  23.474  0.00  0.00    -0.003 A 
HETATM    9  C   UNL     1       5.591  14.054  23.714  0.00  0.00    -0.019 A 
HETATM   10  C   UNL     1       5.764  15.423  23.843  0.00  0.00     0.010 A 
HETATM   11  C   UNL     1       4.645  16.235  23.722  0.00  0.00     0.002 A 
HETATM   12  C   UNL     1       3.378  15.674  23.483  0.00  0.00     0.016 A 
HETATM   13  C   UNL     1       3.176  14.278  23.351  0.00  0.00     0.022 A 
ENDROOT
BRANCH   1  14
HETATM   14  N   UNL     1       7.943  13.202  23.351  0.00  0.00    -0.343 N 
HETATM   15  C   UNL     1       9.048  13.313  24.186  0.00  0.00     0.273 C 
HETATM   16  O   UNL     1       8.935  13.104  25.392  0.00  0.00    -0.266 OA
HETATM   17  H   UNL     1       8.035  13.375  22.354  0.00  0.00     0.163 HD
BRANCH  15  18
HETATM   18  C   UNL     1      10.380  13.703  23.601  0.00  0.00     0.150 A 
HETATM   19  C   UNL     1      11.090  14.785  24.107  0.00  0.00     0.086 A 
HETATM   20  C   UNL     1      12.302  15.013  23.502  0.00  0.00     0.146 A 
HETATM   21 CL   UNL     1      10.620  15.862  25.360  0.00  0.00    -0.080 Cl
HETATM   22  N   UNL     1      12.780  14.282  22.478  0.00  0.00    -0.229 NA
HETATM   23  C   UNL     1      12.006  13.289  22.029  0.00  0.00     0.199 A 
HETATM   24  N   UNL     1      10.824  12.938  22.557  0.00  0.00    -0.211 NA
BRANCH  23  25
HETATM   25  N   UNL     1      12.503  12.585  20.958  0.00  0.00    -0.271 NA
HETATM   26  H   UNL     1      13.423  12.932  20.718  0.00  0.00     0.127 HD
HETATM   27  H   UNL     1      12.391  11.589  21.068  0.00  0.00     0.127 HD
ENDBRANCH  23  25
ENDBRANCH  15  18
ENDBRANCH   1  14
BRANCH  13  28
HETATM   28  C   UNL     1       1.814  13.791  23.075  0.00  0.00     0.140 A 
HETATM   29  N   UNL     1       0.981  13.246  23.944  0.00  0.00    -0.227 NA
HETATM   30  C   UNL     1      -0.197  13.008  23.280  0.00  0.00     0.103 A 
HETATM   31  C   UNL     1      -1.425  12.539  23.751  0.00  0.00     0.150 A 
HETATM   32  C   UNL     1      -0.063  13.311  21.933  0.00  0.00     0.065 A 
HETATM   33  N   UNL     1      -2.460  12.350  22.890  0.00  0.00    -0.271 NA
HETATM   34  C   UNL     1      -2.270  12.622  21.576  0.00  0.00     0.118 A 
HETATM   35  C   UNL     1      -1.094  13.114  21.018  0.00  0.00     0.051 A 
HETATM   36  N   UNL     1       1.215  13.806  21.826  0.00  0.00    -0.338 N 
HETATM   37  H   UNL     1       1.635  14.167  20.985  0.00  0.00     0.167 HD
ENDBRANCH  13  28
TORSDOF 4
ENDMDL
MODEL 4
REMARK VINA RESULT:    -9.684      2.434      9.567
REMARK INTER + INTRA:         -12.189
REMARK INTER:                 -11.161
REMARK INTRA:                  -1.028
REMARK UNBOUND:                -0.524
REMARK  4 active torsions:
REMARK  status: ('A' for Active; 'I' for Inactive)
REMARK    1  A    between atoms: N_1  and  C_2 
REMARK    2  A    between atoms: C_7  and  C_9 
REMARK       I    between atoms: C_9  and  N_11 
REMARK    3  A    between atoms: N_11  and  C_12 
REMARK    4  A    between atoms: C_24  and  C_25 
ROOT
HETATM    1  C   UNL     1       8.287  10.697  23.988  0.00  0.00     0.153 C 
HETATM    2  C   UNL     1       8.380   9.251  23.541  0.00  0.00    -0.020 A 
HETATM    3  C   UNL     1       9.011   8.194  24.191  0.00  0.00     0.010 A 
HETATM    4  C   UNL     1       8.793   6.897  23.729  0.00  0.00     0.001 A 
HETATM    5  C   UNL     1       7.930   6.670  22.657  0.00  0.00     0.001 A 
HETATM    6  C   UNL     1       7.301   7.739  22.008  0.00  0.00     0.013 A 
HETATM    7  C   UNL     1       7.547   9.045  22.412  0.00  0.00    -0.016 A 
HETATM    8  C   UNL     1       7.059  10.343  21.921  0.00  0.00    -0.003 A 
HETATM    9  C   UNL     1       7.567  11.341  22.815  0.00  0.00    -0.019 A 
HETATM   10  C   UNL     1       7.284  12.690  22.666  0.00  0.00     0.010 A 
HETATM   11  C   UNL     1       6.484  13.074  21.599  0.00  0.00     0.002 A 
HETATM   12  C   UNL     1       5.976  12.115  20.705  0.00  0.00     0.016 A 
HETATM   13  C   UNL     1       6.249  10.731  20.838  0.00  0.00     0.022 A 
ENDROOT
BRANCH   1  14
HETATM   14  N   UNL     1       9.518  11.330  24.421  0.00  0.00    -0.343 N 
HETATM   15  C   UNL     1       9.439  12.311  25.401  0.00  0.00     0.273 C 
HETATM   16  O   UNL     1       8.372  12.537  25.966  0.00  0.00    -0.266 OA
HETATM   17  H   UNL     1      10.400  11.144  23.952  0.00  0.00     0.163 HD
BRANCH  15  18
HETATM   18  C   UNL     1      10.671  13.105  25.753  0.00  0.00     0.150 A 
HETATM   19  C   UNL     1      10.954  14.303  25.108  0.00  0.00     0.086 A 
HETATM   20  C   UNL     1      12.091  14.938  25.545  0.00  0.00     0.146 A 
HETATM   21 CL   UNL     1      10.075  15.049  23.834  0.00  0.00    -0.080 Cl
HETATM   22  N   UNL     1      12.903  14.451  26.500  0.00  0.00    -0.229 NA
HETATM   23  C   UNL     1      12.573  13.270  27.032  0.00  0.00     0.199 A 
HETATM   24  N   UNL     1      11.472  12.570  26.723  0.00  0.00    -0.211 NA
BRANCH  23  25
HETATM   25  N   UNL     1      13.442  12.780  27.977  0.00  0.00    -0.271 NA
HETATM   26  H   UNL     1      14.102  12.147  27.542  0.00  0.00     0.127 HD
HETATM   27  H   UNL     1      13.812  13.505  28.571  0.00  0.00     0.127 HD
ENDBRANCH  23  25
ENDBRANCH  15  18
ENDBRANCH   1  14
BRANCH  13  28
HETATM   28  C   UNL     1       5.691   9.808  19.836  0.00  0.00     0.140 A 
HETATM   29  N   UNL     1       4.545   9.156  19.915  0.00  0.00    -0.227 NA
HETATM   30  C   UNL     1       4.387   8.470  18.737  0.00  0.00     0.103 A 
HETATM   31  C   UNL     1       3.313   7.711  18.266  0.00  0.00     0.150 A 
HETATM   32  C   UNL     1       5.514   8.608  17.941  0.00  0.00     0.065 A 
HETATM   33  N   UNL     1       3.393   7.088  17.060  0.00  0.00    -0.271 NA
HETATM   34  C   UNL     1       4.531   7.219  16.335  0.00  0.00     0.118 A 
HETATM   35  C   UNL     1       5.640   7.973  16.708  0.00  0.00     0.051 A 
HETATM   36  N   UNL     1       6.325   9.459  18.654  0.00  0.00    -0.338 N 
HETATM   37  H   UNL     1       7.217   9.813  18.348  0.00  0.00     0.167 HD
ENDBRANCH  13  28
TORSDOF 4
ENDMDL
MODEL 5
REMARK VINA RESULT:    -9.676      1.651      2.202
REMARK INTER + INTRA:         -12.180
REMARK INTER:                 -11.805
REMARK INTRA:                  -0.375
REMARK UNBOUND:                -0.524
REMARK  4 active torsions:
REMARK  status: ('A' for Active; 'I' for Inactive)
REMARK    1  A    between atoms: N_1  and  C_2 
REMARK    2  A    between atoms: C_7  and  C_9 
REMARK       I    between atoms: C_9  and  N_11 
REMARK    3  A    between atoms: N_11  and  C_12 
REMARK    4  A    between atoms: C_24  and  C_25 
ROOT
HETATM    1  C   UNL     1       5.973  11.042  22.815  0.00  0.00     0.153 C 
HETATM    2  C   UNL     1       6.266  12.530  22.850  0.00  0.00    -0.020 A 
HETATM    3  C   UNL     1       5.408  13.578  22.527  0.00  0.00     0.010 A 
HETATM    4  C   UNL     1       5.796  14.881  22.838  0.00  0.00     0.001 A 
HETATM    5  C   UNL     1       7.006  15.116  23.492  0.00  0.00     0.001 A 
HETATM    6  C   UNL     1       7.863  14.056  23.812  0.00  0.00     0.013 A 
HETATM    7  C   UNL     1       7.526  12.755  23.461  0.00  0.00    -0.016 A 
HETATM    8  C   UNL     1       8.217  11.469  23.641  0.00  0.00    -0.003 A 
HETATM    9  C   UNL     1       7.323  10.449  23.181  0.00  0.00    -0.019 A 
HETATM   10  C   UNL     1       7.641   9.100  23.225  0.00  0.00     0.010 A 
HETATM   11  C   UNL     1       8.884   8.741  23.728  0.00  0.00     0.002 A 
HETATM   12  C   UNL     1       9.782   9.722  24.183  0.00  0.00     0.016 A 
HETATM   13  C   UNL     1       9.477  11.106  24.151  0.00  0.00     0.022 A 
ENDROOT
BRANCH   1  14
HETATM   14  N   UNL     1       5.340  10.527  21.616  0.00  0.00    -0.343 N 
HETATM   15  C   UNL     1       5.965  10.757  20.397  0.00  0.00     0.273 C 
HETATM   16  O   UNL     1       7.082  11.269  20.361  0.00  0.00    -0.266 OA
HETATM   17  H   UNL     1       4.416  10.104  21.647  0.00  0.00     0.163 HD
BRANCH  15  18
HETATM   18  C   UNL     1       5.256  10.385  19.121  0.00  0.00     0.150 A 
HETATM   19  C   UNL     1       5.160   9.058  18.721  0.00  0.00     0.086 A 
HETATM   20  C   UNL     1       4.463   8.856  17.554  0.00  0.00     0.146 A 
HETATM   21 CL   UNL     1       5.824   7.673  19.491  0.00  0.00    -0.080 Cl
HETATM   22  N   UNL     1       3.928   9.848  16.818  0.00  0.00    -0.229 NA
HETATM   23  C   UNL     1       4.110  11.096  17.260  0.00  0.00     0.199 A 
HETATM   24  N   UNL     1       4.734  11.423  18.401  0.00  0.00    -0.211 NA
BRANCH  23  25
HETATM   25  N   UNL     1       3.585  12.089  16.467  0.00  0.00    -0.271 NA
HETATM   26  H   UNL     1       4.073  12.959  16.640  0.00  0.00     0.127 HD
HETATM   27  H   UNL     1       3.473  11.796  15.509  0.00  0.00     0.127 HD
ENDBRANCH  23  25
ENDBRANCH  15  18
ENDBRANCH   1  14
BRANCH  13  28
HETATM   28  C   UNL     1      10.495  12.057  24.627  0.00  0.00     0.140 A 
HETATM   29  N   UNL     1      11.166  12.928  23.894  0.00  0.00    -0.227 NA
HETATM   30  C   UNL     1      11.952  13.657  24.750  0.00  0.00     0.103 A 
HETATM   31  C   UNL     1      12.775  14.760  24.509  0.00  0.00     0.150 A 
HETATM   32  C   UNL     1      11.855  13.159  26.041  0.00  0.00     0.065 A 
HETATM   33  N   UNL     1      13.496  15.310  25.523  0.00  0.00    -0.271 NA
HETATM   34  C   UNL     1      13.399  14.763  26.759  0.00  0.00     0.118 A 
HETATM   35  C   UNL     1      12.590  13.683  27.101  0.00  0.00     0.051 A 
HETATM   36  N   UNL     1      10.928  12.149  25.940  0.00  0.00    -0.338 N 
HETATM   37  H   UNL     1      10.580  11.594  26.706  0.00  0.00     0.167 HD
ENDBRANCH  13  28
TORSDOF 4
ENDMDL
MODEL 6
REMARK VINA RESULT:    -9.603      4.821      6.387
REMARK INTER + INTRA:         -12.091
REMARK INTER:                 -11.605
REMARK INTRA:                  -0.487
REMARK UNBOUND:                -0.524
REMARK  4 active torsions:
REMARK  status: ('A' for Active; 'I' for Inactive)
REMARK    1  A    between atoms: N_1  and  C_2 
REMARK    2  A    between atoms: C_7  and  C_9 
REMARK       I    between atoms: C_9  and  N_11 
REMARK    3  A    between atoms: N_11  and  C_12 
REMARK    4  A    between atoms: C_24  and  C_25 
ROOT
HETATM    1  C   UNL     1       3.387  13.291  22.144  0.00  0.00     0.153 C 
HETATM    2  C   UNL     1       4.536  12.475  21.585  0.00  0.00    -0.020 A 
HETATM    3  C   UNL     1       4.475  11.424  20.674  0.00  0.00     0.010 A 
HETATM    4  C   UNL     1       5.662  10.950  20.117  0.00  0.00     0.001 A 
HETATM    5  C   UNL     1       6.879  11.548  20.445  0.00  0.00     0.001 A 
HETATM    6  C   UNL     1       6.931  12.604  21.364  0.00  0.00     0.013 A 
HETATM    7  C   UNL     1       5.769  13.055  21.977  0.00  0.00    -0.016 A 
HETATM    8  C   UNL     1       5.519  14.107  22.974  0.00  0.00    -0.003 A 
HETATM    9  C   UNL     1       4.098  14.195  23.136  0.00  0.00    -0.019 A 
HETATM   10  C   UNL     1       3.499  15.107  23.991  0.00  0.00     0.010 A 
HETATM   11  C   UNL     1       4.322  15.955  24.719  0.00  0.00     0.002 A 
HETATM   12  C   UNL     1       5.720  15.887  24.581  0.00  0.00     0.016 A 
HETATM   13  C   UNL     1       6.355  14.966  23.712  0.00  0.00     0.022 A 
ENDROOT
BRANCH   1  14
HETATM   14  N   UNL     1       2.241  12.554  22.643  0.00  0.00    -0.343 N 
HETATM   15  C   UNL     1       0.976  13.082  22.418  0.00  0.00     0.273 C 
HETATM   16  O   UNL     1       0.837  14.075  21.707  0.00  0.00    -0.266 OA
HETATM   17  H   UNL     1       2.357  11.734  23.231  0.00  0.00     0.163 HD
BRANCH  15  18
HETATM   18  C   UNL     1      -0.221  12.434  23.065  0.00  0.00     0.150 A 
HETATM   19  C   UNL     1      -0.069  11.343  23.912  0.00  0.00     0.086 A 
HETATM   20  C   UNL     1      -1.237  10.868  24.456  0.00  0.00     0.146 A 
HETATM   21 CL   UNL     1       1.383  10.523  24.325  0.00  0.00    -0.080 Cl
HETATM   22  N   UNL     1      -2.453  11.379  24.187  0.00  0.00    -0.229 NA
HETATM   23  C   UNL     1      -2.504  12.399  23.326  0.00  0.00     0.199 A 
HETATM   24  N   UNL     1      -1.437  12.980  22.758  0.00  0.00    -0.211 NA
BRANCH  23  25
HETATM   25  N   UNL     1      -3.762  12.874  23.041  0.00  0.00    -0.271 NA
HETATM   26  H   UNL     1      -4.302  12.950  23.895  0.00  0.00     0.127 HD
HETATM   27  H   UNL     1      -3.742  13.674  22.428  0.00  0.00     0.127 HD
ENDBRANCH  23  25
ENDBRANCH  15  18
ENDBRANCH   1  14
BRANCH  13  28
HETATM   28  C   UNL     1       7.826  14.955  23.658  0.00  0.00     0.140 A 
HETATM   29  N   UNL     1       8.640  14.278  24.448  0.00  0.00    -0.227 NA
HETATM   30  C   UNL     1       9.918  14.502  23.999  0.00  0.00     0.103 A 
HETATM   31  C   UNL     1      11.133  13.952  24.412  0.00  0.00     0.150 A 
HETATM   32  C   UNL     1       9.914  15.430  22.969  0.00  0.00     0.065 A 
HETATM   33  N   UNL     1      12.297  14.353  23.833  0.00  0.00    -0.271 NA
HETATM   34  C   UNL     1      12.247  15.292  22.858  0.00  0.00     0.118 A 
HETATM   35  C   UNL     1      11.086  15.878  22.364  0.00  0.00     0.051 A 
HETATM   36  N   UNL     1       8.582  15.702  22.769  0.00  0.00    -0.338 N 
HETATM   37  H   UNL     1       8.208  16.311  22.057  0.00  0.00     0.167 HD
ENDBRANCH  13  28
TORSDOF 4
ENDMDL
MODEL 7
REMARK VINA RESULT:    -9.517      1.474      1.979
REMARK INTER + INTRA:         -11.988
REMARK INTER:                 -10.989
REMARK INTRA:                  -0.999
REMARK UNBOUND:                -0.524
REMARK  4 active torsions:
REMARK  status: ('A' for Active; 'I' for Inactive)
REMARK    1  A    between atoms: N_1  and  C_2 
REMARK    2  A    between atoms: C_7  and  C_9 
REMARK       I    between atoms: C_9  and  N_11 
REMARK    3  A    between atoms: N_11  and  C_12 
REMARK    4  A    between atoms: C_24  and  C_25 
ROOT
HETATM    1  C   UNL     1       6.510  10.592  22.380  0.00  0.00     0.153 C 
HETATM    2  C   UNL     1       6.713  12.094  22.451  0.00  0.00    -0.020 A 
HETATM    3  C   UNL     1       5.843  13.095  22.028  0.00  0.00     0.010 A 
HETATM    4  C   UNL     1       6.118  14.415  22.383  0.00  0.00     0.001 A 
HETATM    5  C   UNL     1       7.226  14.712  23.178  0.00  0.00     0.001 A 
HETATM    6  C   UNL     1       8.096  13.698  23.597  0.00  0.00     0.013 A 
HETATM    7  C   UNL     1       7.877  12.384  23.207  0.00  0.00    -0.016 A 
HETATM    8  C   UNL     1       8.613  11.137  23.469  0.00  0.00    -0.003 A 
HETATM    9  C   UNL     1       7.838  10.072  22.904  0.00  0.00    -0.019 A 
HETATM   10  C   UNL     1       8.224   8.743  22.985  0.00  0.00     0.010 A 
HETATM   11  C   UNL     1       9.416   8.450  23.633  0.00  0.00     0.002 A 
HETATM   12  C   UNL     1      10.197   9.476  24.192  0.00  0.00     0.016 A 
HETATM   13  C   UNL     1       9.822  10.840  24.125  0.00  0.00     0.022 A 
ENDROOT
BRANCH   1  14
HETATM   14  N   UNL     1       6.054  10.051  21.113  0.00  0.00    -0.343 N 
HETATM   15  C   UNL     1       5.246   8.922  21.138  0.00  0.00     0.273 C 
HETATM   16  O   UNL     1       4.831   8.481  22.207  0.00  0.00    -0.266 OA
HETATM   17  H   UNL     1       6.398  10.417  20.230  0.00  0.00     0.163 HD
BRANCH  15  18
HETATM   18  C   UNL     1       4.894   8.237  19.843  0.00  0.00     0.150 A 
HETATM   19  C   UNL     1       5.399   6.977  19.545  0.00  0.00     0.086 A 
HETATM   20  C   UNL     1       4.976   6.455  18.346  0.00  0.00     0.146 A 
HETATM   21 CL   UNL     1       6.489   6.030  20.475  0.00  0.00    -0.080 Cl
HETATM   22  N   UNL     1       4.161   7.101  17.492  0.00  0.00    -0.229 NA
HETATM   23  C   UNL     1       3.763   8.327  17.845  0.00  0.00     0.199 A 
HETATM   24  N   UNL     1       4.070   8.932  19.002  0.00  0.00    -0.211 NA
BRANCH  23  25
HETATM   25  N   UNL     1       2.962   8.977  16.935  0.00  0.00    -0.271 NA
HETATM   26  H   UNL     1       3.536   9.428  16.234  0.00  0.00     0.127 HD
HETATM   27  H   UNL     1       2.199   8.401  16.616  0.00  0.00     0.127 HD
ENDBRANCH  23  25
ENDBRANCH  15  18
ENDBRANCH   1  14
BRANCH  13  28
HETATM   28  C   UNL     1      10.721  11.844  24.719  0.00  0.00     0.140 A 
HETATM   29  N   UNL     1      11.553  12.640  24.072  0.00  0.00    -0.227 NA
HETATM   30  C   UNL     1      12.137  13.459  25.005  0.00  0.00     0.103 A 
HETATM   31  C   UNL     1      13.010  14.538  24.846  0.00  0.00     0.150 A 
HETATM   32  C   UNL     1      11.744  13.094  26.284  0.00  0.00     0.065 A 
HETATM   33  N   UNL     1      13.493  15.193  25.935  0.00  0.00    -0.271 NA
HETATM   34  C   UNL     1      13.111  14.776  27.166  0.00  0.00     0.118 A 
HETATM   35  C   UNL     1      12.230  13.730  27.424  0.00  0.00     0.051 A 
HETATM   36  N   UNL     1      10.848  12.072  26.080  0.00  0.00    -0.338 N 
HETATM   37  H   UNL     1      10.328  11.596  26.800  0.00  0.00     0.167 HD
ENDBRANCH  13  28
TORSDOF 4
ENDMDL
MODEL 8
REMARK VINA RESULT:    -9.092      3.244      9.507
REMARK INTER + INTRA:         -11.476
REMARK INTER:                 -10.952
REMARK INTRA:                  -0.524
REMARK UNBOUND:                -0.524
REMARK  4 active torsions:
REMARK  status: ('A' for Active; 'I' for Inactive)
REMARK    1  A    between atoms: N_1  and  C_2 
REMARK    2  A    between atoms: C_7  and  C_9 
REMARK       I    between atoms: C_9  and  N_11 
REMARK    3  A    between atoms: N_11  and  C_12 
REMARK    4  A    between atoms: C_24  and  C_25 
ROOT
HETATM    1  C   UNL     1       6.839  14.065  22.726  0.00  0.00     0.153 C 
HETATM    2  C   UNL     1       5.439  13.490  22.829  0.00  0.00    -0.020 A 
HETATM    3  C   UNL     1       4.434  13.842  23.725  0.00  0.00     0.010 A 
HETATM    4  C   UNL     1       3.145  13.354  23.512  0.00  0.00     0.001 A 
HETATM    5  C   UNL     1       2.871  12.558  22.400  0.00  0.00     0.001 A 
HETATM    6  C   UNL     1       3.889  12.207  21.504  0.00  0.00     0.013 A 
HETATM    7  C   UNL     1       5.192  12.633  21.726  0.00  0.00    -0.016 A 
HETATM    8  C   UNL     1       6.446  12.412  20.989  0.00  0.00    -0.003 A 
HETATM    9  C   UNL     1       7.450  13.204  21.633  0.00  0.00    -0.019 A 
HETATM   10  C   UNL     1       8.762  13.256  21.186  0.00  0.00     0.010 A 
HETATM   11  C   UNL     1       9.100  12.498  20.074  0.00  0.00     0.002 A 
HETATM   12  C   UNL     1       8.134  11.710  19.425  0.00  0.00     0.016 A 
HETATM   13  C   UNL     1       6.788  11.643  19.862  0.00  0.00     0.022 A 
ENDROOT
BRANCH   1  14
HETATM   14  N   UNL     1       7.592  14.179  23.961  0.00  0.00    -0.343 N 
HETATM   15  C   UNL     1       8.695  15.023  23.978  0.00  0.00     0.273 C 
HETATM   16  O   UNL     1       8.939  15.742  23.011  0.00  0.00    -0.266 OA
HETATM   17  H   UNL     1       7.390  13.584  24.759  0.00  0.00     0.163 HD
BRANCH  15  18
HETATM   18  C   UNL     1       9.596  15.039  25.186  0.00  0.00     0.150 A 
HETATM   19  C   UNL     1      10.913  14.605  25.096  0.00  0.00     0.086 A 
HETATM   20  C   UNL     1      11.631  14.699  26.263  0.00  0.00     0.146 A 
HETATM   21 CL   UNL     1      11.718  13.953  23.726  0.00  0.00    -0.080 Cl
HETATM   22  N   UNL     1      11.120  15.145  27.426  0.00  0.00    -0.229 NA
HETATM   23  C   UNL     1       9.831  15.498  27.425  0.00  0.00     0.199 A 
HETATM   24  N   UNL     1       9.034  15.492  26.347  0.00  0.00    -0.211 NA
BRANCH  23  25
HETATM   25  N   UNL     1       9.328  15.913  28.635  0.00  0.00    -0.271 NA
HETATM   26  H   UNL     1       9.935  15.603  29.383  0.00  0.00     0.127 HD
HETATM   27  H   UNL     1       9.054  16.883  28.625  0.00  0.00     0.127 HD
ENDBRANCH  23  25
ENDBRANCH  15  18
ENDBRANCH   1  14
BRANCH  13  28
HETATM   28  C   UNL     1       5.858  10.768  19.130  0.00  0.00     0.140 A 
HETATM   29  N   UNL     1       5.309  11.009  17.952  0.00  0.00    -0.227 NA
HETATM   30  C   UNL     1       4.571   9.902  17.616  0.00  0.00     0.103 A 
HETATM   31  C   UNL     1       3.877   9.597  16.443  0.00  0.00     0.150 A 
HETATM   32  C   UNL     1       4.568   8.986  18.657  0.00  0.00     0.065 A 
HETATM   33  N   UNL     1       3.179   8.433  16.344  0.00  0.00    -0.271 NA
HETATM   34  C   UNL     1       3.173   7.588  17.403  0.00  0.00     0.118 A 
HETATM   35  C   UNL     1       3.852   7.793  18.600  0.00  0.00     0.051 A 
HETATM   36  N   UNL     1       5.388   9.553  19.603  0.00  0.00    -0.338 N 
HETATM   37  H   UNL     1       5.648   9.133  20.482  0.00  0.00     0.167 HD
ENDBRANCH  13  28
TORSDOF 4
ENDMDL
MODEL 9
REMARK VINA RESULT:    -8.971      3.246     10.466
REMARK INTER + INTRA:         -11.330
REMARK INTER:                 -10.406
REMARK INTRA:                  -0.924
REMARK UNBOUND:                -0.524
REMARK  4 active torsions:
REMARK  status: ('A' for Active; 'I' for Inactive)
REMARK    1  A    between atoms: N_1  and  C_2 
REMARK    2  A    between atoms: C_7  and  C_9 
REMARK       I    between atoms: C_9  and  N_11 
REMARK    3  A    between atoms: N_11  and  C_12 
REMARK    4  A    between atoms: C_24  and  C_25 
ROOT
HETATM    1  C   UNL     1       5.981  10.014  20.387  0.00  0.00     0.153 C 
HETATM    2  C   UNL     1       6.250   8.521  20.353  0.00  0.00    -0.020 A 
HETATM    3  C   UNL     1       7.020   7.772  21.237  0.00  0.00     0.010 A 
HETATM    4  C   UNL     1       6.961   6.381  21.163  0.00  0.00     0.001 A 
HETATM    5  C   UNL     1       6.117   5.761  20.241  0.00  0.00     0.001 A 
HETATM    6  C   UNL     1       5.347   6.524  19.355  0.00  0.00     0.013 A 
HETATM    7  C   UNL     1       5.431   7.910  19.369  0.00  0.00    -0.016 A 
HETATM    8  C   UNL     1       4.775   8.952  18.564  0.00  0.00    -0.003 A 
HETATM    9  C   UNL     1       5.166  10.213  19.119  0.00  0.00    -0.019 A 
HETATM   10  C   UNL     1       4.712  11.424  18.618  0.00  0.00     0.010 A 
HETATM   11  C   UNL     1       3.853  11.395  17.529  0.00  0.00     0.002 A 
HETATM   12  C   UNL     1       3.456  10.171  16.962  0.00  0.00     0.016 A 
HETATM   13  C   UNL     1       3.905   8.922  17.459  0.00  0.00     0.022 A 
ENDROOT
BRANCH   1  14
HETATM   14  N   UNL     1       7.129  10.883  20.564  0.00  0.00    -0.343 N 
HETATM   15  C   UNL     1       7.202  11.640  21.726  0.00  0.00     0.273 C 
HETATM   16  O   UNL     1       6.380  11.476  22.625  0.00  0.00    -0.266 OA
HETATM   17  H   UNL     1       7.807  11.019  19.820  0.00  0.00     0.163 HD
BRANCH  15  18
HETATM   18  C   UNL     1       8.288  12.675  21.867  0.00  0.00     0.150 A 
HETATM   19  C   UNL     1       7.981  13.991  22.190  0.00  0.00     0.086 A 
HETATM   20  C   UNL     1       9.066  14.822  22.316  0.00  0.00     0.146 A 
HETATM   21 CL   UNL     1       6.426  14.685  22.418  0.00  0.00    -0.080 Cl
HETATM   22  N   UNL     1      10.339  14.430  22.121  0.00  0.00    -0.229 NA
HETATM   23  C   UNL     1      10.533  13.156  21.769  0.00  0.00     0.199 A 
HETATM   24  N   UNL     1       9.565  12.235  21.653  0.00  0.00    -0.211 NA
BRANCH  23  25
HETATM   25  N   UNL     1      11.840  12.796  21.539  0.00  0.00    -0.271 NA
HETATM   26  H   UNL     1      12.449  13.585  21.714  0.00  0.00     0.127 HD
HETATM   27  H   UNL     1      12.077  11.916  21.970  0.00  0.00     0.127 HD
ENDBRANCH  23  25
ENDBRANCH  15  18
ENDBRANCH   1  14
BRANCH  13  28
HETATM   28  C   UNL     1       3.452   7.696  16.780  0.00  0.00     0.140 A 
HETATM   29  N   UNL     1       2.552   6.837  17.222  0.00  0.00    -0.227 NA
HETATM   30  C   UNL     1       2.386   5.887  16.245  0.00  0.00     0.103 A 
HETATM   31  C   UNL     1       1.490   4.818  16.162  0.00  0.00     0.150 A 
HETATM   32  C   UNL     1       3.285   6.094  15.210  0.00  0.00     0.065 A 
HETATM   33  N   UNL     1       1.529   3.975  15.096  0.00  0.00    -0.271 NA
HETATM   34  C   UNL     1       2.452   4.195  14.128  0.00  0.00     0.118 A 
HETATM   35  C   UNL     1       3.367   5.243  14.111  0.00  0.00     0.051 A 
HETATM   36  N   UNL     1       3.948   7.244  15.568  0.00  0.00    -0.338 N 
HETATM   37  H   UNL     1       4.649   7.712  15.016  0.00  0.00     0.167 HD
ENDBRANCH  13  28
TORSDOF 4
ENDMDL
