MODEL 1
REMARK VINA RESULT:    -8.574      0.000      0.000
REMARK INTER + INTRA:         -14.080
REMARK INTER:                 -12.065
REMARK INTRA:                  -2.015
REMARK UNBOUND:                -1.997
REMARK  8 active torsions:
REMARK  status: ('A' for Active; 'I' for Inactive)
REMARK    1  A    between atoms: O_2  and  C_3 
REMARK    2  A    between atoms: C_6  and  C_7 
REMARK    3  A    between atoms: C_7  and  N_8 
REMARK       I    between atoms: N_8  and  C_10 
REMARK    4  A    between atoms: C_10  and  C_12 
REMARK    5  A    between atoms: C_14  and  C_15 
REMARK    6  A    between atoms: N_21  and  C_22 
REMARK    7  A    between atoms: C_29  and  O_30 
REMARK    8  A    between atoms: C_32  and  O_33 
ROOT
HETATM    1  C   UNL     1       6.515  13.201  24.830  0.00  0.00     0.066 C 
HETATM    2  C   UNL     1       7.067  12.784  23.595  0.00  0.00     0.038 C 
HETATM    3  C   UNL     1       8.157  11.906  23.550  0.00  0.00     0.046 C 
HETATM    4  C   UNL     1       8.553  11.268  24.732  0.00  0.00     0.082 C 
HETATM    5  C   UNL     1       8.094  11.714  25.960  0.00  0.00     0.075 C 
HETATM    6  C   UNL     1       7.156  12.744  26.000  0.00  0.00     0.084 C 
ENDROOT
BRANCH   3   7
HETATM    7  C   UNL     1       8.915  11.615  22.308  0.00  0.00     0.172 A 
HETATM    8  N   UNL     1       8.866  10.411  21.787  0.00  0.00    -0.151 NA
HETATM    9  N   UNL     1       9.703  10.471  20.714  0.00  0.00    -0.226 N 
HETATM   10  H   UNL     1       9.982   9.655  20.190  0.00  0.00     0.194 HD
HETATM   11  C   UNL     1      10.327  11.710  20.638  0.00  0.00     0.349 A 
HETATM   12  O   UNL     1      11.254  11.957  19.887  0.00  0.00    -0.245 OA
HETATM   13  N   UNL     1       9.739  12.484  21.627  0.00  0.00    -0.244 N 
BRANCH  13  14
HETATM   14  C   UNL     1      10.155  13.807  21.921  0.00  0.00     0.051 A 
HETATM   15  C   UNL     1      11.273  14.028  22.743  0.00  0.00     0.031 A 
HETATM   16  C   UNL     1      11.653  15.325  23.114  0.00  0.00     0.002 A 
HETATM   17  C   UNL     1      10.895  16.417  22.707  0.00  0.00     0.001 A 
HETATM   18  C   UNL     1       9.817  16.221  21.852  0.00  0.00     0.009 A 
HETATM   19  C   UNL     1       9.462  14.932  21.411  0.00  0.00    -0.035 A 
HETATM   20  C   UNL     1       8.395  14.855  20.351  0.00  0.00     0.050 C 
ENDBRANCH  13  14
ENDBRANCH   3   7
BRANCH   4  21
HETATM   21  O   UNL     1       9.393  10.188  24.760  0.00  0.00    -0.360 OA
HETATM   22  H   UNL     1      10.247  10.455  24.353  0.00  0.00     0.217 HD
ENDBRANCH   4  21
BRANCH   1  23
HETATM   23  C   UNL     1       5.218  13.941  24.981  0.00  0.00     0.256 C 
HETATM   24  N   UNL     1       3.981  13.314  25.173  0.00  0.00    -0.348 N 
HETATM   25  C   UNL     1       3.737  11.892  25.273  0.00  0.00     0.153 C 
HETATM   26  O   UNL     1       5.288  15.171  25.011  0.00  0.00    -0.267 OA
BRANCH  24  27
HETATM   27  C   UNL     1       2.843  14.180  25.480  0.00  0.00     0.164 C 
BRANCH  27  28
HETATM   28  C   UNL     1       1.565  13.814  24.754  0.00  0.00    -0.040 A 
HETATM   29  C   UNL     1       1.509  13.750  23.356  0.00  0.00     0.011 A 
HETATM   30  C   UNL     1       0.357  13.284  22.711  0.00  0.00     0.037 A 
HETATM   31  C   UNL     1      -0.743  12.853  23.454  0.00  0.00     0.068 A 
HETATM   32  C   UNL     1      -0.723  12.983  24.841  0.00  0.00     0.037 A 
HETATM   33  C   UNL     1       0.420  13.469  25.484  0.00  0.00     0.011 A 
BRANCH  31  34
HETATM   34  O   UNL     1      -1.794  12.355  22.732  0.00  0.00    -0.356 OA
HETATM   35  C   UNL     1      -2.654  11.479  23.458  0.00  0.00     0.210 C 
ENDBRANCH  31  34
ENDBRANCH  27  28
ENDBRANCH  24  27
ENDBRANCH   1  23
BRANCH   6  36
HETATM   36  O   UNL     1       6.890  13.321  27.217  0.00  0.00    -0.360 OA
HETATM   37  H   UNL     1       7.337  14.182  27.281  0.00  0.00     0.217 HD
ENDBRANCH   6  36
TORSDOF 8
ENDMDL
MODEL 2
REMARK VINA RESULT:    -8.435      1.629      2.271
REMARK INTER + INTRA:         -13.884
REMARK INTER:                 -11.984
REMARK INTRA:                  -1.900
REMARK UNBOUND:                -1.997
REMARK  8 active torsions:
REMARK  status: ('A' for Active; 'I' for Inactive)
REMARK    1  A    between atoms: O_2  and  C_3 
REMARK    2  A    between atoms: C_6  and  C_7 
REMARK    3  A    between atoms: C_7  and  N_8 
REMARK       I    between atoms: N_8  and  C_10 
REMARK    4  A    between atoms: C_10  and  C_12 
REMARK    5  A    between atoms: C_14  and  C_15 
REMARK    6  A    between atoms: N_21  and  C_22 
REMARK    7  A    between atoms: C_29  and  O_30 
REMARK    8  A    between atoms: C_32  and  O_33 
ROOT
HETATM    1  C   UNL     1       6.410  12.783  23.351  0.00  0.00     0.066 C 
HETATM    2  C   UNL     1       7.395  12.768  22.334  0.00  0.00     0.038 C 
HETATM    3  C   UNL     1       8.504  11.918  22.413  0.00  0.00     0.046 C 
HETATM    4  C   UNL     1       8.515  10.921  23.398  0.00  0.00     0.082 C 
HETATM    5  C   UNL     1       7.618  10.962  24.451  0.00  0.00     0.075 C 
HETATM    6  C   UNL     1       6.639  11.954  24.469  0.00  0.00     0.084 C 
ENDROOT
BRANCH   3   7
HETATM    7  C   UNL     1       9.671  12.019  21.503  0.00  0.00     0.172 A 
HETATM    8  N   UNL     1      10.028  10.976  20.790  0.00  0.00    -0.151 NA
HETATM    9  N   UNL     1      11.146  11.384  20.127  0.00  0.00    -0.226 N 
HETATM   10  H   UNL     1      11.732  10.752  19.601  0.00  0.00     0.194 HD
HETATM   11  C   UNL     1      11.512  12.667  20.512  0.00  0.00     0.349 A 
HETATM   12  O   UNL     1      12.570  13.189  20.210  0.00  0.00    -0.245 OA
HETATM   13  N   UNL     1      10.494  13.112  21.341  0.00  0.00    -0.244 N 
BRANCH  13  14
HETATM   14  C   UNL     1      10.529  14.365  22.003  0.00  0.00     0.051 A 
HETATM   15  C   UNL     1      10.010  15.510  21.374  0.00  0.00     0.031 A 
HETATM   16  C   UNL     1      10.107  16.772  21.974  0.00  0.00     0.002 A 
HETATM   17  C   UNL     1      10.765  16.917  23.191  0.00  0.00     0.001 A 
HETATM   18  C   UNL     1      11.238  15.790  23.851  0.00  0.00     0.009 A 
HETATM   19  C   UNL     1      11.086  14.504  23.298  0.00  0.00    -0.035 A 
HETATM   20  C   UNL     1      11.473  13.344  24.178  0.00  0.00     0.050 C 
ENDBRANCH  13  14
ENDBRANCH   3   7
BRANCH   4  21
HETATM   21  O   UNL     1       9.384   9.864  23.388  0.00  0.00    -0.360 OA
HETATM   22  H   UNL     1       9.194   9.305  24.174  0.00  0.00     0.217 HD
ENDBRANCH   4  21
BRANCH   1  23
HETATM   23  C   UNL     1       5.082  13.475  23.248  0.00  0.00     0.256 C 
HETATM   24  N   UNL     1       4.795  14.704  23.855  0.00  0.00    -0.348 N 
HETATM   25  C   UNL     1       5.696  15.509  24.650  0.00  0.00     0.153 C 
HETATM   26  O   UNL     1       4.243  12.945  22.519  0.00  0.00    -0.267 OA
BRANCH  24  27
HETATM   27  C   UNL     1       3.516  15.326  23.511  0.00  0.00     0.164 C 
BRANCH  27  28
HETATM   28  C   UNL     1       2.331  14.789  24.286  0.00  0.00    -0.040 A 
HETATM   29  C   UNL     1       1.172  14.343  23.639  0.00  0.00     0.011 A 
HETATM   30  C   UNL     1       0.144  13.731  24.365  0.00  0.00     0.037 A 
HETATM   31  C   UNL     1       0.269  13.535  25.741  0.00  0.00     0.068 A 
HETATM   32  C   UNL     1       1.385  14.042  26.403  0.00  0.00     0.037 A 
HETATM   33  C   UNL     1       2.403  14.674  25.681  0.00  0.00     0.011 A 
BRANCH  31  34
HETATM   34  O   UNL     1      -0.762  12.870  26.347  0.00  0.00    -0.356 OA
HETATM   35  C   UNL     1      -1.274  11.762  25.610  0.00  0.00     0.210 C 
ENDBRANCH  31  34
ENDBRANCH  27  28
ENDBRANCH  24  27
ENDBRANCH   1  23
BRANCH   6  36
HETATM   36  O   UNL     1       5.913  12.116  25.624  0.00  0.00    -0.360 OA
HETATM   37  H   UNL     1       6.468  12.525  26.309  0.00  0.00     0.217 HD
ENDBRANCH   6  36
TORSDOF 8
ENDMDL
MODEL 3
REMARK VINA RESULT:    -8.380      1.938      2.663
REMARK INTER + INTRA:         -13.806
REMARK INTER:                 -11.784
REMARK INTRA:                  -2.023
REMARK UNBOUND:                -1.997
REMARK  8 active torsions:
REMARK  status: ('A' for Active; 'I' for Inactive)
REMARK    1  A    between atoms: O_2  and  C_3 
REMARK    2  A    between atoms: C_6  and  C_7 
REMARK    3  A    between atoms: C_7  and  N_8 
REMARK       I    between atoms: N_8  and  C_10 
REMARK    4  A    between atoms: C_10  and  C_12 
REMARK    5  A    between atoms: C_14  and  C_15 
REMARK    6  A    between atoms: N_21  and  C_22 
REMARK    7  A    between atoms: C_29  and  O_30 
REMARK    8  A    between atoms: C_32  and  O_33 
ROOT
HETATM    1  C   UNL     1       6.024  12.284  22.825  0.00  0.00     0.066 C 
HETATM    2  C   UNL     1       7.332  12.282  23.368  0.00  0.00     0.038 C 
HETATM    3  C   UNL     1       8.376  11.593  22.740  0.00  0.00     0.046 C 
HETATM    4  C   UNL     1       8.166  11.090  21.450  0.00  0.00     0.082 C 
HETATM    5  C   UNL     1       6.886  11.000  20.929  0.00  0.00     0.075 C 
HETATM    6  C   UNL     1       5.817  11.506  21.667  0.00  0.00     0.084 C 
ENDROOT
BRANCH   3   7
HETATM    7  C   UNL     1       9.698  11.368  23.374  0.00  0.00     0.172 A 
HETATM    8  N   UNL     1      10.011  10.170  23.810  0.00  0.00    -0.151 NA
HETATM    9  N   UNL     1      11.241  10.324  24.376  0.00  0.00    -0.226 N 
HETATM   10  H   UNL     1      11.687   9.603  24.923  0.00  0.00     0.194 HD
HETATM   11  C   UNL     1      11.636  11.656  24.351  0.00  0.00     0.349 A 
HETATM   12  O   UNL     1      12.602  12.087  24.955  0.00  0.00    -0.245 OA
HETATM   13  N   UNL     1      10.667  12.318  23.613  0.00  0.00    -0.244 N 
BRANCH  13  14
HETATM   14  C   UNL     1      10.671  13.722  23.417  0.00  0.00     0.051 A 
HETATM   15  C   UNL     1      10.373  14.585  24.485  0.00  0.00     0.031 A 
HETATM   16  C   UNL     1      10.292  15.971  24.294  0.00  0.00     0.002 A 
HETATM   17  C   UNL     1      10.462  16.512  23.025  0.00  0.00     0.001 A 
HETATM   18  C   UNL     1      10.808  15.679  21.967  0.00  0.00     0.009 A 
HETATM   19  C   UNL     1      10.965  14.292  22.153  0.00  0.00    -0.035 A 
HETATM   20  C   UNL     1      11.514  13.516  20.985  0.00  0.00     0.050 C 
ENDBRANCH  13  14
ENDBRANCH   3   7
BRANCH   4  21
HETATM   21  O   UNL     1       9.179  10.669  20.632  0.00  0.00    -0.360 OA
HETATM   22  H   UNL     1       8.778  10.202  19.865  0.00  0.00     0.217 HD
ENDBRANCH   4  21
BRANCH   1  23
HETATM   23  C   UNL     1       4.906  13.173  23.286  0.00  0.00     0.256 C 
HETATM   24  N   UNL     1       3.977  12.809  24.267  0.00  0.00    -0.348 N 
HETATM   25  C   UNL     1       3.934  11.565  25.001  0.00  0.00     0.153 C 
HETATM   26  O   UNL     1       4.877  14.309  22.810  0.00  0.00    -0.267 OA
BRANCH  24  27
HETATM   27  C   UNL     1       3.061  13.854  24.727  0.00  0.00     0.164 C 
BRANCH  27  28
HETATM   28  C   UNL     1       1.610  13.618  24.362  0.00  0.00    -0.040 A 
HETATM   29  C   UNL     1       1.221  13.338  23.046  0.00  0.00     0.011 A 
HETATM   30  C   UNL     1      -0.104  12.995  22.755  0.00  0.00     0.037 A 
HETATM   31  C   UNL     1      -1.052  12.904  23.775  0.00  0.00     0.068 A 
HETATM   32  C   UNL     1      -0.690  13.253  25.075  0.00  0.00     0.037 A 
HETATM   33  C   UNL     1       0.629  13.617  25.363  0.00  0.00     0.011 A 
BRANCH  31  34
HETATM   34  O   UNL     1      -2.303  12.499  23.396  0.00  0.00    -0.356 OA
HETATM   35  C   UNL     1      -2.639  11.166  23.775  0.00  0.00     0.210 C 
ENDBRANCH  31  34
ENDBRANCH  27  28
ENDBRANCH  24  27
ENDBRANCH   1  23
BRANCH   6  36
HETATM   36  O   UNL     1       4.547  11.204  21.242  0.00  0.00    -0.360 OA
HETATM   37  H   UNL     1       4.401  10.244  21.289  0.00  0.00     0.217 HD
ENDBRANCH   6  36
TORSDOF 8
ENDMDL
MODEL 4
REMARK VINA RESULT:    -8.289      1.479      1.939
REMARK INTER + INTRA:         -13.677
REMARK INTER:                 -11.882
REMARK INTRA:                  -1.795
REMARK UNBOUND:                -1.997
REMARK  8 active torsions:
REMARK  status: ('A' for Active; 'I' for Inactive)
REMARK    1  A    between atoms: O_2  and  C_3 
REMARK    2  A    between atoms: C_6  and  C_7 
REMARK    3  A    between atoms: C_7  and  N_8 
REMARK       I    between atoms: N_8  and  C_10 
REMARK    4  A    between atoms: C_10  and  C_12 
REMARK    5  A    between atoms: C_14  and  C_15 
REMARK    6  A    between atoms: N_21  and  C_22 
REMARK    7  A    between atoms: C_29  and  O_30 
REMARK    8  A    between atoms: C_32  and  O_33 
ROOT
HETATM    1  C   UNL     1       5.413  14.230  24.422  0.00  0.00     0.066 C 
HETATM    2  C   UNL     1       6.334  13.425  23.709  0.00  0.00     0.038 C 
HETATM    3  C   UNL     1       7.476  12.906  24.331  0.00  0.00     0.046 C 
HETATM    4  C   UNL     1       7.582  13.005  25.725  0.00  0.00     0.082 C 
HETATM    5  C   UNL     1       6.750  13.853  26.436  0.00  0.00     0.075 C 
HETATM    6  C   UNL     1       5.739  14.534  25.760  0.00  0.00     0.084 C 
ENDROOT
BRANCH   3   7
HETATM    7  C   UNL     1       8.581  12.254  23.588  0.00  0.00     0.172 A 
HETATM    8  N   UNL     1       8.655  10.944  23.556  0.00  0.00    -0.151 NA
HETATM    9  N   UNL     1       9.794  10.684  22.856  0.00  0.00    -0.226 N 
HETATM   10  H   UNL     1      10.194   9.760  22.783  0.00  0.00     0.194 HD
HETATM   11  C   UNL     1      10.458  11.861  22.533  0.00  0.00     0.349 A 
HETATM   12  O   UNL     1      11.587  11.898  22.076  0.00  0.00    -0.245 OA
HETATM   13  N   UNL     1       9.615  12.886  22.932  0.00  0.00    -0.244 N 
BRANCH  13  14
HETATM   14  C   UNL     1       9.965  14.256  22.837  0.00  0.00     0.051 A 
HETATM   15  C   UNL     1      10.704  14.868  23.864  0.00  0.00     0.031 A 
HETATM   16  C   UNL     1      10.992  16.239  23.830  0.00  0.00     0.002 A 
HETATM   17  C   UNL     1      10.507  17.029  22.794  0.00  0.00     0.001 A 
HETATM   18  C   UNL     1       9.820  16.432  21.743  0.00  0.00     0.009 A 
HETATM   19  C   UNL     1       9.583  15.044  21.723  0.00  0.00    -0.035 A 
HETATM   20  C   UNL     1       8.990  14.482  20.458  0.00  0.00     0.050 C 
ENDBRANCH  13  14
ENDBRANCH   3   7
BRANCH   4  21
HETATM   21  O   UNL     1       8.486  12.290  26.463  0.00  0.00    -0.360 OA
HETATM   22  H   UNL     1       9.106  12.925  26.884  0.00  0.00     0.217 HD
ENDBRANCH   4  21
BRANCH   1  23
HETATM   23  C   UNL     1       4.057  14.632  23.918  0.00  0.00     0.256 C 
HETATM   24  N   UNL     1       2.976  13.750  23.804  0.00  0.00    -0.348 N 
HETATM   25  C   UNL     1       2.962  12.347  24.151  0.00  0.00     0.153 C 
HETATM   26  O   UNL     1       3.897  15.828  23.672  0.00  0.00    -0.267 OA
BRANCH  24  27
HETATM   27  C   UNL     1       1.679  14.338  23.466  0.00  0.00     0.164 C 
BRANCH  27  28
HETATM   28  C   UNL     1       0.493  13.634  24.091  0.00  0.00    -0.040 A 
HETATM   29  C   UNL     1      -0.409  12.891  23.319  0.00  0.00     0.011 A 
HETATM   30  C   UNL     1      -1.421  12.143  23.932  0.00  0.00     0.037 A 
HETATM   31  C   UNL     1      -1.531  12.108  25.322  0.00  0.00     0.068 A 
HETATM   32  C   UNL     1      -0.685  12.902  26.093  0.00  0.00     0.037 A 
HETATM   33  C   UNL     1       0.312  13.667  25.480  0.00  0.00     0.011 A 
BRANCH  31  34
HETATM   34  O   UNL     1      -2.512  11.296  25.825  0.00  0.00    -0.356 OA
HETATM   35  C   UNL     1      -2.375  10.982  27.209  0.00  0.00     0.210 C 
ENDBRANCH  31  34
ENDBRANCH  27  28
ENDBRANCH  24  27
ENDBRANCH   1  23
BRANCH   6  36
HETATM   36  O   UNL     1       5.080  15.533  26.433  0.00  0.00    -0.360 OA
HETATM   37  H   UNL     1       4.764  15.202  27.291  0.00  0.00     0.217 HD
ENDBRANCH   6  36
TORSDOF 8
ENDMDL
MODEL 5
REMARK VINA RESULT:    -8.251      1.659      2.160
REMARK INTER + INTRA:         -13.625
REMARK INTER:                 -11.830
REMARK INTRA:                  -1.795
REMARK UNBOUND:                -1.997
REMARK  8 active torsions:
REMARK  status: ('A' for Active; 'I' for Inactive)
REMARK    1  A    between atoms: O_2  and  C_3 
REMARK    2  A    between atoms: C_6  and  C_7 
REMARK    3  A    between atoms: C_7  and  N_8 
REMARK       I    between atoms: N_8  and  C_10 
REMARK    4  A    between atoms: C_10  and  C_12 
REMARK    5  A    between atoms: C_14  and  C_15 
REMARK    6  A    between atoms: N_21  and  C_22 
REMARK    7  A    between atoms: C_29  and  O_30 
REMARK    8  A    between atoms: C_32  and  O_33 
ROOT
HETATM    1  C   UNL     1       7.513  14.245  25.233  0.00  0.00     0.066 C 
HETATM    2  C   UNL     1       7.609  13.238  24.242  0.00  0.00     0.038 C 
HETATM    3  C   UNL     1       8.727  12.399  24.167  0.00  0.00     0.046 C 
HETATM    4  C   UNL     1       9.650  12.418  25.221  0.00  0.00     0.082 C 
HETATM    5  C   UNL     1       9.633  13.441  26.154  0.00  0.00     0.075 C 
HETATM    6  C   UNL     1       8.624  14.400  26.088  0.00  0.00     0.084 C 
ENDROOT
BRANCH   3   7
HETATM    7  C   UNL     1       8.985  11.489  23.025  0.00  0.00     0.172 A 
HETATM    8  N   UNL     1       8.608  10.233  23.101  0.00  0.00    -0.151 NA
HETATM    9  N   UNL     1       9.041   9.677  21.935  0.00  0.00    -0.226 N 
HETATM   10  H   UNL     1       9.020   8.683  21.761  0.00  0.00     0.194 HD
HETATM   11  C   UNL     1       9.761  10.597  21.183  0.00  0.00     0.349 A 
HETATM   12  O   UNL     1      10.410  10.303  20.194  0.00  0.00    -0.245 OA
HETATM   13  N   UNL     1       9.642  11.803  21.856  0.00  0.00    -0.244 N 
BRANCH  13  14
HETATM   14  C   UNL     1      10.302  12.987  21.441  0.00  0.00     0.051 A 
HETATM   15  C   UNL     1      11.677  13.149  21.680  0.00  0.00     0.031 A 
HETATM   16  C   UNL     1      12.333  14.344  21.352  0.00  0.00     0.002 A 
HETATM   17  C   UNL     1      11.616  15.410  20.823  0.00  0.00     0.001 A 
HETATM   18  C   UNL     1      10.266  15.250  20.532  0.00  0.00     0.009 A 
HETATM   19  C   UNL     1       9.605  14.034  20.788  0.00  0.00    -0.035 A 
HETATM   20  C   UNL     1       8.196  13.913  20.270  0.00  0.00     0.050 C 
ENDBRANCH  13  14
ENDBRANCH   3   7
BRANCH   4  21
HETATM   21  O   UNL     1      10.604  11.455  25.402  0.00  0.00    -0.360 OA
HETATM   22  H   UNL     1      10.261  10.611  25.032  0.00  0.00     0.217 HD
ENDBRANCH   4  21
BRANCH   1  23
HETATM   23  C   UNL     1       6.271  15.028  25.542  0.00  0.00     0.256 C 
HETATM   24  N   UNL     1       5.456  15.613  24.565  0.00  0.00    -0.348 N 
HETATM   25  C   UNL     1       5.646  15.560  23.133  0.00  0.00     0.153 C 
HETATM   26  O   UNL     1       5.933  15.076  26.726  0.00  0.00    -0.267 OA
BRANCH  24  27
HETATM   27  C   UNL     1       4.190  16.188  25.021  0.00  0.00     0.164 C 
BRANCH  27  28
HETATM   28  C   UNL     1       3.028  15.217  25.022  0.00  0.00    -0.040 A 
HETATM   29  C   UNL     1       2.469  14.742  26.216  0.00  0.00     0.011 A 
HETATM   30  C   UNL     1       1.315  13.950  26.195  0.00  0.00     0.037 A 
HETATM   31  C   UNL     1       0.691  13.642  24.986  0.00  0.00     0.068 A 
HETATM   32  C   UNL     1       1.282  14.047  23.790  0.00  0.00     0.037 A 
HETATM   33  C   UNL     1       2.447  14.820  23.810  0.00  0.00     0.011 A 
BRANCH  31  34
HETATM   34  O   UNL     1      -0.466  12.916  25.077  0.00  0.00    -0.356 OA
HETATM   35  C   UNL     1      -1.232  12.861  23.876  0.00  0.00     0.210 C 
ENDBRANCH  31  34
ENDBRANCH  27  28
ENDBRANCH  24  27
ENDBRANCH   1  23
BRANCH   6  36
HETATM   36  O   UNL     1       8.755  15.521  26.871  0.00  0.00    -0.360 OA
HETATM   37  H   UNL     1       8.045  15.549  27.534  0.00  0.00     0.217 HD
ENDBRANCH   6  36
TORSDOF 8
ENDMDL
MODEL 6
REMARK VINA RESULT:    -8.196      2.196      3.679
REMARK INTER + INTRA:         -13.548
REMARK INTER:                 -11.550
REMARK INTRA:                  -1.997
REMARK UNBOUND:                -1.997
REMARK  8 active torsions:
REMARK  status: ('A' for Active; 'I' for Inactive)
REMARK    1  A    between atoms: O_2  and  C_3 
REMARK    2  A    between atoms: C_6  and  C_7 
REMARK    3  A    between atoms: C_7  and  N_8 
REMARK       I    between atoms: N_8  and  C_10 
REMARK    4  A    between atoms: C_10  and  C_12 
REMARK    5  A    between atoms: C_14  and  C_15 
REMARK    6  A    between atoms: N_21  and  C_22 
REMARK    7  A    between atoms: C_29  and  O_30 
REMARK    8  A    between atoms: C_32  and  O_33 
ROOT
HETATM    1  C   UNL     1       5.022  14.747  24.420  0.00  0.00     0.066 C 
HETATM    2  C   UNL     1       5.602  14.421  23.170  0.00  0.00     0.038 C 
HETATM    3  C   UNL     1       6.986  14.257  23.034  0.00  0.00     0.046 C 
HETATM    4  C   UNL     1       7.770  14.199  24.194  0.00  0.00     0.082 C 
HETATM    5  C   UNL     1       7.252  14.596  25.415  0.00  0.00     0.075 C 
HETATM    6  C   UNL     1       5.910  14.963  25.494  0.00  0.00     0.084 C 
ENDROOT
BRANCH   3   7
HETATM    7  C   UNL     1       7.665  14.142  21.721  0.00  0.00     0.172 A 
HETATM    8  N   UNL     1       7.979  15.230  21.057  0.00  0.00    -0.151 NA
HETATM    9  N   UNL     1       8.522  14.774  19.894  0.00  0.00    -0.226 N 
HETATM   10  H   UNL     1       8.735  15.379  19.114  0.00  0.00     0.194 HD
HETATM   11  C   UNL     1       8.458  13.388  19.825  0.00  0.00     0.349 A 
HETATM   12  O   UNL     1       8.704  12.748  18.818  0.00  0.00    -0.245 OA
HETATM   13  N   UNL     1       7.983  12.976  21.060  0.00  0.00    -0.244 N 
BRANCH  13  14
HETATM   14  C   UNL     1       7.708  11.620  21.368  0.00  0.00     0.051 A 
HETATM   15  C   UNL     1       6.448  11.071  21.077  0.00  0.00     0.031 A 
HETATM   16  C   UNL     1       6.126   9.758  21.446  0.00  0.00     0.002 A 
HETATM   17  C   UNL     1       7.043   8.988  22.152  0.00  0.00     0.001 A 
HETATM   18  C   UNL     1       8.313   9.495  22.403  0.00  0.00     0.009 A 
HETATM   19  C   UNL     1       8.679  10.786  21.978  0.00  0.00    -0.035 A 
HETATM   20  C   UNL     1      10.128  11.163  22.144  0.00  0.00     0.050 C 
ENDBRANCH  13  14
ENDBRANCH   3   7
BRANCH   4  21
HETATM   21  O   UNL     1       9.064  13.754  24.205  0.00  0.00    -0.360 OA
HETATM   22  H   UNL     1       9.149  13.078  24.913  0.00  0.00     0.217 HD
ENDBRANCH   4  21
BRANCH   1  23
HETATM   23  C   UNL     1       3.552  14.712  24.718  0.00  0.00     0.256 C 
HETATM   24  N   UNL     1       2.835  13.534  24.959  0.00  0.00    -0.348 N 
HETATM   25  C   UNL     1       3.361  12.188  24.981  0.00  0.00     0.153 C 
HETATM   26  O   UNL     1       2.988  15.802  24.824  0.00  0.00    -0.267 OA
BRANCH  24  27
HETATM   27  C   UNL     1       1.450  13.686  25.408  0.00  0.00     0.164 C 
BRANCH  27  28
HETATM   28  C   UNL     1       0.414  13.211  24.410  0.00  0.00    -0.040 A 
HETATM   29  C   UNL     1      -0.818  12.690  24.823  0.00  0.00     0.011 A 
HETATM   30  C   UNL     1      -1.809  12.379  23.886  0.00  0.00     0.037 A 
HETATM   31  C   UNL     1      -1.593  12.607  22.526  0.00  0.00     0.068 A 
HETATM   32  C   UNL     1      -0.344  13.056  22.100  0.00  0.00     0.037 A 
HETATM   33  C   UNL     1       0.655  13.345  23.036  0.00  0.00     0.011 A 
BRANCH  31  34
HETATM   34  O   UNL     1      -2.646  12.332  21.697  0.00  0.00    -0.356 OA
HETATM   35  C   UNL     1      -2.961  13.366  20.768  0.00  0.00     0.210 C 
ENDBRANCH  31  34
ENDBRANCH  27  28
ENDBRANCH  24  27
ENDBRANCH   1  23
BRANCH   6  36
HETATM   36  O   UNL     1       5.479  15.566  26.651  0.00  0.00    -0.360 OA
HETATM   37  H   UNL     1       4.703  16.121  26.466  0.00  0.00     0.217 HD
ENDBRANCH   6  36
TORSDOF 8
ENDMDL
MODEL 7
REMARK VINA RESULT:    -8.102      2.146      3.790
REMARK INTER + INTRA:         -13.415
REMARK INTER:                 -11.354
REMARK INTRA:                  -2.061
REMARK UNBOUND:                -1.997
REMARK  8 active torsions:
REMARK  status: ('A' for Active; 'I' for Inactive)
REMARK    1  A    between atoms: O_2  and  C_3 
REMARK    2  A    between atoms: C_6  and  C_7 
REMARK    3  A    between atoms: C_7  and  N_8 
REMARK       I    between atoms: N_8  and  C_10 
REMARK    4  A    between atoms: C_10  and  C_12 
REMARK    5  A    between atoms: C_14  and  C_15 
REMARK    6  A    between atoms: N_21  and  C_22 
REMARK    7  A    between atoms: C_29  and  O_30 
REMARK    8  A    between atoms: C_32  and  O_33 
ROOT
HETATM    1  C   UNL     1       4.733  14.668  24.343  0.00  0.00     0.066 C 
HETATM    2  C   UNL     1       5.923  14.320  23.659  0.00  0.00     0.038 C 
HETATM    3  C   UNL     1       7.153  14.267  24.326  0.00  0.00     0.046 C 
HETATM    4  C   UNL     1       7.160  14.344  25.725  0.00  0.00     0.082 C 
HETATM    5  C   UNL     1       6.035  14.766  26.412  0.00  0.00     0.075 C 
HETATM    6  C   UNL     1       4.863  15.021  25.702  0.00  0.00     0.084 C 
ENDROOT
BRANCH   3   7
HETATM    7  C   UNL     1       8.453  14.133  23.624  0.00  0.00     0.172 A 
HETATM    8  N   UNL     1       9.060  15.207  23.176  0.00  0.00    -0.151 NA
HETATM    9  N   UNL     1      10.170  14.732  22.546  0.00  0.00    -0.226 N 
HETATM   10  H   UNL     1      10.769  15.313  21.978  0.00  0.00     0.194 HD
HETATM   11  C   UNL     1      10.187  13.343  22.547  0.00  0.00     0.349 A 
HETATM   12  O   UNL     1      10.967  12.674  21.892  0.00  0.00    -0.245 OA
HETATM   13  N   UNL     1       9.111  12.958  23.333  0.00  0.00    -0.244 N 
BRANCH  13  14
HETATM   14  C   UNL     1       8.741  11.604  23.526  0.00  0.00     0.051 A 
HETATM   15  C   UNL     1       9.189  10.905  24.660  0.00  0.00     0.031 A 
HETATM   16  C   UNL     1       8.904   9.543  24.831  0.00  0.00     0.002 A 
HETATM   17  C   UNL     1       8.207   8.848  23.849  0.00  0.00     0.001 A 
HETATM   18  C   UNL     1       7.711   9.534  22.746  0.00  0.00     0.009 A 
HETATM   19  C   UNL     1       7.926  10.917  22.592  0.00  0.00    -0.035 A 
HETATM   20  C   UNL     1       7.196  11.588  21.458  0.00  0.00     0.050 C 
ENDBRANCH  13  14
ENDBRANCH   3   7
BRANCH   4  21
HETATM   21  O   UNL     1       8.244  14.013  26.491  0.00  0.00    -0.360 OA
HETATM   22  H   UNL     1       8.808  14.812  26.584  0.00  0.00     0.217 HD
ENDBRANCH   4  21
BRANCH   1  23
HETATM   23  C   UNL     1       3.349  14.525  23.781  0.00  0.00     0.256 C 
HETATM   24  N   UNL     1       2.735  13.293  23.529  0.00  0.00    -0.348 N 
HETATM   25  C   UNL     1       3.293  11.981  23.770  0.00  0.00     0.153 C 
HETATM   26  O   UNL     1       2.715  15.568  23.614  0.00  0.00    -0.267 OA
BRANCH  24  27
HETATM   27  C   UNL     1       1.322  13.326  23.150  0.00  0.00     0.164 C 
BRANCH  27  28
HETATM   28  C   UNL     1       0.382  12.751  24.190  0.00  0.00    -0.040 A 
HETATM   29  C   UNL     1       0.214  13.356  25.442  0.00  0.00     0.011 A 
HETATM   30  C   UNL     1      -0.754  12.884  26.336  0.00  0.00     0.037 A 
HETATM   31  C   UNL     1      -1.581  11.817  25.983  0.00  0.00     0.068 A 
HETATM   32  C   UNL     1      -1.370  11.162  24.771  0.00  0.00     0.037 A 
HETATM   33  C   UNL     1      -0.389  11.620  23.887  0.00  0.00     0.011 A 
BRANCH  31  34
HETATM   34  O   UNL     1      -2.537  11.473  26.900  0.00  0.00    -0.356 OA
HETATM   35  C   UNL     1      -2.071  10.653  27.969  0.00  0.00     0.210 C 
ENDBRANCH  31  34
ENDBRANCH  27  28
ENDBRANCH  24  27
ENDBRANCH   1  23
BRANCH   6  36
HETATM   36  O   UNL     1       3.839  15.653  26.364  0.00  0.00    -0.360 OA
HETATM   37  H   UNL     1       3.938  16.617  26.287  0.00  0.00     0.217 HD
ENDBRANCH   6  36
TORSDOF 8
ENDMDL
MODEL 8
REMARK VINA RESULT:    -8.035      1.769      2.923
REMARK INTER + INTRA:         -13.320
REMARK INTER:                 -11.475
REMARK INTRA:                  -1.845
REMARK UNBOUND:                -1.997
REMARK  8 active torsions:
REMARK  status: ('A' for Active; 'I' for Inactive)
REMARK    1  A    between atoms: O_2  and  C_3 
REMARK    2  A    between atoms: C_6  and  C_7 
REMARK    3  A    between atoms: C_7  and  N_8 
REMARK       I    between atoms: N_8  and  C_10 
REMARK    4  A    between atoms: C_10  and  C_12 
REMARK    5  A    between atoms: C_14  and  C_15 
REMARK    6  A    between atoms: N_21  and  C_22 
REMARK    7  A    between atoms: C_29  and  O_30 
REMARK    8  A    between atoms: C_32  and  O_33 
ROOT
HETATM    1  C   UNL     1       6.209  13.331  24.577  0.00  0.00     0.066 C 
HETATM    2  C   UNL     1       7.431  13.753  24.000  0.00  0.00     0.038 C 
HETATM    3  C   UNL     1       8.649  13.176  24.380  0.00  0.00     0.046 C 
HETATM    4  C   UNL     1       8.624  12.022  25.174  0.00  0.00     0.082 C 
HETATM    5  C   UNL     1       7.461  11.637  25.820  0.00  0.00     0.075 C 
HETATM    6  C   UNL     1       6.290  12.357  25.593  0.00  0.00     0.084 C 
ENDROOT
BRANCH   3   7
HETATM    7  C   UNL     1       9.968  13.726  23.983  0.00  0.00     0.172 A 
HETATM    8  N   UNL     1      10.771  14.208  24.903  0.00  0.00    -0.151 NA
HETATM    9  N   UNL     1      11.845  14.675  24.206  0.00  0.00    -0.226 N 
HETATM   10  H   UNL     1      12.573  15.231  24.629  0.00  0.00     0.194 HD
HETATM   11  C   UNL     1      11.645  14.543  22.838  0.00  0.00     0.349 A 
HETATM   12  O   UNL     1      12.365  15.049  21.996  0.00  0.00    -0.245 OA
HETATM   13  N   UNL     1      10.459  13.838  22.701  0.00  0.00    -0.244 N 
BRANCH  13  14
HETATM   14  C   UNL     1       9.868  13.558  21.443  0.00  0.00     0.051 A 
HETATM   15  C   UNL     1       9.144  14.554  20.766  0.00  0.00     0.031 A 
HETATM   16  C   UNL     1       8.483  14.277  19.562  0.00  0.00     0.002 A 
HETATM   17  C   UNL     1       8.496  12.989  19.040  0.00  0.00     0.001 A 
HETATM   18  C   UNL     1       9.250  12.004  19.668  0.00  0.00     0.009 A 
HETATM   19  C   UNL     1       9.979  12.281  20.840  0.00  0.00    -0.035 A 
HETATM   20  C   UNL     1      10.898  11.193  21.332  0.00  0.00     0.050 C 
ENDBRANCH  13  14
ENDBRANCH   3   7
BRANCH   4  21
HETATM   21  O   UNL     1       9.711  11.212  25.360  0.00  0.00    -0.360 OA
HETATM   22  H   UNL     1      10.042  10.937  24.476  0.00  0.00     0.217 HD
ENDBRANCH   4  21
BRANCH   1  23
HETATM   23  C   UNL     1       4.848  13.714  24.075  0.00  0.00     0.256 C 
HETATM   24  N   UNL     1       4.055  14.710  24.657  0.00  0.00    -0.348 N 
HETATM   25  C   UNL     1       4.395  15.533  25.797  0.00  0.00     0.153 C 
HETATM   26  O   UNL     1       4.466  13.156  23.045  0.00  0.00    -0.267 OA
BRANCH  24  27
HETATM   27  C   UNL     1       2.834  15.083  23.942  0.00  0.00     0.164 C 
BRANCH  27  28
HETATM   28  C   UNL     1       1.642  14.196  24.237  0.00  0.00    -0.040 A 
HETATM   29  C   UNL     1       1.190  13.986  25.545  0.00  0.00     0.011 A 
HETATM   30  C   UNL     1       0.011  13.270  25.784  0.00  0.00     0.037 A 
HETATM   31  C   UNL     1      -0.744  12.776  24.719  0.00  0.00     0.068 A 
HETATM   32  C   UNL     1      -0.262  12.916  23.419  0.00  0.00     0.037 A 
HETATM   33  C   UNL     1       0.927  13.613  23.182  0.00  0.00     0.011 A 
BRANCH  31  34
HETATM   34  O   UNL     1      -1.912  12.146  25.054  0.00  0.00    -0.356 OA
HETATM   35  C   UNL     1      -2.554  11.466  23.978  0.00  0.00     0.210 C 
ENDBRANCH  31  34
ENDBRANCH  27  28
ENDBRANCH  24  27
ENDBRANCH   1  23
BRANCH   6  36
HETATM   36  O   UNL     1       5.215  12.105  26.410  0.00  0.00    -0.360 OA
HETATM   37  H   UNL     1       5.050  12.869  26.987  0.00  0.00     0.217 HD
ENDBRANCH   6  36
TORSDOF 8
ENDMDL
MODEL 9
REMARK VINA RESULT:    -8.010      2.144      3.451
REMARK INTER + INTRA:         -13.285
REMARK INTER:                 -11.891
REMARK INTRA:                  -1.394
REMARK UNBOUND:                -1.997
REMARK  8 active torsions:
REMARK  status: ('A' for Active; 'I' for Inactive)
REMARK    1  A    between atoms: O_2  and  C_3 
REMARK    2  A    between atoms: C_6  and  C_7 
REMARK    3  A    between atoms: C_7  and  N_8 
REMARK       I    between atoms: N_8  and  C_10 
REMARK    4  A    between atoms: C_10  and  C_12 
REMARK    5  A    between atoms: C_14  and  C_15 
REMARK    6  A    between atoms: N_21  and  C_22 
REMARK    7  A    between atoms: C_29  and  O_30 
REMARK    8  A    between atoms: C_32  and  O_33 
ROOT
HETATM    1  C   UNL     1       6.401  13.297  23.462  0.00  0.00     0.066 C 
HETATM    2  C   UNL     1       7.469  14.106  23.004  0.00  0.00     0.038 C 
HETATM    3  C   UNL     1       8.193  13.767  21.854  0.00  0.00     0.046 C 
HETATM    4  C   UNL     1       7.706  12.739  21.035  0.00  0.00     0.082 C 
HETATM    5  C   UNL     1       6.722  11.879  21.494  0.00  0.00     0.075 C 
HETATM    6  C   UNL     1       6.152  12.108  22.745  0.00  0.00     0.084 C 
ENDROOT
BRANCH   3   7
HETATM    7  C   UNL     1       9.452  14.443  21.458  0.00  0.00     0.172 A 
HETATM    8  N   UNL     1       9.399  15.541  20.741  0.00  0.00    -0.151 NA
HETATM    9  N   UNL     1      10.703  15.858  20.508  0.00  0.00    -0.226 N 
HETATM   10  H   UNL     1      10.984  16.582  19.863  0.00  0.00     0.194 HD
HETATM   11  C   UNL     1      11.551  14.888  21.027  0.00  0.00     0.349 A 
HETATM   12  O   UNL     1      12.746  14.838  20.794  0.00  0.00    -0.245 OA
HETATM   13  N   UNL     1      10.733  14.014  21.727  0.00  0.00    -0.244 N 
BRANCH  13  14
HETATM   14  C   UNL     1      11.217  12.837  22.350  0.00  0.00     0.051 A 
HETATM   15  C   UNL     1      11.302  12.764  23.751  0.00  0.00     0.031 A 
HETATM   16  C   UNL     1      11.852  11.642  24.386  0.00  0.00     0.002 A 
HETATM   17  C   UNL     1      12.367  10.596  23.630  0.00  0.00     0.001 A 
HETATM   18  C   UNL     1      12.245  10.627  22.246  0.00  0.00     0.009 A 
HETATM   19  C   UNL     1      11.631  11.713  21.593  0.00  0.00    -0.035 A 
HETATM   20  C   UNL     1      11.392  11.560  20.113  0.00  0.00     0.050 C 
ENDBRANCH  13  14
ENDBRANCH   3   7
BRANCH   4  21
HETATM   21  O   UNL     1       8.150  12.520  19.760  0.00  0.00    -0.360 OA
HETATM   22  H   UNL     1       7.401  12.162  19.233  0.00  0.00     0.217 HD
ENDBRANCH   4  21
BRANCH   1  23
HETATM   23  C   UNL     1       5.425  13.692  24.531  0.00  0.00     0.256 C 
HETATM   24  N   UNL     1       4.696  14.887  24.517  0.00  0.00    -0.348 N 
HETATM   25  C   UNL     1       4.736  15.914  23.500  0.00  0.00     0.153 C 
HETATM   26  O   UNL     1       5.218  12.863  25.419  0.00  0.00    -0.267 OA
BRANCH  24  27
HETATM   27  C   UNL     1       3.658  15.038  25.538  0.00  0.00     0.164 C 
BRANCH  27  28
HETATM   28  C   UNL     1       2.328  14.412  25.174  0.00  0.00    -0.040 A 
HETATM   29  C   UNL     1       1.367  14.112  26.148  0.00  0.00     0.011 A 
HETATM   30  C   UNL     1       0.097  13.656  25.777  0.00  0.00     0.037 A 
HETATM   31  C   UNL     1      -0.238  13.516  24.430  0.00  0.00     0.068 A 
HETATM   32  C   UNL     1       0.735  13.740  23.458  0.00  0.00     0.037 A 
HETATM   33  C   UNL     1       2.011  14.175  23.830  0.00  0.00     0.011 A 
BRANCH  31  34
HETATM   34  O   UNL     1      -1.524  13.126  24.171  0.00  0.00    -0.356 OA
HETATM   35  C   UNL     1      -1.734  12.592  22.865  0.00  0.00     0.210 C 
ENDBRANCH  31  34
ENDBRANCH  27  28
ENDBRANCH  24  27
ENDBRANCH   1  23
BRANCH   6  36
HETATM   36  O   UNL     1       5.354  11.124  23.274  0.00  0.00    -0.360 OA
HETATM   37  H   UNL     1       5.852  10.609  23.931  0.00  0.00     0.217 HD
ENDBRANCH   6  36
TORSDOF 8
ENDMDL
