MODEL 1
REMARK VINA RESULT:    -8.385      0.000      0.000
REMARK INTER + INTRA:         -12.800
REMARK INTER:                 -11.963
REMARK INTRA:                  -0.838
REMARK UNBOUND:                -1.229
REMARK  7 active torsions:
REMARK  status: ('A' for Active; 'I' for Inactive)
REMARK    1  A    between atoms: C_5  and  O_6 
REMARK    2  A    between atoms: C_13  and  C_14 
REMARK    3  A    between atoms: C_14  and  C_15 
REMARK    4  A    between atoms: C_15  and  C_16 
REMARK    5  A    between atoms: C_16  and  C_17 
REMARK    6  A    between atoms: C_17  and  N_18 
REMARK    7  A    between atoms: N_22  and  C_26 
ROOT
HETATM    1  N   UNL     1      -3.124  10.845  27.567  0.00  0.00    -0.191 NA
HETATM    2  C   UNL     1      -2.487  11.299  26.711  0.00  0.00     0.102 C 
HETATM    3  C   UNL     1      -1.708  11.891  25.653  0.00  0.00     0.078 A 
HETATM    4  C   UNL     1      -0.525  12.598  25.993  0.00  0.00     0.039 A 
HETATM    5  C   UNL     1      -2.111  11.806  24.320  0.00  0.00     0.088 A 
HETATM    6  C   UNL     1      -1.370  12.433  23.315  0.00  0.00     0.068 A 
HETATM    7  C   UNL     1      -0.225  13.142  23.679  0.00  0.00     0.045 A 
HETATM    8  C   UNL     1       0.245  13.246  24.995  0.00  0.00    -0.000 A 
HETATM    9  N   UNL     1       0.627  13.871  22.884  0.00  0.00    -0.365 N 
HETATM   10  H   UNL     1       0.503  14.002  21.884  0.00  0.00     0.165 HD
HETATM   11  C   UNL     1       1.617  14.439  23.642  0.00  0.00     0.096 A 
HETATM   12  C   UNL     1       1.440  14.065  24.962  0.00  0.00    -0.030 A 
ENDROOT
BRANCH   5  13
HETATM   13  O   UNL     1      -3.225  11.145  23.886  0.00  0.00    -0.359 OA
HETATM   14  H   UNL     1      -4.044  11.649  24.030  0.00  0.00     0.217 HD
ENDBRANCH   5  13
BRANCH  12  15
HETATM   15  C   UNL     1       2.301  14.565  26.090  0.00  0.00     0.041 C 
BRANCH  15  16
HETATM   16  C   UNL     1       3.284  15.705  25.729  0.00  0.00     0.006 C 
BRANCH  16  17
HETATM   17  C   UNL     1       4.795  15.351  25.910  0.00  0.00     0.028 C 
BRANCH  17  18
HETATM   18  C   UNL     1       5.159  14.227  24.962  0.00  0.00     0.235 C 
BRANCH  18  19
HETATM   19  N   UNL     1       5.104  14.491  23.466  0.00  0.00    -0.068 N 
HETATM   20  H   UNL     1       4.196  14.949  23.268  0.00  0.00     0.280 HD
HETATM   21  C   UNL     1       5.098  13.128  22.737  0.00  0.00     0.262 C 
HETATM   22  C   UNL     1       6.462  12.411  22.946  0.00  0.00     0.263 C 
HETATM   23  N   UNL     1       7.641  13.312  22.565  0.00  0.00    -0.057 N 
HETATM   24  C   UNL     1       7.583  14.759  23.070  0.00  0.00     0.263 C 
HETATM   25  H   UNL     1       8.431  12.876  23.070  0.00  0.00     0.281 HD
HETATM   26  C   UNL     1       6.187  15.373  22.845  0.00  0.00     0.262 C 
BRANCH  23  27
HETATM   27  C   UNL     1       8.092  13.274  21.123  0.00  0.00     0.233 C 
HETATM   28  C   UNL     1       8.406  11.875  20.654  0.00  0.00     0.007 C 
HETATM   29  C   UNL     1       9.613  11.504  20.216  0.00  0.00    -0.007 C 
HETATM   30  C   UNL     1      10.673  12.521  19.977  0.00  0.00     0.123 C 
HETATM   31  C   UNL     1      12.085  11.984  20.155  0.00  0.00    -0.008 C 
HETATM   32  C   UNL     1      10.458  13.875  20.574  0.00  0.00    -0.007 C 
HETATM   33  N   UNL     1      13.255  11.539  20.304  0.00  0.00    -0.101 N 
HETATM   34  C   UNL     1       9.257  14.234  21.021  0.00  0.00     0.007 C 
ENDBRANCH  23  27
ENDBRANCH  18  19
ENDBRANCH  17  18
ENDBRANCH  16  17
ENDBRANCH  15  16
ENDBRANCH  12  15
TORSDOF 7
ENDMDL
MODEL 2
REMARK VINA RESULT:    -8.368      4.100      8.307
REMARK INTER + INTRA:         -12.777
REMARK INTER:                 -10.542
REMARK INTRA:                  -2.235
REMARK UNBOUND:                -1.229
REMARK  7 active torsions:
REMARK  status: ('A' for Active; 'I' for Inactive)
REMARK    1  A    between atoms: C_5  and  O_6 
REMARK    2  A    between atoms: C_13  and  C_14 
REMARK    3  A    between atoms: C_14  and  C_15 
REMARK    4  A    between atoms: C_15  and  C_16 
REMARK    5  A    between atoms: C_16  and  C_17 
REMARK    6  A    between atoms: C_17  and  N_18 
REMARK    7  A    between atoms: N_22  and  C_26 
ROOT
HETATM    1  N   UNL     1       5.048  11.732  26.310  0.00  0.00    -0.191 NA
HETATM    2  C   UNL     1       6.096  12.204  26.156  0.00  0.00     0.102 C 
HETATM    3  C   UNL     1       7.408  12.777  25.991  0.00  0.00     0.078 A 
HETATM    4  C   UNL     1       8.445  11.961  25.465  0.00  0.00     0.039 A 
HETATM    5  C   UNL     1       7.677  14.094  26.362  0.00  0.00     0.088 A 
HETATM    6  C   UNL     1       8.969  14.613  26.244  0.00  0.00     0.068 A 
HETATM    7  C   UNL     1       9.975  13.784  25.748  0.00  0.00     0.045 A 
HETATM    8  C   UNL     1       9.766  12.460  25.336  0.00  0.00    -0.000 A 
HETATM    9  N   UNL     1      11.314  14.052  25.588  0.00  0.00    -0.365 N 
HETATM   10  H   UNL     1      11.755  14.931  25.845  0.00  0.00     0.165 HD
HETATM   11  C   UNL     1      11.965  12.952  25.096  0.00  0.00     0.096 A 
HETATM   12  C   UNL     1      11.045  11.937  24.900  0.00  0.00    -0.030 A 
ENDROOT
BRANCH   5  13
HETATM   13  O   UNL     1       6.753  14.962  26.869  0.00  0.00    -0.359 OA
HETATM   14  H   UNL     1       5.841  14.729  26.625  0.00  0.00     0.217 HD
ENDBRANCH   5  13
BRANCH  12  15
HETATM   15  C   UNL     1      11.417  10.555  24.438  0.00  0.00     0.041 C 
BRANCH  15  16
HETATM   16  C   UNL     1      12.410  10.489  23.252  0.00  0.00     0.006 C 
BRANCH  16  17
HETATM   17  C   UNL     1      11.755  10.627  21.839  0.00  0.00     0.028 C 
BRANCH  17  18
HETATM   18  C   UNL     1      11.717  12.091  21.452  0.00  0.00     0.235 C 
BRANCH  18  19
HETATM   19  N   UNL     1      10.660  12.555  20.464  0.00  0.00    -0.068 N 
HETATM   20  H   UNL     1      11.059  12.447  19.514  0.00  0.00     0.280 HD
HETATM   21  C   UNL     1      10.420  14.066  20.691  0.00  0.00     0.262 C 
HETATM   22  C   UNL     1       9.765  14.293  22.082  0.00  0.00     0.263 C 
HETATM   23  N   UNL     1       8.511  13.431  22.267  0.00  0.00    -0.057 N 
HETATM   24  C   UNL     1       8.622  11.965  21.832  0.00  0.00     0.263 C 
HETATM   25  H   UNL     1       8.403  13.407  23.294  0.00  0.00     0.281 HD
HETATM   26  C   UNL     1       9.309  11.840  20.458  0.00  0.00     0.262 C 
BRANCH  23  27
HETATM   27  C   UNL     1       7.201  14.022  21.797  0.00  0.00     0.233 C 
HETATM   28  C   UNL     1       6.932  15.379  22.401  0.00  0.00     0.007 C 
HETATM   29  C   UNL     1       5.867  15.641  23.165  0.00  0.00    -0.007 C 
HETATM   30  C   UNL     1       4.771  14.643  23.299  0.00  0.00     0.123 C 
HETATM   31  C   UNL     1       4.029  14.726  24.624  0.00  0.00    -0.008 C 
HETATM   32  C   UNL     1       5.070  13.247  22.856  0.00  0.00    -0.007 C 
HETATM   33  N   UNL     1       3.415  14.794  25.723  0.00  0.00    -0.101 N 
HETATM   34  C   UNL     1       6.139  12.989  22.106  0.00  0.00     0.007 C 
ENDBRANCH  23  27
ENDBRANCH  18  19
ENDBRANCH  17  18
ENDBRANCH  16  17
ENDBRANCH  15  16
ENDBRANCH  12  15
TORSDOF 7
ENDMDL
MODEL 3
REMARK VINA RESULT:    -8.329      4.540      9.861
REMARK INTER + INTRA:         -12.723
REMARK INTER:                 -11.022
REMARK INTRA:                  -1.701
REMARK UNBOUND:                -1.229
REMARK  7 active torsions:
REMARK  status: ('A' for Active; 'I' for Inactive)
REMARK    1  A    between atoms: C_5  and  O_6 
REMARK    2  A    between atoms: C_13  and  C_14 
REMARK    3  A    between atoms: C_14  and  C_15 
REMARK    4  A    between atoms: C_15  and  C_16 
REMARK    5  A    between atoms: C_16  and  C_17 
REMARK    6  A    between atoms: C_17  and  N_18 
REMARK    7  A    between atoms: N_22  and  C_26 
ROOT
HETATM    1  N   UNL     1       7.722  14.959  25.859  0.00  0.00    -0.191 NA
HETATM    2  C   UNL     1       8.782  14.545  26.078  0.00  0.00     0.102 C 
HETATM    3  C   UNL     1      10.088  14.005  26.364  0.00  0.00     0.078 A 
HETATM    4  C   UNL     1      10.617  13.012  25.498  0.00  0.00     0.039 A 
HETATM    5  C   UNL     1      10.816  14.418  27.480  0.00  0.00     0.088 A 
HETATM    6  C   UNL     1      12.056  13.843  27.768  0.00  0.00     0.068 A 
HETATM    7  C   UNL     1      12.543  12.851  26.915  0.00  0.00     0.045 A 
HETATM    8  C   UNL     1      11.871  12.409  25.767  0.00  0.00    -0.000 A 
HETATM    9  N   UNL     1      13.700  12.115  27.019  0.00  0.00    -0.365 N 
HETATM   10  H   UNL     1      14.363  12.201  27.784  0.00  0.00     0.165 HD
HETATM   11  C   UNL     1      13.789  11.220  25.987  0.00  0.00     0.096 A 
HETATM   12  C   UNL     1      12.686  11.373  25.164  0.00  0.00    -0.030 A 
ENDROOT
BRANCH   5  13
HETATM   13  O   UNL     1      10.403  15.370  28.367  0.00  0.00    -0.359 OA
HETATM   14  H   UNL     1      10.542  15.109  29.294  0.00  0.00     0.217 HD
ENDBRANCH   5  13
BRANCH  12  15
HETATM   15  C   UNL     1      12.414  10.503  23.969  0.00  0.00     0.041 C 
BRANCH  15  16
HETATM   16  C   UNL     1      12.851  11.084  22.602  0.00  0.00     0.006 C 
BRANCH  16  17
HETATM   17  C   UNL     1      11.724  11.139  21.521  0.00  0.00     0.028 C 
BRANCH  17  18
HETATM   18  C   UNL     1      10.697  12.175  21.928  0.00  0.00     0.235 C 
BRANCH  18  19
HETATM   19  N   UNL     1       9.485  12.389  21.036  0.00  0.00    -0.068 N 
HETATM   20  H   UNL     1       9.748  12.081  20.082  0.00  0.00     0.280 HD
HETATM   21  C   UNL     1       9.201  13.907  20.966  0.00  0.00     0.262 C 
HETATM   22  C   UNL     1       8.743  14.424  22.359  0.00  0.00     0.263 C 
HETATM   23  N   UNL     1       7.576  13.600  22.914  0.00  0.00    -0.057 N 
HETATM   24  C   UNL     1       7.700  12.077  22.794  0.00  0.00     0.263 C 
HETATM   25  H   UNL     1       7.619  13.802  23.926  0.00  0.00     0.281 HD
HETATM   26  C   UNL     1       8.187  11.664  21.391  0.00  0.00     0.262 C 
BRANCH  23  27
HETATM   27  C   UNL     1       6.183  14.047  22.533  0.00  0.00     0.233 C 
HETATM   28  C   UNL     1       5.976  15.527  22.740  0.00  0.00     0.007 C 
HETATM   29  C   UNL     1       5.055  16.028  23.570  0.00  0.00    -0.007 C 
HETATM   30  C   UNL     1       4.038  15.138  24.193  0.00  0.00     0.123 C 
HETATM   31  C   UNL     1       3.541  15.631  25.542  0.00  0.00    -0.008 C 
HETATM   32  C   UNL     1       4.304  13.668  24.142  0.00  0.00    -0.007 C 
HETATM   33  N   UNL     1       3.129  16.039  26.662  0.00  0.00    -0.101 N 
HETATM   34  C   UNL     1       5.231  13.175  23.324  0.00  0.00     0.007 C 
ENDBRANCH  23  27
ENDBRANCH  18  19
ENDBRANCH  17  18
ENDBRANCH  16  17
ENDBRANCH  15  16
ENDBRANCH  12  15
TORSDOF 7
ENDMDL
MODEL 4
REMARK VINA RESULT:    -8.263      3.960      9.723
REMARK INTER + INTRA:         -12.631
REMARK INTER:                 -11.084
REMARK INTRA:                  -1.547
REMARK UNBOUND:                -1.229
REMARK  7 active torsions:
REMARK  status: ('A' for Active; 'I' for Inactive)
REMARK    1  A    between atoms: C_5  and  O_6 
REMARK    2  A    between atoms: C_13  and  C_14 
REMARK    3  A    between atoms: C_14  and  C_15 
REMARK    4  A    between atoms: C_15  and  C_16 
REMARK    5  A    between atoms: C_16  and  C_17 
REMARK    6  A    between atoms: C_17  and  N_18 
REMARK    7  A    between atoms: N_22  and  C_26 
ROOT
HETATM    1  N   UNL     1       7.111  11.245  19.396  0.00  0.00    -0.191 NA
HETATM    2  C   UNL     1       8.051  11.883  19.626  0.00  0.00     0.102 C 
HETATM    3  C   UNL     1       9.211  12.678  19.942  0.00  0.00     0.078 A 
HETATM    4  C   UNL     1      10.343  12.034  20.510  0.00  0.00     0.039 A 
HETATM    5  C   UNL     1       9.226  14.056  19.729  0.00  0.00     0.088 A 
HETATM    6  C   UNL     1      10.341  14.816  20.093  0.00  0.00     0.068 A 
HETATM    7  C   UNL     1      11.431  14.163  20.671  0.00  0.00     0.045 A 
HETATM    8  C   UNL     1      11.487  12.780  20.890  0.00  0.00    -0.000 A 
HETATM    9  N   UNL     1      12.604  14.699  21.148  0.00  0.00    -0.365 N 
HETATM   10  H   UNL     1      12.817  15.692  21.152  0.00  0.00     0.165 HD
HETATM   11  C   UNL     1      13.401  13.713  21.666  0.00  0.00     0.096 A 
HETATM   12  C   UNL     1      12.763  12.494  21.513  0.00  0.00    -0.030 A 
ENDROOT
BRANCH   5  13
HETATM   13  O   UNL     1       8.197  14.769  19.184  0.00  0.00    -0.359 OA
HETATM   14  H   UNL     1       7.736  15.325  19.834  0.00  0.00     0.217 HD
ENDBRANCH   5  13
BRANCH  12  15
HETATM   15  C   UNL     1      13.315  11.197  22.036  0.00  0.00     0.041 C 
BRANCH  15  16
HETATM   16  C   UNL     1      12.484  10.515  23.150  0.00  0.00     0.006 C 
BRANCH  16  17
HETATM   17  C   UNL     1      12.363  11.335  24.475  0.00  0.00     0.028 C 
BRANCH  17  18
HETATM   18  C   UNL     1      10.946  11.852  24.611  0.00  0.00     0.235 C 
BRANCH  18  19
HETATM   19  N   UNL     1      10.735  13.293  25.045  0.00  0.00    -0.068 N 
HETATM   20  H   UNL     1      11.637  13.635  25.424  0.00  0.00     0.280 HD
HETATM   21  C   UNL     1       9.717  13.301  26.208  0.00  0.00     0.262 C 
HETATM   22  C   UNL     1       8.321  12.853  25.691  0.00  0.00     0.263 C 
HETATM   23  N   UNL     1       7.877  13.670  24.473  0.00  0.00    -0.057 N 
HETATM   24  C   UNL     1       8.932  13.897  23.383  0.00  0.00     0.263 C 
HETATM   25  H   UNL     1       7.161  13.062  24.042  0.00  0.00     0.281 HD
HETATM   26  C   UNL     1      10.287  14.309  23.994  0.00  0.00     0.262 C 
BRANCH  23  27
HETATM   27  C   UNL     1       7.121  14.950  24.748  0.00  0.00     0.233 C 
HETATM   28  C   UNL     1       6.161  14.814  25.904  0.00  0.00     0.007 C 
HETATM   29  C   UNL     1       4.841  14.991  25.783  0.00  0.00    -0.007 C 
HETATM   30  C   UNL     1       4.266  15.534  24.522  0.00  0.00     0.123 C 
HETATM   31  C   UNL     1       2.845  15.065  24.248  0.00  0.00    -0.008 C 
HETATM   32  C   UNL     1       5.151  15.528  23.317  0.00  0.00    -0.007 C 
HETATM   33  N   UNL     1       1.668  14.676  24.021  0.00  0.00    -0.101 N 
HETATM   34  C   UNL     1       6.462  15.338  23.442  0.00  0.00     0.007 C 
ENDBRANCH  23  27
ENDBRANCH  18  19
ENDBRANCH  17  18
ENDBRANCH  16  17
ENDBRANCH  15  16
ENDBRANCH  12  15
TORSDOF 7
ENDMDL
MODEL 5
REMARK VINA RESULT:    -8.172      3.943      9.982
REMARK INTER + INTRA:         -12.506
REMARK INTER:                 -11.304
REMARK INTRA:                  -1.202
REMARK UNBOUND:                -1.229
REMARK  7 active torsions:
REMARK  status: ('A' for Active; 'I' for Inactive)
REMARK    1  A    between atoms: C_5  and  O_6 
REMARK    2  A    between atoms: C_13  and  C_14 
REMARK    3  A    between atoms: C_14  and  C_15 
REMARK    4  A    between atoms: C_15  and  C_16 
REMARK    5  A    between atoms: C_16  and  C_17 
REMARK    6  A    between atoms: C_17  and  N_18 
REMARK    7  A    between atoms: N_22  and  C_26 
ROOT
HETATM    1  N   UNL     1       7.510  15.706  21.592  0.00  0.00    -0.191 NA
HETATM    2  C   UNL     1       8.571  15.274  21.421  0.00  0.00     0.102 C 
HETATM    3  C   UNL     1       9.899  14.743  21.237  0.00  0.00     0.078 A 
HETATM    4  C   UNL     1      10.184  13.440  21.723  0.00  0.00     0.039 A 
HETATM    5  C   UNL     1      10.901  15.494  20.622  0.00  0.00     0.088 A 
HETATM    6  C   UNL     1      12.196  14.981  20.503  0.00  0.00     0.068 A 
HETATM    7  C   UNL     1      12.456  13.708  21.010  0.00  0.00     0.045 A 
HETATM    8  C   UNL     1      11.488  12.895  21.617  0.00  0.00    -0.000 A 
HETATM    9  N   UNL     1      13.647  13.022  21.051  0.00  0.00    -0.365 N 
HETATM   10  H   UNL     1      14.531  13.393  20.714  0.00  0.00     0.165 HD
HETATM   11  C   UNL     1      13.477  11.809  21.663  0.00  0.00     0.096 A 
HETATM   12  C   UNL     1      12.147  11.668  22.018  0.00  0.00    -0.030 A 
ENDROOT
BRANCH   5  13
HETATM   13  O   UNL     1      10.731  16.750  20.115  0.00  0.00    -0.359 OA
HETATM   14  H   UNL     1       9.838  17.102  20.270  0.00  0.00     0.217 HD
ENDBRANCH   5  13
BRANCH  12  15
HETATM   15  C   UNL     1      11.610  10.487  22.778  0.00  0.00     0.041 C 
BRANCH  15  16
HETATM   16  C   UNL     1      11.609  10.626  24.320  0.00  0.00     0.006 C 
BRANCH  16  17
HETATM   17  C   UNL     1      10.203  10.878  24.956  0.00  0.00     0.028 C 
BRANCH  17  18
HETATM   18  C   UNL     1       9.968  12.370  25.065  0.00  0.00     0.235 C 
BRANCH  18  19
HETATM   19  N   UNL     1       9.043  12.884  26.157  0.00  0.00    -0.068 N 
HETATM   20  H   UNL     1       9.407  12.527  27.060  0.00  0.00     0.280 HD
HETATM   21  C   UNL     1       7.649  12.250  25.943  0.00  0.00     0.262 C 
HETATM   22  C   UNL     1       7.020  12.791  24.628  0.00  0.00     0.263 C 
HETATM   23  N   UNL     1       7.019  14.323  24.587  0.00  0.00    -0.057 N 
HETATM   24  C   UNL     1       8.315  15.017  25.021  0.00  0.00     0.263 C 
HETATM   25  H   UNL     1       6.923  14.522  23.578  0.00  0.00     0.281 HD
HETATM   26  C   UNL     1       8.877  14.395  26.315  0.00  0.00     0.262 C 
BRANCH  23  27
HETATM   27  C   UNL     1       5.820  15.021  25.189  0.00  0.00     0.233 C 
HETATM   28  C   UNL     1       4.892  14.065  25.897  0.00  0.00     0.007 C 
HETATM   29  C   UNL     1       3.616  13.887  25.542  0.00  0.00    -0.007 C 
HETATM   30  C   UNL     1       2.981  14.783  24.538  0.00  0.00     0.123 C 
HETATM   31  C   UNL     1       1.864  14.120  23.748  0.00  0.00    -0.008 C 
HETATM   32  C   UNL     1       3.896  15.625  23.708  0.00  0.00    -0.007 C 
HETATM   33  N   UNL     1       0.939  13.570  23.091  0.00  0.00    -0.101 N 
HETATM   34  C   UNL     1       5.169  15.789  24.059  0.00  0.00     0.007 C 
ENDBRANCH  23  27
ENDBRANCH  18  19
ENDBRANCH  17  18
ENDBRANCH  16  17
ENDBRANCH  15  16
ENDBRANCH  12  15
TORSDOF 7
ENDMDL
MODEL 6
REMARK VINA RESULT:    -8.155      4.095      7.207
REMARK INTER + INTRA:         -12.483
REMARK INTER:                 -10.428
REMARK INTRA:                  -2.055
REMARK UNBOUND:                -1.229
REMARK  7 active torsions:
REMARK  status: ('A' for Active; 'I' for Inactive)
REMARK    1  A    between atoms: C_5  and  O_6 
REMARK    2  A    between atoms: C_13  and  C_14 
REMARK    3  A    between atoms: C_14  and  C_15 
REMARK    4  A    between atoms: C_15  and  C_16 
REMARK    5  A    between atoms: C_16  and  C_17 
REMARK    6  A    between atoms: C_17  and  N_18 
REMARK    7  A    between atoms: N_22  and  C_26 
ROOT
HETATM    1  N   UNL     1       9.965  15.549  20.312  0.00  0.00    -0.191 NA
HETATM    2  C   UNL     1       9.469  15.299  21.329  0.00  0.00     0.102 C 
HETATM    3  C   UNL     1       8.856  15.017  22.602  0.00  0.00     0.078 A 
HETATM    4  C   UNL     1       7.478  15.314  22.774  0.00  0.00     0.039 A 
HETATM    5  C   UNL     1       9.593  14.491  23.663  0.00  0.00     0.088 A 
HETATM    6  C   UNL     1       8.991  14.276  24.906  0.00  0.00     0.068 A 
HETATM    7  C   UNL     1       7.642  14.599  25.055  0.00  0.00     0.045 A 
HETATM    8  C   UNL     1       6.841  15.109  24.024  0.00  0.00    -0.000 A 
HETATM    9  N   UNL     1       6.856  14.522  26.181  0.00  0.00    -0.365 N 
HETATM   10  H   UNL     1       7.191  14.220  27.091  0.00  0.00     0.165 HD
HETATM   11  C   UNL     1       5.590  14.966  25.908  0.00  0.00     0.096 A 
HETATM   12  C   UNL     1       5.518  15.324  24.574  0.00  0.00    -0.030 A 
ENDROOT
BRANCH   5  13
HETATM   13  O   UNL     1      10.917  14.163  23.601  0.00  0.00    -0.359 OA
HETATM   14  H   UNL     1      11.305  13.988  24.475  0.00  0.00     0.217 HD
ENDBRANCH   5  13
BRANCH  12  15
HETATM   15  C   UNL     1       4.295  15.927  23.940  0.00  0.00     0.041 C 
BRANCH  15  16
HETATM   16  C   UNL     1       2.941  15.325  24.386  0.00  0.00     0.006 C 
BRANCH  16  17
HETATM   17  C   UNL     1       2.490  14.059  23.589  0.00  0.00     0.028 C 
BRANCH  17  18
HETATM   18  C   UNL     1       2.786  12.822  24.412  0.00  0.00     0.235 C 
BRANCH  18  19
HETATM   19  N   UNL     1       3.147  11.535  23.689  0.00  0.00    -0.068 N 
HETATM   20  H   UNL     1       2.258  11.077  23.417  0.00  0.00     0.280 HD
HETATM   21  C   UNL     1       3.855  10.600  24.697  0.00  0.00     0.262 C 
HETATM   22  C   UNL     1       5.228  11.205  25.103  0.00  0.00     0.263 C 
HETATM   23  N   UNL     1       6.079  11.554  23.877  0.00  0.00    -0.057 N 
HETATM   24  C   UNL     1       5.361  12.281  22.734  0.00  0.00     0.263 C 
HETATM   25  H   UNL     1       6.754  12.238  24.259  0.00  0.00     0.281 HD
HETATM   26  C   UNL     1       4.000  11.628  22.424  0.00  0.00     0.262 C 
BRANCH  23  27
HETATM   27  C   UNL     1       6.969  10.462  23.330  0.00  0.00     0.233 C 
HETATM   28  C   UNL     1       7.634   9.659  24.422  0.00  0.00     0.007 C 
HETATM   29  C   UNL     1       8.960   9.577  24.566  0.00  0.00    -0.007 C 
HETATM   30  C   UNL     1       9.867  10.123  23.519  0.00  0.00     0.123 C 
HETATM   31  C   UNL     1      11.212  10.584  24.058  0.00  0.00    -0.008 C 
HETATM   32  C   UNL     1       9.261  11.055  22.519  0.00  0.00    -0.007 C 
HETATM   33  N   UNL     1      12.327  10.967  24.504  0.00  0.00    -0.101 N 
HETATM   34  C   UNL     1       7.939  11.142  22.388  0.00  0.00     0.007 C 
ENDBRANCH  23  27
ENDBRANCH  18  19
ENDBRANCH  17  18
ENDBRANCH  16  17
ENDBRANCH  15  16
ENDBRANCH  12  15
TORSDOF 7
ENDMDL
MODEL 7
REMARK VINA RESULT:    -8.121      3.944      9.529
REMARK INTER + INTRA:         -12.436
REMARK INTER:                 -11.247
REMARK INTRA:                  -1.190
REMARK UNBOUND:                -1.229
REMARK  7 active torsions:
REMARK  status: ('A' for Active; 'I' for Inactive)
REMARK    1  A    between atoms: C_5  and  O_6 
REMARK    2  A    between atoms: C_13  and  C_14 
REMARK    3  A    between atoms: C_14  and  C_15 
REMARK    4  A    between atoms: C_15  and  C_16 
REMARK    5  A    between atoms: C_16  and  C_17 
REMARK    6  A    between atoms: C_17  and  N_18 
REMARK    7  A    between atoms: N_22  and  C_26 
ROOT
HETATM    1  N   UNL     1       8.349  14.730  19.274  0.00  0.00    -0.191 NA
HETATM    2  C   UNL     1       8.995  14.763  20.236  0.00  0.00     0.102 C 
HETATM    3  C   UNL     1       9.772  14.800  21.449  0.00  0.00     0.078 A 
HETATM    4  C   UNL     1      10.116  13.573  22.074  0.00  0.00     0.039 A 
HETATM    5  C   UNL     1      10.160  16.010  22.026  0.00  0.00     0.088 A 
HETATM    6  C   UNL     1      10.867  16.024  23.231  0.00  0.00     0.068 A 
HETATM    7  C   UNL     1      11.171  14.805  23.838  0.00  0.00     0.045 A 
HETATM    8  C   UNL     1      10.830  13.557  23.299  0.00  0.00    -0.000 A 
HETATM    9  N   UNL     1      11.808  14.572  25.034  0.00  0.00    -0.365 N 
HETATM   10  H   UNL     1      12.131  15.303  25.660  0.00  0.00     0.165 HD
HETATM   11  C   UNL     1      11.880  13.226  25.280  0.00  0.00     0.096 A 
HETATM   12  C   UNL     1      11.306  12.545  24.221  0.00  0.00    -0.030 A 
ENDROOT
BRANCH   5  13
HETATM   13  O   UNL     1       9.888  17.242  21.503  0.00  0.00    -0.359 OA
HETATM   14  H   UNL     1       8.937  17.400  21.384  0.00  0.00     0.217 HD
ENDBRANCH   5  13
BRANCH  12  15
HETATM   15  C   UNL     1      11.142  11.051  24.184  0.00  0.00     0.041 C 
BRANCH  15  16
HETATM   16  C   UNL     1      10.069  10.470  25.136  0.00  0.00     0.006 C 
BRANCH  16  17
HETATM   17  C   UNL     1       8.847   9.806  24.421  0.00  0.00     0.028 C 
BRANCH  17  18
HETATM   18  C   UNL     1       8.004  10.886  23.776  0.00  0.00     0.235 C 
BRANCH  18  19
HETATM   19  N   UNL     1       6.813  11.436  24.544  0.00  0.00    -0.068 N 
HETATM   20  H   UNL     1       6.290  10.625  24.921  0.00  0.00     0.280 HD
HETATM   21  C   UNL     1       5.884  12.155  23.538  0.00  0.00     0.262 C 
HETATM   22  C   UNL     1       6.590  13.420  22.977  0.00  0.00     0.263 C 
HETATM   23  N   UNL     1       7.109  14.326  24.099  0.00  0.00    -0.057 N 
HETATM   24  C   UNL     1       7.841  13.630  25.253  0.00  0.00     0.263 C 
HETATM   25  H   UNL     1       7.827  14.893  23.618  0.00  0.00     0.281 HD
HETATM   26  C   UNL     1       7.080  12.374  25.721  0.00  0.00     0.262 C 
BRANCH  23  27
HETATM   27  C   UNL     1       6.151  15.367  24.634  0.00  0.00     0.233 C 
HETATM   28  C   UNL     1       5.424  14.898  25.871  0.00  0.00     0.007 C 
HETATM   29  C   UNL     1       4.094  14.785  25.938  0.00  0.00    -0.007 C 
HETATM   30  C   UNL     1       3.236  15.311  24.841  0.00  0.00     0.123 C 
HETATM   31  C   UNL     1       1.921  14.566  24.684  0.00  0.00    -0.008 C 
HETATM   32  C   UNL     1       3.913  15.630  23.547  0.00  0.00    -0.007 C 
HETATM   33  N   UNL     1       0.830  13.947  24.552  0.00  0.00    -0.101 N 
HETATM   34  C   UNL     1       5.239  15.729  23.483  0.00  0.00     0.007 C 
ENDBRANCH  23  27
ENDBRANCH  18  19
ENDBRANCH  17  18
ENDBRANCH  16  17
ENDBRANCH  15  16
ENDBRANCH  12  15
TORSDOF 7
ENDMDL
MODEL 8
REMARK VINA RESULT:    -7.988      3.486      9.469
REMARK INTER + INTRA:         -12.253
REMARK INTER:                 -11.024
REMARK INTRA:                  -1.229
REMARK UNBOUND:                -1.229
REMARK  7 active torsions:
REMARK  status: ('A' for Active; 'I' for Inactive)
REMARK    1  A    between atoms: C_5  and  O_6 
REMARK    2  A    between atoms: C_13  and  C_14 
REMARK    3  A    between atoms: C_14  and  C_15 
REMARK    4  A    between atoms: C_15  and  C_16 
REMARK    5  A    between atoms: C_16  and  C_17 
REMARK    6  A    between atoms: C_17  and  N_18 
REMARK    7  A    between atoms: N_22  and  C_26 
ROOT
HETATM    1  N   UNL     1       6.172  10.880  21.338  0.00  0.00    -0.191 NA
HETATM    2  C   UNL     1       7.276  11.119  21.076  0.00  0.00     0.102 C 
HETATM    3  C   UNL     1       8.647  11.440  20.770  0.00  0.00     0.078 A 
HETATM    4  C   UNL     1       9.663  11.002  21.661  0.00  0.00     0.039 A 
HETATM    5  C   UNL     1       8.983  12.190  19.643  0.00  0.00     0.088 A 
HETATM    6  C   UNL     1      10.314  12.536  19.394  0.00  0.00     0.068 A 
HETATM    7  C   UNL     1      11.290  12.113  20.298  0.00  0.00     0.045 A 
HETATM    8  C   UNL     1      11.021  11.339  21.435  0.00  0.00    -0.000 A 
HETATM    9  N   UNL     1      12.641  12.369  20.289  0.00  0.00    -0.365 N 
HETATM   10  H   UNL     1      13.109  12.943  19.595  0.00  0.00     0.165 HD
HETATM   11  C   UNL     1      13.241  11.793  21.378  0.00  0.00     0.096 A 
HETATM   12  C   UNL     1      12.282  11.121  22.115  0.00  0.00    -0.030 A 
ENDROOT
BRANCH   5  13
HETATM   13  O   UNL     1       8.087  12.651  18.722  0.00  0.00    -0.359 OA
HETATM   14  H   UNL     1       8.253  12.308  17.828  0.00  0.00     0.217 HD
ENDBRANCH   5  13
BRANCH  12  15
HETATM   15  C   UNL     1      12.569  10.431  23.420  0.00  0.00     0.041 C 
BRANCH  15  16
HETATM   16  C   UNL     1      11.902  11.056  24.670  0.00  0.00     0.006 C 
BRANCH  16  17
HETATM   17  C   UNL     1      11.779  12.614  24.639  0.00  0.00     0.028 C 
BRANCH  17  18
HETATM   18  C   UNL     1      10.411  13.014  25.152  0.00  0.00     0.235 C 
BRANCH  18  19
HETATM   19  N   UNL     1       9.959  14.454  24.974  0.00  0.00    -0.068 N 
HETATM   20  H   UNL     1      10.811  15.043  24.951  0.00  0.00     0.280 HD
HETATM   21  C   UNL     1       9.153  14.863  26.228  0.00  0.00     0.262 C 
HETATM   22  C   UNL     1       7.827  14.054  26.291  0.00  0.00     0.263 C 
HETATM   23  N   UNL     1       7.035  14.160  24.982  0.00  0.00    -0.057 N 
HETATM   24  C   UNL     1       7.837  13.994  23.686  0.00  0.00     0.263 C 
HETATM   25  H   UNL     1       6.412  13.336  25.029  0.00  0.00     0.281 HD
HETATM   26  C   UNL     1       9.145  14.809  23.730  0.00  0.00     0.262 C 
BRANCH  23  27
HETATM   27  C   UNL     1       6.068  15.315  24.860  0.00  0.00     0.233 C 
HETATM   28  C   UNL     1       5.061  15.344  25.984  0.00  0.00     0.007 C 
HETATM   29  C   UNL     1       3.742  15.250  25.786  0.00  0.00    -0.007 C 
HETATM   30  C   UNL     1       3.180  15.312  24.409  0.00  0.00     0.123 C 
HETATM   31  C   UNL     1       1.875  14.549  24.248  0.00  0.00    -0.008 C 
HETATM   32  C   UNL     1       4.139  15.123  23.278  0.00  0.00    -0.007 C 
HETATM   33  N   UNL     1       0.794  13.915  24.114  0.00  0.00    -0.101 N 
HETATM   34  C   UNL     1       5.452  15.204  23.483  0.00  0.00     0.007 C 
ENDBRANCH  23  27
ENDBRANCH  18  19
ENDBRANCH  17  18
ENDBRANCH  16  17
ENDBRANCH  15  16
ENDBRANCH  12  15
TORSDOF 7
ENDMDL
MODEL 9
REMARK VINA RESULT:    -7.944      4.079      8.561
REMARK INTER + INTRA:         -12.191
REMARK INTER:                 -10.134
REMARK INTRA:                  -2.057
REMARK UNBOUND:                -1.229
REMARK  7 active torsions:
REMARK  status: ('A' for Active; 'I' for Inactive)
REMARK    1  A    between atoms: C_5  and  O_6 
REMARK    2  A    between atoms: C_13  and  C_14 
REMARK    3  A    between atoms: C_14  and  C_15 
REMARK    4  A    between atoms: C_15  and  C_16 
REMARK    5  A    between atoms: C_16  and  C_17 
REMARK    6  A    between atoms: C_17  and  N_18 
REMARK    7  A    between atoms: N_22  and  C_26 
ROOT
HETATM    1  N   UNL     1       6.627  14.966  26.572  0.00  0.00    -0.191 NA
HETATM    2  C   UNL     1       7.377  14.134  26.270  0.00  0.00     0.102 C 
HETATM    3  C   UNL     1       8.309  13.113  25.866  0.00  0.00     0.078 A 
HETATM    4  C   UNL     1       9.690  13.438  25.802  0.00  0.00     0.039 A 
HETATM    5  C   UNL     1       7.877  11.834  25.514  0.00  0.00     0.088 A 
HETATM    6  C   UNL     1       8.792  10.874  25.073  0.00  0.00     0.068 A 
HETATM    7  C   UNL     1      10.140  11.227  24.995  0.00  0.00     0.045 A 
HETATM    8  C   UNL     1      10.640  12.486  25.356  0.00  0.00    -0.000 A 
HETATM    9  N   UNL     1      11.204  10.478  24.551  0.00  0.00    -0.365 N 
HETATM   10  H   UNL     1      11.124   9.532  24.189  0.00  0.00     0.165 HD
HETATM   11  C   UNL     1      12.359  11.210  24.611  0.00  0.00     0.096 A 
HETATM   12  C   UNL     1      12.070  12.462  25.124  0.00  0.00    -0.030 A 
ENDROOT
BRANCH   5  13
HETATM   13  O   UNL     1       6.577  11.417  25.548  0.00  0.00    -0.359 OA
HETATM   14  H   UNL     1       6.100  11.729  26.336  0.00  0.00     0.217 HD
ENDBRANCH   5  13
BRANCH  12  15
HETATM   15  C   UNL     1      13.089  13.560  25.262  0.00  0.00     0.041 C 
BRANCH  15  16
HETATM   16  C   UNL     1      13.966  13.821  24.013  0.00  0.00     0.006 C 
BRANCH  16  17
HETATM   17  C   UNL     1      13.250  14.590  22.856  0.00  0.00     0.028 C 
BRANCH  17  18
HETATM   18  C   UNL     1      12.763  13.594  21.825  0.00  0.00     0.235 C 
BRANCH  18  19
HETATM   19  N   UNL     1      11.753  14.055  20.787  0.00  0.00    -0.068 N 
HETATM   20  H   UNL     1      12.288  14.359  19.953  0.00  0.00     0.280 HD
HETATM   21  C   UNL     1      11.027  15.302  21.343  0.00  0.00     0.262 C 
HETATM   22  C   UNL     1      10.156  14.903  22.567  0.00  0.00     0.263 C 
HETATM   23  N   UNL     1       9.220  13.733  22.241  0.00  0.00    -0.057 N 
HETATM   24  C   UNL     1       9.839  12.559  21.473  0.00  0.00     0.263 C 
HETATM   25  H   UNL     1       8.990  13.360  23.177  0.00  0.00     0.281 HD
HETATM   26  C   UNL     1      10.706  13.055  20.299  0.00  0.00     0.262 C 
BRANCH  23  27
HETATM   27  C   UNL     1       7.866  14.082  21.668  0.00  0.00     0.233 C 
HETATM   28  C   UNL     1       7.255  15.293  22.330  0.00  0.00     0.007 C 
HETATM   29  C   UNL     1       6.090  15.259  22.984  0.00  0.00    -0.007 C 
HETATM   30  C   UNL     1       5.226  14.049  22.923  0.00  0.00     0.123 C 
HETATM   31  C   UNL     1       4.359  13.855  24.157  0.00  0.00    -0.008 C 
HETATM   32  C   UNL     1       5.859  12.791  22.421  0.00  0.00    -0.007 C 
HETATM   33  N   UNL     1       3.642  13.693  25.181  0.00  0.00    -0.101 N 
HETATM   34  C   UNL     1       7.025  12.829  21.781  0.00  0.00     0.007 C 
ENDBRANCH  23  27
ENDBRANCH  18  19
ENDBRANCH  17  18
ENDBRANCH  16  17
ENDBRANCH  15  16
ENDBRANCH  12  15
TORSDOF 7
ENDMDL
