MODEL 1
REMARK VINA RESULT:    -8.280      0.000      0.000
REMARK INTER + INTRA:         -11.532
REMARK INTER:                 -10.401
REMARK INTRA:                  -1.131
REMARK UNBOUND:                -1.074
REMARK  5 active torsions:
REMARK  status: ('A' for Active; 'I' for Inactive)
REMARK    1  A    between atoms: C_5  and  N_6 
REMARK       I    between atoms: N_6  and  C_7 
REMARK    2  A    between atoms: C_7  and  C_9 
REMARK    3  A    between atoms: C_10  and  O_11 
REMARK    4  A    between atoms: C_17  and  C_18 
REMARK    5  A    between atoms: C_18  and  C_19 
ROOT
HETATM    1  C   UNL     1       4.096   6.981  22.806  0.00  0.00     0.066 C 
HETATM    2  C   UNL     1       5.425   6.531  22.819  0.00  0.00     0.083 C 
HETATM    3  C   UNL     1       6.235   6.572  21.672  0.00  0.00     0.069 C 
HETATM    4  C   UNL     1       5.662   7.084  20.500  0.00  0.00     0.065 A 
HETATM    5  N   UNL     1       6.165   7.283  19.251  0.00  0.00    -0.277 N 
HETATM    6  H   UNL     1       7.109   7.101  18.928  0.00  0.00     0.189 HD
HETATM    7  N   UNL     1       5.290   7.816  18.381  0.00  0.00    -0.178 NA
HETATM    8  C   UNL     1       4.151   7.938  19.090  0.00  0.00     0.071 A 
HETATM    9  C   UNL     1       4.332   7.481  20.431  0.00  0.00     0.020 A 
HETATM   10  C   UNL     1       3.522   7.363  21.580  0.00  0.00     0.035 C 
ENDROOT
BRANCH   1  11
HETATM   11  C   UNL     1       3.308   7.020  24.085  0.00  0.00     0.260 C 
HETATM   12  N   UNL     1       2.914   8.262  24.647  0.00  0.00    -0.318 N 
HETATM   13  C   UNL     1       3.460   9.530  24.142  0.00  0.00     0.159 C 
HETATM   14  O   UNL     1       3.078   5.910  24.573  0.00  0.00    -0.267 OA
BRANCH  12  15
HETATM   15  C   UNL     1       2.095   8.376  25.839  0.00  0.00     0.037 A 
HETATM   16  C   UNL     1       2.619   8.337  27.138  0.00  0.00     0.031 A 
HETATM   17  C   UNL     1       1.809   8.589  28.260  0.00  0.00     0.021 A 
HETATM   18  C   UNL     1       0.456   8.867  28.100  0.00  0.00     0.011 A 
HETATM   19 BR   UNL     1      -0.618   9.275  29.599  0.00  0.00    -0.051 Br
HETATM   20  C   UNL     1      -0.105   8.857  26.832  0.00  0.00     0.021 A 
HETATM   21  C   UNL     1       0.707   8.603  25.720  0.00  0.00     0.031 A 
ENDBRANCH  12  15
ENDBRANCH   1  11
BRANCH   2  22
HETATM   22  O   UNL     1       6.024   6.010  23.938  0.00  0.00    -0.360 OA
HETATM   23  H   UNL     1       5.312   5.634  24.502  0.00  0.00     0.217 HD
ENDBRANCH   2  22
BRANCH   8  24
HETATM   24  C   UNL     1       2.948   8.570  18.450  0.00  0.00     0.100 C 
BRANCH  24  25
HETATM   25  C   UNL     1       2.072   7.510  17.817  0.00  0.00    -0.052 C 
HETATM   26  C   UNL     1       1.390   6.527  18.550  0.00  0.00     0.014 C 
HETATM   27  C   UNL     1       0.476   5.667  17.930  0.00  0.00    -0.061 C 
HETATM   28  C   UNL     1      -0.399   4.771  18.755  0.00  0.00     0.048 C 
HETATM   29  C   UNL     1       0.359   5.683  16.537  0.00  0.00     0.007 C 
HETATM   30  C   UNL     1       1.111   6.578  15.781  0.00  0.00     0.001 C 
HETATM   31  C   UNL     1       1.949   7.495  16.417  0.00  0.00     0.007 C 
ENDBRANCH  24  25
ENDBRANCH   8  24
TORSDOF 5
ENDMDL
MODEL 2
REMARK VINA RESULT:    -8.236      1.075      1.380
REMARK INTER + INTRA:         -11.476
REMARK INTER:                 -10.365
REMARK INTRA:                  -1.111
REMARK UNBOUND:                -1.074
REMARK  5 active torsions:
REMARK  status: ('A' for Active; 'I' for Inactive)
REMARK    1  A    between atoms: C_5  and  N_6 
REMARK       I    between atoms: N_6  and  C_7 
REMARK    2  A    between atoms: C_7  and  C_9 
REMARK    3  A    between atoms: C_10  and  O_11 
REMARK    4  A    between atoms: C_17  and  C_18 
REMARK    5  A    between atoms: C_18  and  C_19 
ROOT
HETATM    1  C   UNL     1       4.405   6.532  22.738  0.00  0.00     0.066 C 
HETATM    2  C   UNL     1       5.766   6.215  22.614  0.00  0.00     0.083 C 
HETATM    3  C   UNL     1       6.493   6.501  21.447  0.00  0.00     0.069 C 
HETATM    4  C   UNL     1       5.803   7.121  20.397  0.00  0.00     0.065 A 
HETATM    5  N   UNL     1       6.205   7.548  19.169  0.00  0.00    -0.277 N 
HETATM    6  H   UNL     1       7.138   7.507  18.775  0.00  0.00     0.189 HD
HETATM    7  N   UNL     1       5.232   8.116  18.435  0.00  0.00    -0.178 NA
HETATM    8  C   UNL     1       4.135   8.023  19.211  0.00  0.00     0.071 A 
HETATM    9  C   UNL     1       4.442   7.394  20.456  0.00  0.00     0.020 A 
HETATM   10  C   UNL     1       3.722   7.032  21.615  0.00  0.00     0.035 C 
ENDROOT
BRANCH   1  11
HETATM   11  C   UNL     1       3.700   6.307  24.046  0.00  0.00     0.260 C 
HETATM   12  N   UNL     1       3.183   7.407  24.779  0.00  0.00    -0.318 N 
HETATM   13  C   UNL     1       3.523   8.789  24.415  0.00  0.00     0.159 C 
HETATM   14  O   UNL     1       3.650   5.125  24.399  0.00  0.00    -0.267 OA
BRANCH  12  15
HETATM   15  C   UNL     1       2.432   7.261  26.013  0.00  0.00     0.037 A 
HETATM   16  C   UNL     1       1.077   6.911  26.051  0.00  0.00     0.031 A 
HETATM   17  C   UNL     1       0.424   6.645  27.268  0.00  0.00     0.021 A 
HETATM   18  C   UNL     1       1.116   6.744  28.470  0.00  0.00     0.011 A 
HETATM   19 BR   UNL     1       0.261   6.320  30.100  0.00  0.00    -0.051 Br
HETATM   20  C   UNL     1       2.444   7.144  28.471  0.00  0.00     0.021 A 
HETATM   21  C   UNL     1       3.086   7.409  27.255  0.00  0.00     0.031 A 
ENDBRANCH  12  15
ENDBRANCH   1  11
BRANCH   2  22
HETATM   22  O   UNL     1       6.480   5.596  23.610  0.00  0.00    -0.360 OA
HETATM   23  H   UNL     1       6.633   6.263  24.316  0.00  0.00     0.217 HD
ENDBRANCH   2  22
BRANCH   8  24
HETATM   24  C   UNL     1       2.842   8.622  18.737  0.00  0.00     0.100 C 
BRANCH  24  25
HETATM   25  C   UNL     1       2.051   7.604  17.944  0.00  0.00    -0.052 C 
HETATM   26  C   UNL     1       1.312   6.566  18.532  0.00  0.00     0.014 C 
HETATM   27  C   UNL     1       0.478   5.747  17.762  0.00  0.00    -0.061 C 
HETATM   28  C   UNL     1      -0.463   4.788  18.428  0.00  0.00     0.048 C 
HETATM   29  C   UNL     1       0.503   5.862  16.369  0.00  0.00     0.007 C 
HETATM   30  C   UNL     1       1.315   6.814  15.759  0.00  0.00     0.001 C 
HETATM   31  C   UNL     1       2.072   7.689  16.541  0.00  0.00     0.007 C 
ENDBRANCH  24  25
ENDBRANCH   8  24
TORSDOF 5
ENDMDL
MODEL 3
REMARK VINA RESULT:    -8.030      3.698      8.143
REMARK INTER + INTRA:         -11.216
REMARK INTER:                 -10.277
REMARK INTRA:                  -0.939
REMARK UNBOUND:                -1.074
REMARK  5 active torsions:
REMARK  status: ('A' for Active; 'I' for Inactive)
REMARK    1  A    between atoms: C_5  and  N_6 
REMARK       I    between atoms: N_6  and  C_7 
REMARK    2  A    between atoms: C_7  and  C_9 
REMARK    3  A    between atoms: C_10  and  O_11 
REMARK    4  A    between atoms: C_17  and  C_18 
REMARK    5  A    between atoms: C_18  and  C_19 
ROOT
HETATM    1  C   UNL     1       2.239   7.875  25.584  0.00  0.00     0.066 C 
HETATM    2  C   UNL     1       3.108   7.629  26.657  0.00  0.00     0.083 C 
HETATM    3  C   UNL     1       2.800   8.024  27.969  0.00  0.00     0.069 C 
HETATM    4  C   UNL     1       1.580   8.682  28.172  0.00  0.00     0.065 A 
HETATM    5  N   UNL     1       0.979   9.164  29.293  0.00  0.00    -0.277 N 
HETATM    6  H   UNL     1       1.320   9.116  30.247  0.00  0.00     0.189 HD
HETATM    7  N   UNL     1      -0.220   9.733  29.078  0.00  0.00    -0.178 NA
HETATM    8  C   UNL     1      -0.392   9.647  27.745  0.00  0.00     0.071 A 
HETATM    9  C   UNL     1       0.721   9.000  27.126  0.00  0.00     0.020 A 
HETATM   10  C   UNL     1       1.089   8.653  25.809  0.00  0.00     0.035 C 
ENDROOT
BRANCH   1  11
HETATM   11  C   UNL     1       2.562   7.333  24.220  0.00  0.00     0.260 C 
HETATM   12  N   UNL     1       3.428   8.048  23.352  0.00  0.00    -0.318 N 
HETATM   13  C   UNL     1       3.836   9.428  23.653  0.00  0.00     0.159 C 
HETATM   14  O   UNL     1       1.998   6.269  23.950  0.00  0.00    -0.267 OA
BRANCH  12  15
HETATM   15  C   UNL     1       3.839   7.555  22.050  0.00  0.00     0.037 A 
HETATM   16  C   UNL     1       4.123   6.207  21.794  0.00  0.00     0.031 A 
HETATM   17  C   UNL     1       4.382   5.750  20.489  0.00  0.00     0.021 A 
HETATM   18  C   UNL     1       4.380   6.641  19.422  0.00  0.00     0.011 A 
HETATM   19 BR   UNL     1       4.659   6.019  17.660  0.00  0.00    -0.051 Br
HETATM   20  C   UNL     1       4.160   7.990  19.650  0.00  0.00     0.021 A 
HETATM   21  C   UNL     1       3.904   8.438  20.952  0.00  0.00     0.031 A 
ENDBRANCH  12  15
ENDBRANCH   1  11
BRANCH   2  22
HETATM   22  O   UNL     1       4.318   7.000  26.506  0.00  0.00    -0.360 OA
HETATM   23  H   UNL     1       5.016   7.691  26.571  0.00  0.00     0.217 HD
ENDBRANCH   2  22
BRANCH   8  24
HETATM   24  C   UNL     1      -1.675  10.133  27.133  0.00  0.00     0.100 C 
BRANCH  24  25
HETATM   25  C   UNL     1      -1.388  10.965  25.902  0.00  0.00    -0.052 C 
HETATM   26  C   UNL     1      -0.542  12.085  25.901  0.00  0.00     0.014 C 
HETATM   27  C   UNL     1      -0.194  12.727  24.707  0.00  0.00    -0.061 C 
HETATM   28  C   UNL     1       0.873  13.780  24.698  0.00  0.00     0.048 C 
HETATM   29  C   UNL     1      -0.821  12.345  23.517  0.00  0.00     0.007 C 
HETATM   30  C   UNL     1      -1.749  11.306  23.516  0.00  0.00     0.001 C 
HETATM   31  C   UNL     1      -2.019  10.612  24.696  0.00  0.00     0.007 C 
ENDBRANCH  24  25
ENDBRANCH   8  24
TORSDOF 5
ENDMDL
MODEL 4
REMARK VINA RESULT:    -7.860      4.089      8.106
REMARK INTER + INTRA:         -11.002
REMARK INTER:                 -10.085
REMARK INTRA:                  -0.917
REMARK UNBOUND:                -1.074
REMARK  5 active torsions:
REMARK  status: ('A' for Active; 'I' for Inactive)
REMARK    1  A    between atoms: C_5  and  N_6 
REMARK       I    between atoms: N_6  and  C_7 
REMARK    2  A    between atoms: C_7  and  C_9 
REMARK    3  A    between atoms: C_10  and  O_11 
REMARK    4  A    between atoms: C_17  and  C_18 
REMARK    5  A    between atoms: C_18  and  C_19 
ROOT
HETATM    1  C   UNL     1       2.330   8.070  25.470  0.00  0.00     0.066 C 
HETATM    2  C   UNL     1       3.015   7.885  26.681  0.00  0.00     0.083 C 
HETATM    3  C   UNL     1       2.472   8.291  27.911  0.00  0.00     0.069 C 
HETATM    4  C   UNL     1       1.209   8.897  27.887  0.00  0.00     0.065 A 
HETATM    5  N   UNL     1       0.407   9.372  28.878  0.00  0.00    -0.277 N 
HETATM    6  H   UNL     1       0.583   9.358  29.877  0.00  0.00     0.189 HD
HETATM    7  N   UNL     1      -0.760   9.882  28.449  0.00  0.00    -0.178 NA
HETATM    8  C   UNL     1      -0.700   9.762  27.108  0.00  0.00     0.071 A 
HETATM    9  C   UNL     1       0.527   9.155  26.704  0.00  0.00     0.020 A 
HETATM   10  C   UNL     1       1.127   8.799  25.477  0.00  0.00     0.035 C 
ENDROOT
BRANCH   1  11
HETATM   11  C   UNL     1       2.902   7.518  24.195  0.00  0.00     0.260 C 
HETATM   12  N   UNL     1       2.822   6.128  23.916  0.00  0.00    -0.318 N 
HETATM   13  C   UNL     1       2.404   5.170  24.949  0.00  0.00     0.159 C 
HETATM   14  O   UNL     1       3.442   8.361  23.474  0.00  0.00    -0.267 OA
BRANCH  12  15
HETATM   15  C   UNL     1       3.290   5.534  22.678  0.00  0.00     0.037 A 
HETATM   16  C   UNL     1       4.622   5.158  22.461  0.00  0.00     0.031 A 
HETATM   17  C   UNL     1       5.004   4.459  21.302  0.00  0.00     0.021 A 
HETATM   18  C   UNL     1       4.061   4.143  20.331  0.00  0.00     0.011 A 
HETATM   19 BR   UNL     1       4.558   3.144  18.807  0.00  0.00    -0.051 Br
HETATM   20  C   UNL     1       2.745   4.551  20.488  0.00  0.00     0.021 A 
HETATM   21  C   UNL     1       2.372   5.248  21.644  0.00  0.00     0.031 A 
ENDBRANCH  12  15
ENDBRANCH   1  11
BRANCH   2  22
HETATM   22  O   UNL     1       4.258   7.309  26.753  0.00  0.00    -0.360 OA
HETATM   23  H   UNL     1       4.242   6.673  27.503  0.00  0.00     0.217 HD
ENDBRANCH   2  22
BRANCH   8  24
HETATM   24  C   UNL     1      -1.880  10.177  26.277  0.00  0.00     0.100 C 
BRANCH  24  25
HETATM   25  C   UNL     1      -1.460  11.194  25.237  0.00  0.00    -0.052 C 
HETATM   26  C   UNL     1      -0.520  12.207  25.479  0.00  0.00     0.014 C 
HETATM   27  C   UNL     1      -0.056  13.025  24.441  0.00  0.00    -0.061 C 
HETATM   28  C   UNL     1       1.099  13.954  24.670  0.00  0.00     0.048 C 
HETATM   29  C   UNL     1      -0.653  12.935  23.180  0.00  0.00     0.007 C 
HETATM   30  C   UNL     1      -1.666  12.008  22.950  0.00  0.00     0.001 C 
HETATM   31  C   UNL     1      -2.056  11.134  23.966  0.00  0.00     0.007 C 
ENDBRANCH  24  25
ENDBRANCH   8  24
TORSDOF 5
ENDMDL
MODEL 5
REMARK VINA RESULT:    -7.584      3.632      7.846
REMARK INTER + INTRA:         -10.653
REMARK INTER:                  -9.611
REMARK INTRA:                  -1.043
REMARK UNBOUND:                -1.074
REMARK  5 active torsions:
REMARK  status: ('A' for Active; 'I' for Inactive)
REMARK    1  A    between atoms: C_5  and  N_6 
REMARK       I    between atoms: N_6  and  C_7 
REMARK    2  A    between atoms: C_7  and  C_9 
REMARK    3  A    between atoms: C_10  and  O_11 
REMARK    4  A    between atoms: C_17  and  C_18 
REMARK    5  A    between atoms: C_18  and  C_19 
ROOT
HETATM    1  C   UNL     1       3.964   6.838  21.771  0.00  0.00     0.066 C 
HETATM    2  C   UNL     1       5.266   6.413  22.074  0.00  0.00     0.083 C 
HETATM    3  C   UNL     1       5.755   6.398  23.391  0.00  0.00     0.069 C 
HETATM    4  C   UNL     1       4.887   6.827  24.403  0.00  0.00     0.065 A 
HETATM    5  N   UNL     1       5.032   6.912  25.753  0.00  0.00    -0.277 N 
HETATM    6  H   UNL     1       5.840   6.647  26.307  0.00  0.00     0.189 HD
HETATM    7  N   UNL     1       3.947   7.373  26.399  0.00  0.00    -0.178 NA
HETATM    8  C   UNL     1       3.063   7.633  25.416  0.00  0.00     0.071 A 
HETATM    9  C   UNL     1       3.613   7.314  24.137  0.00  0.00     0.020 A 
HETATM   10  C   UNL     1       3.173   7.384  22.798  0.00  0.00     0.035 C 
ENDROOT
BRANCH   1  11
HETATM   11  C   UNL     1       3.451   6.729  20.363  0.00  0.00     0.260 C 
HETATM   12  N   UNL     1       2.524   5.712  20.013  0.00  0.00    -0.318 N 
HETATM   13  C   UNL     1       2.228   4.607  20.935  0.00  0.00     0.159 C 
HETATM   14  O   UNL     1       3.922   7.564  19.586  0.00  0.00    -0.267 OA
BRANCH  12  15
HETATM   15  C   UNL     1       1.934   5.589  18.693  0.00  0.00     0.037 A 
HETATM   16  C   UNL     1       2.388   4.678  17.731  0.00  0.00     0.031 A 
HETATM   17  C   UNL     1       1.702   4.494  16.518  0.00  0.00     0.021 A 
HETATM   18  C   UNL     1       0.558   5.234  16.240  0.00  0.00     0.011 A 
HETATM   19 BR   UNL     1      -0.405   4.939  14.643  0.00  0.00    -0.051 Br
HETATM   20  C   UNL     1       0.114   6.185  17.147  0.00  0.00     0.021 A 
HETATM   21  C   UNL     1       0.805   6.364  18.353  0.00  0.00     0.031 A 
ENDBRANCH  12  15
ENDBRANCH   1  11
BRANCH   2  22
HETATM   22  O   UNL     1       6.156   5.996  21.116  0.00  0.00    -0.360 OA
HETATM   23  H   UNL     1       6.651   5.233  21.490  0.00  0.00     0.217 HD
ENDBRANCH   2  22
BRANCH   8  24
HETATM   24  C   UNL     1       1.685   8.112  25.771  0.00  0.00     0.100 C 
BRANCH  24  25
HETATM   25  C   UNL     1       1.440   9.488  25.188  0.00  0.00    -0.052 C 
HETATM   26  C   UNL     1       0.162  10.002  24.921  0.00  0.00     0.014 C 
HETATM   27  C   UNL     1      -0.014  11.332  24.525  0.00  0.00    -0.061 C 
HETATM   28  C   UNL     1      -1.390  11.924  24.452  0.00  0.00     0.048 C 
HETATM   29  C   UNL     1       1.109  12.115  24.239  0.00  0.00     0.007 C 
HETATM   30  C   UNL     1       2.388  11.587  24.393  0.00  0.00     0.001 C 
HETATM   31  C   UNL     1       2.553  10.288  24.878  0.00  0.00     0.007 C 
ENDBRANCH  24  25
ENDBRANCH   8  24
TORSDOF 5
ENDMDL
MODEL 6
REMARK VINA RESULT:    -7.565      5.776      8.263
REMARK INTER + INTRA:         -10.630
REMARK INTER:                  -9.631
REMARK INTRA:                  -0.998
REMARK UNBOUND:                -1.074
REMARK  5 active torsions:
REMARK  status: ('A' for Active; 'I' for Inactive)
REMARK    1  A    between atoms: C_5  and  N_6 
REMARK       I    between atoms: N_6  and  C_7 
REMARK    2  A    between atoms: C_7  and  C_9 
REMARK    3  A    between atoms: C_10  and  O_11 
REMARK    4  A    between atoms: C_17  and  C_18 
REMARK    5  A    between atoms: C_18  and  C_19 
ROOT
HETATM    1  C   UNL     1       1.569   7.823  27.246  0.00  0.00     0.066 C 
HETATM    2  C   UNL     1       1.647   8.114  28.617  0.00  0.00     0.083 C 
HETATM    3  C   UNL     1       0.763   9.012  29.238  0.00  0.00     0.069 C 
HETATM    4  C   UNL     1      -0.211   9.615  28.431  0.00  0.00     0.065 A 
HETATM    5  N   UNL     1      -1.213  10.491  28.713  0.00  0.00    -0.277 N 
HETATM    6  H   UNL     1      -1.461  10.877  29.617  0.00  0.00     0.189 HD
HETATM    7  N   UNL     1      -1.961  10.838  27.651  0.00  0.00    -0.178 NA
HETATM    8  C   UNL     1      -1.395  10.180  26.620  0.00  0.00     0.071 A 
HETATM    9  C   UNL     1      -0.281   9.402  27.059  0.00  0.00     0.020 A 
HETATM   10  C   UNL     1       0.664   8.549  26.451  0.00  0.00     0.035 C 
ENDROOT
BRANCH   1  11
HETATM   11  C   UNL     1       2.464   6.773  26.652  0.00  0.00     0.260 C 
HETATM   12  N   UNL     1       1.966   5.469  26.395  0.00  0.00    -0.318 N 
HETATM   13  C   UNL     1       0.659   5.039  26.913  0.00  0.00     0.159 C 
HETATM   14  O   UNL     1       3.622   7.148  26.451  0.00  0.00    -0.267 OA
BRANCH  12  15
HETATM   15  C   UNL     1       2.750   4.425  25.761  0.00  0.00     0.037 A 
HETATM   16  C   UNL     1       3.124   4.458  24.411  0.00  0.00     0.031 A 
HETATM   17  C   UNL     1       4.000   3.498  23.872  0.00  0.00     0.021 A 
HETATM   18  C   UNL     1       4.501   2.478  24.673  0.00  0.00     0.011 A 
HETATM   19 BR   UNL     1       5.731   1.230  23.970  0.00  0.00    -0.051 Br
HETATM   20  C   UNL     1       4.106   2.385  25.999  0.00  0.00     0.021 A 
HETATM   21  C   UNL     1       3.232   3.343  26.528  0.00  0.00     0.031 A 
ENDBRANCH  12  15
ENDBRANCH   1  11
BRANCH   2  22
HETATM   22  O   UNL     1       2.590   7.558  29.443  0.00  0.00    -0.360 OA
HETATM   23  H   UNL     1       2.552   8.044  30.298  0.00  0.00     0.217 HD
ENDBRANCH   2  22
BRANCH   8  24
HETATM   24  C   UNL     1      -2.013  10.277  25.254  0.00  0.00     0.100 C 
BRANCH  24  25
HETATM   25  C   UNL     1      -1.419  11.440  24.489  0.00  0.00    -0.052 C 
HETATM   26  C   UNL     1      -0.488  12.335  25.038  0.00  0.00     0.014 C 
HETATM   27  C   UNL     1       0.142  13.300  24.243  0.00  0.00    -0.061 C 
HETATM   28  C   UNL     1       1.284  14.102  24.791  0.00  0.00     0.048 C 
HETATM   29  C   UNL     1      -0.277  13.477  22.921  0.00  0.00     0.007 C 
HETATM   30  C   UNL     1      -1.280  12.669  22.390  0.00  0.00     0.001 C 
HETATM   31  C   UNL     1      -1.836  11.648  23.163  0.00  0.00     0.007 C 
ENDBRANCH  24  25
ENDBRANCH   8  24
TORSDOF 5
ENDMDL
MODEL 7
REMARK VINA RESULT:    -7.519      3.929      8.138
REMARK INTER + INTRA:         -10.570
REMARK INTER:                  -9.542
REMARK INTRA:                  -1.028
REMARK UNBOUND:                -1.074
REMARK  5 active torsions:
REMARK  status: ('A' for Active; 'I' for Inactive)
REMARK    1  A    between atoms: C_5  and  N_6 
REMARK       I    between atoms: N_6  and  C_7 
REMARK    2  A    between atoms: C_7  and  C_9 
REMARK    3  A    between atoms: C_10  and  O_11 
REMARK    4  A    between atoms: C_17  and  C_18 
REMARK    5  A    between atoms: C_18  and  C_19 
ROOT
HETATM    1  C   UNL     1       1.654   7.705  26.202  0.00  0.00     0.066 C 
HETATM    2  C   UNL     1       2.225   7.653  27.482  0.00  0.00     0.083 C 
HETATM    3  C   UNL     1       1.666   8.337  28.574  0.00  0.00     0.069 C 
HETATM    4  C   UNL     1       0.504   9.083  28.337  0.00  0.00     0.065 A 
HETATM    5  N   UNL     1      -0.286   9.825  29.159  0.00  0.00    -0.277 N 
HETATM    6  H   UNL     1      -0.179   9.967  30.158  0.00  0.00     0.189 HD
HETATM    7  N   UNL     1      -1.340  10.394  28.549  0.00  0.00    -0.178 NA
HETATM    8  C   UNL     1      -1.210  10.031  27.258  0.00  0.00     0.071 A 
HETATM    9  C   UNL     1      -0.056   9.211  27.072  0.00  0.00     0.020 A 
HETATM   10  C   UNL     1       0.567   8.569  25.980  0.00  0.00     0.035 C 
ENDROOT
BRANCH   1  11
HETATM   11  C   UNL     1       2.225   6.866  25.093  0.00  0.00     0.260 C 
HETATM   12  N   UNL     1       3.096   7.444  24.133  0.00  0.00    -0.318 N 
HETATM   13  C   UNL     1       3.272   8.901  24.048  0.00  0.00     0.159 C 
HETATM   14  O   UNL     1       1.849   5.691  25.101  0.00  0.00    -0.267 OA
BRANCH  12  15
HETATM   15  C   UNL     1       3.738   6.683  23.077  0.00  0.00     0.037 A 
HETATM   16  C   UNL     1       4.546   5.564  23.319  0.00  0.00     0.031 A 
HETATM   17  C   UNL     1       5.035   4.775  22.263  0.00  0.00     0.021 A 
HETATM   18  C   UNL     1       4.738   5.104  20.946  0.00  0.00     0.011 A 
HETATM   19 BR   UNL     1       5.335   4.006  19.530  0.00  0.00    -0.051 Br
HETATM   20  C   UNL     1       3.989   6.238  20.670  0.00  0.00     0.021 A 
HETATM   21  C   UNL     1       3.507   7.021  21.727  0.00  0.00     0.031 A 
ENDBRANCH  12  15
ENDBRANCH   1  11
BRANCH   2  22
HETATM   22  O   UNL     1       3.368   6.947  27.759  0.00  0.00    -0.360 OA
HETATM   23  H   UNL     1       3.419   6.846  28.737  0.00  0.00     0.217 HD
ENDBRANCH   2  22
BRANCH   8  24
HETATM   24  C   UNL     1      -2.264  10.437  26.267  0.00  0.00     0.100 C 
BRANCH  24  25
HETATM   25  C   UNL     1      -1.669  11.339  25.207  0.00  0.00    -0.052 C 
HETATM   26  C   UNL     1      -0.665  12.285  25.467  0.00  0.00     0.014 C 
HETATM   27  C   UNL     1      -0.046  12.986  24.426  0.00  0.00    -0.061 C 
HETATM   28  C   UNL     1       1.164  13.829  24.697  0.00  0.00     0.048 C 
HETATM   29  C   UNL     1      -0.541  12.857  23.125  0.00  0.00     0.007 C 
HETATM   30  C   UNL     1      -1.611  12.005  22.864  0.00  0.00     0.001 C 
HETATM   31  C   UNL     1      -2.160  11.240  23.894  0.00  0.00     0.007 C 
ENDBRANCH  24  25
ENDBRANCH   8  24
TORSDOF 5
ENDMDL
MODEL 8
REMARK VINA RESULT:    -7.351      3.536      8.166
REMARK INTER + INTRA:         -10.359
REMARK INTER:                  -9.135
REMARK INTRA:                  -1.224
REMARK UNBOUND:                -1.074
REMARK  5 active torsions:
REMARK  status: ('A' for Active; 'I' for Inactive)
REMARK    1  A    between atoms: C_5  and  N_6 
REMARK       I    between atoms: N_6  and  C_7 
REMARK    2  A    between atoms: C_7  and  C_9 
REMARK    3  A    between atoms: C_10  and  O_11 
REMARK    4  A    between atoms: C_17  and  C_18 
REMARK    5  A    between atoms: C_18  and  C_19 
ROOT
HETATM    1  C   UNL     1       3.628   6.925  22.573  0.00  0.00     0.066 C 
HETATM    2  C   UNL     1       4.992   6.944  22.901  0.00  0.00     0.083 C 
HETATM    3  C   UNL     1       5.437   6.872  24.232  0.00  0.00     0.069 C 
HETATM    4  C   UNL     1       4.460   6.781  25.232  0.00  0.00     0.065 A 
HETATM    5  N   UNL     1       4.547   6.674  26.585  0.00  0.00    -0.277 N 
HETATM    6  H   UNL     1       5.389   6.619  27.148  0.00  0.00     0.189 HD
HETATM    7  N   UNL     1       3.361   6.599  27.212  0.00  0.00    -0.178 NA
HETATM    8  C   UNL     1       2.455   6.697  26.220  0.00  0.00     0.071 A 
HETATM    9  C   UNL     1       3.099   6.823  24.951  0.00  0.00     0.020 A 
HETATM   10  C   UNL     1       2.681   6.967  23.611  0.00  0.00     0.035 C 
ENDROOT
BRANCH   1  11
HETATM   11  C   UNL     1       3.207   6.891  21.131  0.00  0.00     0.260 C 
HETATM   12  N   UNL     1       2.600   5.728  20.588  0.00  0.00    -0.318 N 
HETATM   13  C   UNL     1       2.585   4.462  21.335  0.00  0.00     0.159 C 
HETATM   14  O   UNL     1       3.459   7.924  20.504  0.00  0.00    -0.267 OA
BRANCH  12  15
HETATM   15  C   UNL     1       2.106   5.647  19.226  0.00  0.00     0.037 A 
HETATM   16  C   UNL     1       2.845   5.092  18.173  0.00  0.00     0.031 A 
HETATM   17  C   UNL     1       2.276   4.907  16.900  0.00  0.00     0.021 A 
HETATM   18  C   UNL     1       0.962   5.291  16.656  0.00  0.00     0.011 A 
HETATM   19 BR   UNL     1       0.174   4.978  14.969  0.00  0.00    -0.051 Br
HETATM   20  C   UNL     1       0.222   5.894  17.662  0.00  0.00     0.021 A 
HETATM   21  C   UNL     1       0.796   6.078  18.926  0.00  0.00     0.031 A 
ENDBRANCH  12  15
ENDBRANCH   1  11
BRANCH   2  22
HETATM   22  O   UNL     1       5.984   7.044  21.959  0.00  0.00    -0.360 OA
HETATM   23  H   UNL     1       6.162   6.136  21.624  0.00  0.00     0.217 HD
ENDBRANCH   2  22
BRANCH   8  24
HETATM   24  C   UNL     1       0.993   6.586  26.542  0.00  0.00     0.100 C 
BRANCH  24  25
HETATM   25  C   UNL     1       0.363   7.961  26.605  0.00  0.00    -0.052 C 
HETATM   26  C   UNL     1      -0.061   8.674  25.473  0.00  0.00     0.014 C 
HETATM   27  C   UNL     1      -0.772   9.873  25.598  0.00  0.00    -0.061 C 
HETATM   28  C   UNL     1      -1.402  10.508  24.394  0.00  0.00     0.048 C 
HETATM   29  C   UNL     1      -0.926  10.448  26.863  0.00  0.00     0.007 C 
HETATM   30  C   UNL     1      -0.415   9.809  27.990  0.00  0.00     0.001 C 
HETATM   31  C   UNL     1       0.211   8.568  27.864  0.00  0.00     0.007 C 
ENDBRANCH  24  25
ENDBRANCH   8  24
TORSDOF 5
ENDMDL
MODEL 9
REMARK VINA RESULT:    -7.326      6.455      8.367
REMARK INTER + INTRA:         -10.327
REMARK INTER:                  -9.253
REMARK INTRA:                  -1.074
REMARK UNBOUND:                -1.074
REMARK  5 active torsions:
REMARK  status: ('A' for Active; 'I' for Inactive)
REMARK    1  A    between atoms: C_5  and  N_6 
REMARK       I    between atoms: N_6  and  C_7 
REMARK    2  A    between atoms: C_7  and  C_9 
REMARK    3  A    between atoms: C_10  and  O_11 
REMARK    4  A    between atoms: C_17  and  C_18 
REMARK    5  A    between atoms: C_18  and  C_19 
ROOT
HETATM    1  C   UNL     1       1.377   8.247  28.303  0.00  0.00     0.066 C 
HETATM    2  C   UNL     1       0.821   8.610  29.539  0.00  0.00     0.083 C 
HETATM    3  C   UNL     1      -0.360   9.365  29.630  0.00  0.00     0.069 C 
HETATM    4  C   UNL     1      -0.971   9.749  28.429  0.00  0.00     0.065 A 
HETATM    5  N   UNL     1      -2.109  10.445  28.167  0.00  0.00    -0.277 N 
HETATM    6  H   UNL     1      -2.771  10.822  28.836  0.00  0.00     0.189 HD
HETATM    7  N   UNL     1      -2.373  10.604  26.858  0.00  0.00    -0.178 NA
HETATM    8  C   UNL     1      -1.335  10.010  26.238  0.00  0.00     0.071 A 
HETATM    9  C   UNL     1      -0.418   9.463  27.186  0.00  0.00     0.020 A 
HETATM   10  C   UNL     1       0.806   8.763  27.126  0.00  0.00     0.035 C 
ENDROOT
BRANCH   1  11
HETATM   11  C   UNL     1       2.578   7.345  28.259  0.00  0.00     0.260 C 
HETATM   12  N   UNL     1       2.425   5.959  27.994  0.00  0.00    -0.318 N 
HETATM   13  C   UNL     1       1.097   5.329  27.995  0.00  0.00     0.159 C 
HETATM   14  O   UNL     1       3.649   7.914  28.492  0.00  0.00    -0.267 OA
BRANCH  12  15
HETATM   15  C   UNL     1       3.542   5.042  27.868  0.00  0.00     0.037 A 
HETATM   16  C   UNL     1       4.149   4.733  26.644  0.00  0.00     0.031 A 
HETATM   17  C   UNL     1       5.315   3.949  26.584  0.00  0.00     0.021 A 
HETATM   18  C   UNL     1       5.882   3.445  27.749  0.00  0.00     0.011 A 
HETATM   19 BR   UNL     1       7.486   2.451  27.677  0.00  0.00    -0.051 Br
HETATM   20  C   UNL     1       5.274   3.685  28.972  0.00  0.00     0.021 A 
HETATM   21  C   UNL     1       4.112   4.465  29.024  0.00  0.00     0.031 A 
ENDBRANCH  12  15
ENDBRANCH   1  11
BRANCH   2  22
HETATM   22  O   UNL     1       1.390   8.269  30.740  0.00  0.00    -0.360 OA
HETATM   23  H   UNL     1       1.584   9.106  31.219  0.00  0.00     0.217 HD
ENDBRANCH   2  22
BRANCH   8  24
HETATM   24  C   UNL     1      -1.318   9.933  24.738  0.00  0.00     0.100 C 
BRANCH  24  25
HETATM   25  C   UNL     1      -1.013  11.292  24.145  0.00  0.00    -0.052 C 
HETATM   26  C   UNL     1      -0.127  12.211  24.727  0.00  0.00     0.014 C 
HETATM   27  C   UNL     1       0.234  13.388  24.060  0.00  0.00    -0.061 C 
HETATM   28  C   UNL     1       1.338  14.251  24.594  0.00  0.00     0.048 C 
HETATM   29  C   UNL     1      -0.417  13.728  22.871  0.00  0.00     0.007 C 
HETATM   30  C   UNL     1      -1.382  12.879  22.333  0.00  0.00     0.001 C 
HETATM   31  C   UNL     1      -1.666  11.663  22.957  0.00  0.00     0.007 C 
ENDBRANCH  24  25
ENDBRANCH   8  24
TORSDOF 5
ENDMDL
