MODEL 1
REMARK VINA RESULT:    -7.712      0.000      0.000
REMARK INTER + INTRA:         -11.273
REMARK INTER:                 -10.369
REMARK INTRA:                  -0.904
REMARK UNBOUND:                -0.855
REMARK  7 active torsions:
REMARK  status: ('A' for Active; 'I' for Inactive)
REMARK    1  A    between atoms: C_2  and  C_3 
REMARK    2  A    between atoms: C_3  and  O_4 
REMARK    3  A    between atoms: C_3  and  C_5 
REMARK    4  A    between atoms: C_12  and  C_16 
REMARK    5  A    between atoms: C_13  and  O_15 
REMARK       I    between atoms: C_16  and  N_18 
REMARK    6  A    between atoms: N_18  and  C_20 
REMARK    7  A    between atoms: C_23  and  N_26 
ROOT
HETATM    1  C   UNL     1      -1.081  16.843  20.625  0.00  0.00     0.095 A 
HETATM    2  N   UNL     1      -1.735  17.654  19.768  0.00  0.00    -0.175 NA
HETATM    3  N   UNL     1      -3.011  17.236  19.847  0.00  0.00    -0.277 N 
HETATM    4  H   UNL     1      -3.702  17.690  19.258  0.00  0.00     0.189 HD
HETATM    5  C   UNL     1      -1.974  15.940  21.274  0.00  0.00     0.022 A 
HETATM    6  C   UNL     1      -3.216  16.201  20.720  0.00  0.00     0.065 A 
HETATM    7  C   UNL     1      -1.870  14.921  22.243  0.00  0.00     0.035 A 
HETATM    8  C   UNL     1      -2.995  14.139  22.591  0.00  0.00     0.066 A 
HETATM    9  C   UNL     1      -4.198  14.378  21.914  0.00  0.00     0.083 A 
HETATM   10  C   UNL     1      -4.356  15.456  21.028  0.00  0.00     0.069 A 
ENDROOT
BRANCH   8  11
HETATM   11  C   UNL     1      -2.716  13.033  23.558  0.00  0.00     0.260 C 
HETATM   12  O   UNL     1      -2.940  11.906  23.104  0.00  0.00    -0.267 OA
HETATM   13  N   UNL     1      -2.242  13.244  24.873  0.00  0.00    -0.318 N 
HETATM   14  C   UNL     1      -2.114  14.550  25.521  0.00  0.00     0.159 C 
BRANCH  13  15
HETATM   15  C   UNL     1      -1.872  12.103  25.682  0.00  0.00     0.037 A 
HETATM   16  C   UNL     1      -2.644  11.703  26.778  0.00  0.00     0.032 A 
HETATM   17  C   UNL     1      -2.280  10.601  27.571  0.00  0.00     0.031 A 
HETATM   18  C   UNL     1      -1.124   9.856  27.312  0.00  0.00     0.030 A 
HETATM   19  C   UNL     1      -0.379  10.246  26.191  0.00  0.00     0.031 A 
HETATM   20  C   UNL     1      -0.746  11.334  25.381  0.00  0.00     0.032 A 
BRANCH  18  21
HETATM   21  N   UNL     1      -0.752   8.762  28.064  0.00  0.00    -0.377 N 
HETATM   22  C   UNL     1      -0.148   8.871  29.399  0.00  0.00     0.149 C 
HETATM   23  C   UNL     1      -0.671   7.707  30.263  0.00  0.00     0.187 C 
HETATM   24  O   UNL     1      -0.419   6.426  29.658  0.00  0.00    -0.388 OA
HETATM   25  C   UNL     1      -1.027   6.355  28.355  0.00  0.00     0.187 C 
HETATM   26  C   UNL     1      -0.492   7.458  27.429  0.00  0.00     0.149 C 
ENDBRANCH  18  21
ENDBRANCH  13  15
ENDBRANCH   8  11
BRANCH   9  27
HETATM   27  O   UNL     1      -5.281  13.543  21.977  0.00  0.00    -0.360 OA
HETATM   28  H   UNL     1      -5.109  12.806  21.361  0.00  0.00     0.217 HD
ENDBRANCH   9  27
BRANCH   1  29
HETATM   29  C   UNL     1       0.409  16.979  20.782  0.00  0.00     0.172 C 
BRANCH  29  30
HETATM   30  C   UNL     1       0.830  17.338  22.213  0.00  0.00     0.034 C 
HETATM   31  C   UNL     1       1.618  16.239  22.917  0.00  0.00     0.008 C 
ENDBRANCH  29  30
BRANCH  29  32
HETATM   32  O   UNL     1       1.111  15.805  20.357  0.00  0.00    -0.389 OA
HETATM   33  H   UNL     1       0.746  15.060  20.863  0.00  0.00     0.210 HD
ENDBRANCH  29  32
ENDBRANCH   1  29
TORSDOF 7
ENDMDL
MODEL 2
REMARK VINA RESULT:    -7.608      2.118      2.765
REMARK INTER + INTRA:         -11.131
REMARK INTER:                 -10.306
REMARK INTRA:                  -0.825
REMARK UNBOUND:                -0.855
REMARK  7 active torsions:
REMARK  status: ('A' for Active; 'I' for Inactive)
REMARK    1  A    between atoms: C_2  and  C_3 
REMARK    2  A    between atoms: C_3  and  O_4 
REMARK    3  A    between atoms: C_3  and  C_5 
REMARK    4  A    between atoms: C_12  and  C_16 
REMARK    5  A    between atoms: C_13  and  O_15 
REMARK       I    between atoms: C_16  and  N_18 
REMARK    6  A    between atoms: N_18  and  C_20 
REMARK    7  A    between atoms: C_23  and  N_26 
ROOT
HETATM    1  C   UNL     1       0.296  16.821  20.441  0.00  0.00     0.095 A 
HETATM    2  N   UNL     1      -0.293  17.870  19.832  0.00  0.00    -0.175 NA
HETATM    3  N   UNL     1      -1.596  17.535  19.810  0.00  0.00    -0.277 N 
HETATM    4  H   UNL     1      -2.248  18.173  19.367  0.00  0.00     0.189 HD
HETATM    5  C   UNL     1      -0.663  15.843  20.839  0.00  0.00     0.022 A 
HETATM    6  C   UNL     1      -1.879  16.324  20.384  0.00  0.00     0.065 A 
HETATM    7  C   UNL     1      -0.638  14.601  21.507  0.00  0.00     0.035 A 
HETATM    8  C   UNL     1      -1.817  13.834  21.648  0.00  0.00     0.066 A 
HETATM    9  C   UNL     1      -2.994  14.324  21.068  0.00  0.00     0.083 A 
HETATM   10  C   UNL     1      -3.070  15.604  20.497  0.00  0.00     0.069 A 
ENDROOT
BRANCH   8  11
HETATM   11  C   UNL     1      -1.624  12.497  22.289  0.00  0.00     0.260 C 
HETATM   12  O   UNL     1      -2.037  11.554  21.608  0.00  0.00    -0.267 OA
HETATM   13  N   UNL     1      -1.027  12.316  23.558  0.00  0.00    -0.318 N 
HETATM   14  C   UNL     1      -0.668  13.395  24.479  0.00  0.00     0.159 C 
BRANCH  13  15
HETATM   15  C   UNL     1      -0.760  10.975  24.028  0.00  0.00     0.037 A 
HETATM   16  C   UNL     1       0.255  10.192  23.467  0.00  0.00     0.032 A 
HETATM   17  C   UNL     1       0.509   8.884  23.916  0.00  0.00     0.031 A 
HETATM   18  C   UNL     1      -0.246   8.296  24.937  0.00  0.00     0.030 A 
HETATM   19  C   UNL     1      -1.236   9.103  25.513  0.00  0.00     0.031 A 
HETATM   20  C   UNL     1      -1.483  10.418  25.084  0.00  0.00     0.032 A 
BRANCH  18  21
HETATM   21  N   UNL     1      -0.008   7.022  25.407  0.00  0.00    -0.377 N 
HETATM   22  C   UNL     1       0.225   5.870  24.525  0.00  0.00     0.149 C 
HETATM   23  C   UNL     1       1.269   4.954  25.192  0.00  0.00     0.187 C 
HETATM   24  O   UNL     1       0.872   4.551  26.516  0.00  0.00    -0.388 OA
HETATM   25  C   UNL     1       0.656   5.703  27.350  0.00  0.00     0.187 C 
HETATM   26  C   UNL     1      -0.426   6.622  26.762  0.00  0.00     0.149 C 
ENDBRANCH  18  21
ENDBRANCH  13  15
ENDBRANCH   8  11
BRANCH   9  27
HETATM   27  O   UNL     1      -4.132  13.577  20.920  0.00  0.00    -0.360 OA
HETATM   28  H   UNL     1      -3.864  12.720  20.541  0.00  0.00     0.217 HD
ENDBRANCH   9  27
BRANCH   1  29
HETATM   29  C   UNL     1       1.790  16.809  20.615  0.00  0.00     0.172 C 
BRANCH  29  30
HETATM   30  C   UNL     1       2.466  15.630  19.902  0.00  0.00     0.034 C 
HETATM   31  C   UNL     1       3.024  14.574  20.849  0.00  0.00     0.008 C 
ENDBRANCH  29  30
BRANCH  29  32
HETATM   32  O   UNL     1       2.399  18.035  20.191  0.00  0.00    -0.389 OA
HETATM   33  H   UNL     1       3.127  17.797  19.595  0.00  0.00     0.210 HD
ENDBRANCH  29  32
ENDBRANCH   1  29
TORSDOF 7
ENDMDL
MODEL 3
REMARK VINA RESULT:    -7.570      0.524      1.340
REMARK INTER + INTRA:         -11.080
REMARK INTER:                 -10.114
REMARK INTRA:                  -0.966
REMARK UNBOUND:                -0.855
REMARK  7 active torsions:
REMARK  status: ('A' for Active; 'I' for Inactive)
REMARK    1  A    between atoms: C_2  and  C_3 
REMARK    2  A    between atoms: C_3  and  O_4 
REMARK    3  A    between atoms: C_3  and  C_5 
REMARK    4  A    between atoms: C_12  and  C_16 
REMARK    5  A    between atoms: C_13  and  O_15 
REMARK       I    between atoms: C_16  and  N_18 
REMARK    6  A    between atoms: N_18  and  C_20 
REMARK    7  A    between atoms: C_23  and  N_26 
ROOT
HETATM    1  C   UNL     1      -1.223  16.674  20.727  0.00  0.00     0.095 A 
HETATM    2  N   UNL     1      -1.919  17.479  19.900  0.00  0.00    -0.175 NA
HETATM    3  N   UNL     1      -3.184  17.033  20.012  0.00  0.00    -0.277 N 
HETATM    4  H   UNL     1      -3.901  17.478  19.450  0.00  0.00     0.189 HD
HETATM    5  C   UNL     1      -2.075  15.743  21.391  0.00  0.00     0.022 A 
HETATM    6  C   UNL     1      -3.339  15.983  20.878  0.00  0.00     0.065 A 
HETATM    7  C   UNL     1      -1.920  14.714  22.343  0.00  0.00     0.035 A 
HETATM    8  C   UNL     1      -3.017  13.904  22.714  0.00  0.00     0.066 A 
HETATM    9  C   UNL     1      -4.245  14.124  22.077  0.00  0.00     0.083 A 
HETATM   10  C   UNL     1      -4.453  15.209  21.211  0.00  0.00     0.069 A 
ENDROOT
BRANCH   8  11
HETATM   11  C   UNL     1      -2.685  12.792  23.659  0.00  0.00     0.260 C 
HETATM   12  O   UNL     1      -2.873  11.666  23.188  0.00  0.00    -0.267 OA
HETATM   13  N   UNL     1      -2.202  12.998  24.971  0.00  0.00    -0.318 N 
HETATM   14  C   UNL     1      -2.113  14.297  25.640  0.00  0.00     0.159 C 
BRANCH  13  15
HETATM   15  C   UNL     1      -1.779  11.858  25.755  0.00  0.00     0.037 A 
HETATM   16  C   UNL     1      -0.576  11.196  25.491  0.00  0.00     0.032 A 
HETATM   17  C   UNL     1      -0.168  10.081  26.245  0.00  0.00     0.031 A 
HETATM   18  C   UNL     1      -0.950   9.572  27.289  0.00  0.00     0.030 A 
HETATM   19  C   UNL     1      -2.136  10.266  27.565  0.00  0.00     0.031 A 
HETATM   20  C   UNL     1      -2.540  11.392  26.829  0.00  0.00     0.032 A 
BRANCH  18  21
HETATM   21  N   UNL     1      -0.567   8.492  28.054  0.00  0.00    -0.377 N 
HETATM   22  C   UNL     1      -0.876   7.101  27.693  0.00  0.00     0.149 C 
HETATM   23  C   UNL     1       0.317   6.218  28.108  0.00  0.00     0.187 C 
HETATM   24  O   UNL     1       0.635   6.357  29.505  0.00  0.00    -0.388 OA
HETATM   25  C   UNL     1       0.933   7.729  29.821  0.00  0.00     0.187 C 
HETATM   26  C   UNL     1      -0.251   8.648  29.484  0.00  0.00     0.149 C 
ENDBRANCH  18  21
ENDBRANCH  13  15
ENDBRANCH   8  11
BRANCH   9  27
HETATM   27  O   UNL     1      -5.306  13.264  22.162  0.00  0.00    -0.360 OA
HETATM   28  H   UNL     1      -5.341  12.943  23.082  0.00  0.00     0.217 HD
ENDBRANCH   9  27
BRANCH   1  29
HETATM   29  C   UNL     1       0.268  16.840  20.841  0.00  0.00     0.172 C 
BRANCH  29  30
HETATM   30  C   UNL     1       0.705  17.416  22.194  0.00  0.00     0.034 C 
HETATM   31  C   UNL     1       1.268  16.374  23.154  0.00  0.00     0.008 C 
ENDBRANCH  29  30
BRANCH  29  32
HETATM   32  O   UNL     1       0.974  15.619  20.591  0.00  0.00    -0.389 OA
HETATM   33  H   UNL     1       0.304  14.934  20.429  0.00  0.00     0.210 HD
ENDBRANCH  29  32
ENDBRANCH   1  29
TORSDOF 7
ENDMDL
MODEL 4
REMARK VINA RESULT:    -7.371      1.339      1.604
REMARK INTER + INTRA:         -10.812
REMARK INTER:                 -10.139
REMARK INTRA:                  -0.673
REMARK UNBOUND:                -0.855
REMARK  7 active torsions:
REMARK  status: ('A' for Active; 'I' for Inactive)
REMARK    1  A    between atoms: C_2  and  C_3 
REMARK    2  A    between atoms: C_3  and  O_4 
REMARK    3  A    between atoms: C_3  and  C_5 
REMARK    4  A    between atoms: C_12  and  C_16 
REMARK    5  A    between atoms: C_13  and  O_15 
REMARK       I    between atoms: C_16  and  N_18 
REMARK    6  A    between atoms: N_18  and  C_20 
REMARK    7  A    between atoms: C_23  and  N_26 
ROOT
HETATM    1  C   UNL     1      -1.469  16.748  20.608  0.00  0.00     0.095 A 
HETATM    2  N   UNL     1      -2.345  17.270  19.726  0.00  0.00    -0.175 NA
HETATM    3  N   UNL     1      -3.490  16.614  19.990  0.00  0.00    -0.277 N 
HETATM    4  H   UNL     1      -4.305  16.824  19.422  0.00  0.00     0.189 HD
HETATM    5  C   UNL     1      -2.092  15.787  21.457  0.00  0.00     0.022 A 
HETATM    6  C   UNL     1      -3.399  15.701  21.006  0.00  0.00     0.065 A 
HETATM    7  C   UNL     1      -1.697  14.967  22.535  0.00  0.00     0.035 A 
HETATM    8  C   UNL     1      -2.595  14.031  23.095  0.00  0.00     0.066 A 
HETATM    9  C   UNL     1      -3.868  13.913  22.522  0.00  0.00     0.083 A 
HETATM   10  C   UNL     1      -4.322  14.792  21.525  0.00  0.00     0.069 A 
ENDROOT
BRANCH   8  11
HETATM   11  C   UNL     1      -2.011  13.162  24.164  0.00  0.00     0.260 C 
HETATM   12  O   UNL     1      -1.838  13.744  25.239  0.00  0.00    -0.267 OA
HETATM   13  N   UNL     1      -1.682  11.801  23.973  0.00  0.00    -0.318 N 
HETATM   14  C   UNL     1      -1.710  11.102  22.687  0.00  0.00     0.159 C 
BRANCH  13  15
HETATM   15  C   UNL     1      -1.254  11.012  25.107  0.00  0.00     0.037 A 
HETATM   16  C   UNL     1      -2.120  10.727  26.168  0.00  0.00     0.032 A 
HETATM   17  C   UNL     1      -1.702   9.969  27.276  0.00  0.00     0.031 A 
HETATM   18  C   UNL     1      -0.398   9.472  27.379  0.00  0.00     0.030 A 
HETATM   19  C   UNL     1       0.449   9.735  26.294  0.00  0.00     0.031 A 
HETATM   20  C   UNL     1       0.033  10.475  25.174  0.00  0.00     0.032 A 
BRANCH  18  21
HETATM   21  N   UNL     1       0.034   8.713  28.445  0.00  0.00    -0.377 N 
HETATM   22  C   UNL     1      -0.470   8.891  29.815  0.00  0.00     0.149 C 
HETATM   23  C   UNL     1      -0.554   7.505  30.483  0.00  0.00     0.187 C 
HETATM   24  O   UNL     1       0.707   6.811  30.456  0.00  0.00    -0.388 OA
HETATM   25  C   UNL     1       1.166   6.653  29.101  0.00  0.00     0.187 C 
HETATM   26  C   UNL     1       1.329   8.013  28.405  0.00  0.00     0.149 C 
ENDBRANCH  18  21
ENDBRANCH  13  15
ENDBRANCH   8  11
BRANCH   9  27
HETATM   27  O   UNL     1      -4.734  12.892  22.805  0.00  0.00    -0.360 OA
HETATM   28  H   UNL     1      -5.637  13.247  22.702  0.00  0.00     0.217 HD
ENDBRANCH   9  27
BRANCH   1  29
HETATM   29  C   UNL     1      -0.037  17.210  20.590  0.00  0.00     0.172 C 
BRANCH  29  30
HETATM   30  C   UNL     1       0.966  16.049  20.597  0.00  0.00     0.034 C 
HETATM   31  C   UNL     1       2.415  16.485  20.411  0.00  0.00     0.008 C 
ENDBRANCH  29  30
BRANCH  29  32
HETATM   32  O   UNL     1       0.243  18.076  19.484  0.00  0.00    -0.389 OA
HETATM   33  H   UNL     1       1.203  18.051  19.342  0.00  0.00     0.210 HD
ENDBRANCH  29  32
ENDBRANCH   1  29
TORSDOF 7
ENDMDL
MODEL 5
REMARK VINA RESULT:    -7.292      2.048      3.872
REMARK INTER + INTRA:         -10.705
REMARK INTER:                 -10.051
REMARK INTRA:                  -0.653
REMARK UNBOUND:                -0.855
REMARK  7 active torsions:
REMARK  status: ('A' for Active; 'I' for Inactive)
REMARK    1  A    between atoms: C_2  and  C_3 
REMARK    2  A    between atoms: C_3  and  O_4 
REMARK    3  A    between atoms: C_3  and  C_5 
REMARK    4  A    between atoms: C_12  and  C_16 
REMARK    5  A    between atoms: C_13  and  O_15 
REMARK       I    between atoms: C_16  and  N_18 
REMARK    6  A    between atoms: N_18  and  C_20 
REMARK    7  A    between atoms: C_23  and  N_26 
ROOT
HETATM    1  C   UNL     1      -3.593  15.261  19.955  0.00  0.00     0.095 A 
HETATM    2  N   UNL     1      -3.581  16.431  19.286  0.00  0.00    -0.175 NA
HETATM    3  N   UNL     1      -2.507  17.071  19.784  0.00  0.00    -0.277 N 
HETATM    4  H   UNL     1      -2.305  18.005  19.442  0.00  0.00     0.189 HD
HETATM    5  C   UNL     1      -2.487  15.160  20.850  0.00  0.00     0.022 A 
HETATM    6  C   UNL     1      -1.820  16.368  20.736  0.00  0.00     0.065 A 
HETATM    7  C   UNL     1      -1.990  14.199  21.755  0.00  0.00     0.035 A 
HETATM    8  C   UNL     1      -0.877  14.490  22.576  0.00  0.00     0.066 A 
HETATM    9  C   UNL     1      -0.314  15.770  22.495  0.00  0.00     0.083 A 
HETATM   10  C   UNL     1      -0.718  16.703  21.526  0.00  0.00     0.069 A 
ENDROOT
BRANCH   8  11
HETATM   11  C   UNL     1      -0.521  13.417  23.556  0.00  0.00     0.260 C 
HETATM   12  O   UNL     1      -0.620  13.767  24.736  0.00  0.00    -0.267 OA
HETATM   13  N   UNL     1      -0.108  12.119  23.179  0.00  0.00    -0.318 N 
HETATM   14  C   UNL     1       0.184  11.695  21.809  0.00  0.00     0.159 C 
BRANCH  13  15
HETATM   15  C   UNL     1       0.079  11.113  24.201  0.00  0.00     0.037 A 
HETATM   16  C   UNL     1       1.342  10.841  24.736  0.00  0.00     0.032 A 
HETATM   17  C   UNL     1       1.527   9.856  25.722  0.00  0.00     0.031 A 
HETATM   18  C   UNL     1       0.461   9.091  26.209  0.00  0.00     0.030 A 
HETATM   19  C   UNL     1      -0.804   9.397  25.690  0.00  0.00     0.031 A 
HETATM   20  C   UNL     1      -1.000  10.393  24.719  0.00  0.00     0.032 A 
BRANCH  18  21
HETATM   21  N   UNL     1       0.611   8.131  27.186  0.00  0.00    -0.377 N 
HETATM   22  C   UNL     1       1.792   8.048  28.058  0.00  0.00     0.149 C 
HETATM   23  C   UNL     1       1.329   7.601  29.458  0.00  0.00     0.187 C 
HETATM   24  O   UNL     1       0.598   6.362  29.418  0.00  0.00    -0.388 OA
HETATM   25  C   UNL     1      -0.550   6.481  28.559  0.00  0.00     0.187 C 
HETATM   26  C   UNL     1      -0.139   6.864  27.129  0.00  0.00     0.149 C 
ENDBRANCH  18  21
ENDBRANCH  13  15
ENDBRANCH   8  11
BRANCH   9  27
HETATM   27  O   UNL     1       0.595  16.256  23.395  0.00  0.00    -0.360 OA
HETATM   28  H   UNL     1       0.937  17.094  23.031  0.00  0.00     0.217 HD
ENDBRANCH   9  27
BRANCH   1  29
HETATM   29  C   UNL     1      -4.697  14.272  19.698  0.00  0.00     0.172 C 
BRANCH  29  30
HETATM   30  C   UNL     1      -5.226  14.327  18.259  0.00  0.00     0.034 C 
HETATM   31  C   UNL     1      -6.184  13.193  17.911  0.00  0.00     0.008 C 
ENDBRANCH  29  30
BRANCH  29  32
HETATM   32  O   UNL     1      -4.311  12.929  20.014  0.00  0.00    -0.389 OA
HETATM   33  H   UNL     1      -3.527  12.988  20.585  0.00  0.00     0.210 HD
ENDBRANCH  29  32
ENDBRANCH   1  29
TORSDOF 7
ENDMDL
MODEL 6
REMARK VINA RESULT:    -7.274      1.675      2.470
REMARK INTER + INTRA:         -10.681
REMARK INTER:                  -9.986
REMARK INTRA:                  -0.695
REMARK UNBOUND:                -0.855
REMARK  7 active torsions:
REMARK  status: ('A' for Active; 'I' for Inactive)
REMARK    1  A    between atoms: C_2  and  C_3 
REMARK    2  A    between atoms: C_3  and  O_4 
REMARK    3  A    between atoms: C_3  and  C_5 
REMARK    4  A    between atoms: C_12  and  C_16 
REMARK    5  A    between atoms: C_13  and  O_15 
REMARK       I    between atoms: C_16  and  N_18 
REMARK    6  A    between atoms: N_18  and  C_20 
REMARK    7  A    between atoms: C_23  and  N_26 
ROOT
HETATM    1  C   UNL     1      -2.094  16.160  21.102  0.00  0.00     0.095 A 
HETATM    2  N   UNL     1      -3.077  16.591  20.285  0.00  0.00    -0.175 NA
HETATM    3  N   UNL     1      -4.135  15.839  20.637  0.00  0.00    -0.277 N 
HETATM    4  H   UNL     1      -5.005  15.968  20.131  0.00  0.00     0.189 HD
HETATM    5  C   UNL     1      -2.563  15.156  21.999  0.00  0.00     0.022 A 
HETATM    6  C   UNL     1      -3.887  14.949  21.648  0.00  0.00     0.065 A 
HETATM    7  C   UNL     1      -2.016  14.386  23.047  0.00  0.00     0.035 A 
HETATM    8  C   UNL     1      -2.782  13.380  23.677  0.00  0.00     0.066 A 
HETATM    9  C   UNL     1      -4.079  13.142  23.202  0.00  0.00     0.083 A 
HETATM   10  C   UNL     1      -4.683  13.965  22.238  0.00  0.00     0.069 A 
ENDROOT
BRANCH   8  11
HETATM   11  C   UNL     1      -2.045  12.578  24.703  0.00  0.00     0.260 C 
HETATM   12  O   UNL     1      -1.897  13.163  25.780  0.00  0.00    -0.267 OA
HETATM   13  N   UNL     1      -1.555  11.273  24.471  0.00  0.00    -0.318 N 
HETATM   14  C   UNL     1      -1.553  10.593  23.175  0.00  0.00     0.159 C 
BRANCH  13  15
HETATM   15  C   UNL     1      -0.978  10.530  25.570  0.00  0.00     0.037 A 
HETATM   16  C   UNL     1       0.373  10.170  25.579  0.00  0.00     0.032 A 
HETATM   17  C   UNL     1       0.933   9.439  26.642  0.00  0.00     0.031 A 
HETATM   18  C   UNL     1       0.166   9.026  27.737  0.00  0.00     0.030 A 
HETATM   19  C   UNL     1      -1.177   9.423  27.732  0.00  0.00     0.031 A 
HETATM   20  C   UNL     1      -1.740  10.171  26.684  0.00  0.00     0.032 A 
BRANCH  18  21
HETATM   21  N   UNL     1       0.693   8.323  28.799  0.00  0.00    -0.377 N 
HETATM   22  C   UNL     1       2.076   7.825  28.828  0.00  0.00     0.149 C 
HETATM   23  C   UNL     1       2.602   7.942  30.271  0.00  0.00     0.187 C 
HETATM   24  O   UNL     1       1.759   7.254  31.214  0.00  0.00    -0.388 OA
HETATM   25  C   UNL     1       0.416   7.769  31.160  0.00  0.00     0.187 C 
HETATM   26  C   UNL     1      -0.182   7.619  29.752  0.00  0.00     0.149 C 
ENDBRANCH  18  21
ENDBRANCH  13  15
ENDBRANCH   8  11
BRANCH   9  27
HETATM   27  O   UNL     1      -4.826  12.050  23.552  0.00  0.00    -0.360 OA
HETATM   28  H   UNL     1      -4.746  11.405  22.825  0.00  0.00     0.217 HD
ENDBRANCH   9  27
BRANCH   1  29
HETATM   29  C   UNL     1      -0.715  16.748  20.975  0.00  0.00     0.172 C 
BRANCH  29  30
HETATM   30  C   UNL     1      -0.615  17.806  19.868  0.00  0.00     0.034 C 
HETATM   31  C   UNL     1       0.803  18.030  19.356  0.00  0.00     0.008 C 
ENDBRANCH  29  30
BRANCH  29  32
HETATM   32  O   UNL     1      -0.242  17.301  22.208  0.00  0.00    -0.389 OA
HETATM   33  H   UNL     1      -1.009  17.364  22.802  0.00  0.00     0.210 HD
ENDBRANCH  29  32
ENDBRANCH   1  29
TORSDOF 7
ENDMDL
MODEL 7
REMARK VINA RESULT:    -7.085      2.054      2.490
REMARK INTER + INTRA:         -10.425
REMARK INTER:                  -9.550
REMARK INTRA:                  -0.875
REMARK UNBOUND:                -0.855
REMARK  7 active torsions:
REMARK  status: ('A' for Active; 'I' for Inactive)
REMARK    1  A    between atoms: C_2  and  C_3 
REMARK    2  A    between atoms: C_3  and  O_4 
REMARK    3  A    between atoms: C_3  and  C_5 
REMARK    4  A    between atoms: C_12  and  C_16 
REMARK    5  A    between atoms: C_13  and  O_15 
REMARK       I    between atoms: C_16  and  N_18 
REMARK    6  A    between atoms: N_18  and  C_20 
REMARK    7  A    between atoms: C_23  and  N_26 
ROOT
HETATM    1  C   UNL     1      -2.166  16.093  20.945  0.00  0.00     0.095 A 
HETATM    2  N   UNL     1      -3.204  16.805  20.463  0.00  0.00    -0.175 NA
HETATM    3  N   UNL     1      -4.283  16.143  20.920  0.00  0.00    -0.277 N 
HETATM    4  H   UNL     1      -5.201  16.485  20.658  0.00  0.00     0.189 HD
HETATM    5  C   UNL     1      -2.609  15.000  21.747  0.00  0.00     0.022 A 
HETATM    6  C   UNL     1      -3.991  15.043  21.683  0.00  0.00     0.065 A 
HETATM    7  C   UNL     1      -2.002  13.970  22.496  0.00  0.00     0.035 A 
HETATM    8  C   UNL     1      -2.786  12.968  23.110  0.00  0.00     0.066 A 
HETATM    9  C   UNL     1      -4.173  13.003  22.915  0.00  0.00     0.083 A 
HETATM   10  C   UNL     1      -4.809  14.075  22.269  0.00  0.00     0.069 A 
ENDROOT
BRANCH   8  11
HETATM   11  C   UNL     1      -2.005  11.887  23.788  0.00  0.00     0.260 C 
HETATM   12  O   UNL     1      -2.047  10.800  23.202  0.00  0.00    -0.267 OA
HETATM   13  N   UNL     1      -1.284  12.078  24.988  0.00  0.00    -0.318 N 
HETATM   14  C   UNL     1      -1.328  13.286  25.812  0.00  0.00     0.159 C 
BRANCH  13  15
HETATM   15  C   UNL     1      -0.449  11.008  25.488  0.00  0.00     0.037 A 
HETATM   16  C   UNL     1      -0.899  10.134  26.484  0.00  0.00     0.032 A 
HETATM   17  C   UNL     1      -0.084   9.100  26.978  0.00  0.00     0.031 A 
HETATM   18  C   UNL     1       1.219   8.900  26.508  0.00  0.00     0.030 A 
HETATM   19  C   UNL     1       1.644   9.760  25.487  0.00  0.00     0.031 A 
HETATM   20  C   UNL     1       0.830  10.783  24.974  0.00  0.00     0.032 A 
BRANCH  18  21
HETATM   21  N   UNL     1       2.033   7.884  26.964  0.00  0.00    -0.377 N 
HETATM   22  C   UNL     1       2.351   7.684  28.385  0.00  0.00     0.149 C 
HETATM   23  C   UNL     1       2.434   6.169  28.653  0.00  0.00     0.187 C 
HETATM   24  O   UNL     1       3.383   5.516  27.789  0.00  0.00    -0.388 OA
HETATM   25  C   UNL     1       3.038   5.731  26.408  0.00  0.00     0.187 C 
HETATM   26  C   UNL     1       3.002   7.229  26.069  0.00  0.00     0.149 C 
ENDBRANCH  18  21
ENDBRANCH  13  15
ENDBRANCH   8  11
BRANCH   9  27
HETATM   27  O   UNL     1      -5.010  11.971  23.243  0.00  0.00    -0.360 OA
HETATM   28  H   UNL     1      -5.585  11.814  22.470  0.00  0.00     0.217 HD
ENDBRANCH   9  27
BRANCH   1  29
HETATM   29  C   UNL     1      -0.760  16.507  20.601  0.00  0.00     0.172 C 
BRANCH  29  30
HETATM   30  C   UNL     1      -0.707  17.667  19.599  0.00  0.00     0.034 C 
HETATM   31  C   UNL     1       0.706  18.146  19.285  0.00  0.00     0.008 C 
ENDBRANCH  29  30
BRANCH  29  32
HETATM   32  O   UNL     1       0.008  16.843  21.762  0.00  0.00    -0.389 OA
HETATM   33  H   UNL     1      -0.283  17.725  22.048  0.00  0.00     0.210 HD
ENDBRANCH  29  32
ENDBRANCH   1  29
TORSDOF 7
ENDMDL
MODEL 8
REMARK VINA RESULT:    -7.085      2.102      3.814
REMARK INTER + INTRA:         -10.425
REMARK INTER:                  -9.367
REMARK INTRA:                  -1.058
REMARK UNBOUND:                -0.855
REMARK  7 active torsions:
REMARK  status: ('A' for Active; 'I' for Inactive)
REMARK    1  A    between atoms: C_2  and  C_3 
REMARK    2  A    between atoms: C_3  and  O_4 
REMARK    3  A    between atoms: C_3  and  C_5 
REMARK    4  A    between atoms: C_12  and  C_16 
REMARK    5  A    between atoms: C_13  and  O_15 
REMARK       I    between atoms: C_16  and  N_18 
REMARK    6  A    between atoms: N_18  and  C_20 
REMARK    7  A    between atoms: C_23  and  N_26 
ROOT
HETATM    1  C   UNL     1      -2.523  16.536  20.318  0.00  0.00     0.095 A 
HETATM    2  N   UNL     1      -2.098  17.726  19.846  0.00  0.00    -0.175 NA
HETATM    3  N   UNL     1      -0.777  17.714  20.098  0.00  0.00    -0.277 N 
HETATM    4  H   UNL     1      -0.233  18.534  19.849  0.00  0.00     0.189 HD
HETATM    5  C   UNL     1      -1.441  15.761  20.830  0.00  0.00     0.022 A 
HETATM    6  C   UNL     1      -0.325  16.570  20.701  0.00  0.00     0.065 A 
HETATM    7  C   UNL     1      -1.283  14.484  21.408  0.00  0.00     0.035 A 
HETATM    8  C   UNL     1      -0.027  14.068  21.904  0.00  0.00     0.066 A 
HETATM    9  C   UNL     1       1.039  14.975  21.845  0.00  0.00     0.083 A 
HETATM   10  C   UNL     1       0.936  16.206  21.178  0.00  0.00     0.069 A 
ENDROOT
BRANCH   8  11
HETATM   11  C   UNL     1      -0.029  12.731  22.576  0.00  0.00     0.260 C 
HETATM   12  O   UNL     1       0.128  11.784  21.800  0.00  0.00    -0.267 OA
HETATM   13  N   UNL     1      -0.196  12.556  23.968  0.00  0.00    -0.318 N 
HETATM   14  C   UNL     1      -0.548  13.617  24.913  0.00  0.00     0.159 C 
BRANCH  13  15
HETATM   15  C   UNL     1      -0.043  11.235  24.537  0.00  0.00     0.037 A 
HETATM   16  C   UNL     1      -1.143  10.393  24.736  0.00  0.00     0.032 A 
HETATM   17  C   UNL     1      -0.997   9.113  25.298  0.00  0.00     0.031 A 
HETATM   18  C   UNL     1       0.250   8.620  25.697  0.00  0.00     0.030 A 
HETATM   19  C   UNL     1       1.347   9.459  25.460  0.00  0.00     0.031 A 
HETATM   20  C   UNL     1       1.213  10.732  24.881  0.00  0.00     0.032 A 
BRANCH  18  21
HETATM   21  N   UNL     1       0.424   7.363  26.236  0.00  0.00    -0.377 N 
HETATM   22  C   UNL     1      -0.223   6.160  25.693  0.00  0.00     0.149 C 
HETATM   23  C   UNL     1       0.758   4.980  25.832  0.00  0.00     0.187 C 
HETATM   24  O   UNL     1       1.195   4.794  27.191  0.00  0.00    -0.388 OA
HETATM   25  C   UNL     1       1.825   5.989  27.686  0.00  0.00     0.187 C 
HETATM   26  C   UNL     1       0.866   7.189  27.630  0.00  0.00     0.149 C 
ENDBRANCH  18  21
ENDBRANCH  13  15
ENDBRANCH   8  11
BRANCH   9  27
HETATM   27  O   UNL     1       2.225  14.793  22.503  0.00  0.00    -0.360 OA
HETATM   28  H   UNL     1       2.932  15.111  21.910  0.00  0.00     0.217 HD
ENDBRANCH   9  27
BRANCH   1  29
HETATM   29  C   UNL     1      -3.987  16.194  20.254  0.00  0.00     0.172 C 
BRANCH  29  30
HETATM   30  C   UNL     1      -4.306  15.127  19.199  0.00  0.00     0.034 C 
HETATM   31  C   UNL     1      -4.766  13.798  19.788  0.00  0.00     0.008 C 
ENDBRANCH  29  30
BRANCH  29  32
HETATM   32  O   UNL     1      -4.507  15.783  21.523  0.00  0.00    -0.389 OA
HETATM   33  H   UNL     1      -5.461  15.962  21.509  0.00  0.00     0.210 HD
ENDBRANCH  29  32
ENDBRANCH   1  29
TORSDOF 7
ENDMDL
MODEL 9
REMARK VINA RESULT:    -6.727      4.354      6.155
REMARK INTER + INTRA:          -9.941
REMARK INTER:                  -9.086
REMARK INTRA:                  -0.855
REMARK UNBOUND:                -0.855
REMARK  7 active torsions:
REMARK  status: ('A' for Active; 'I' for Inactive)
REMARK    1  A    between atoms: C_2  and  C_3 
REMARK    2  A    between atoms: C_3  and  O_4 
REMARK    3  A    between atoms: C_3  and  C_5 
REMARK    4  A    between atoms: C_12  and  C_16 
REMARK    5  A    between atoms: C_13  and  O_15 
REMARK       I    between atoms: C_16  and  N_18 
REMARK    6  A    between atoms: N_18  and  C_20 
REMARK    7  A    between atoms: C_23  and  N_26 
ROOT
HETATM    1  C   UNL     1      -3.390  12.932  22.965  0.00  0.00     0.095 A 
HETATM    2  N   UNL     1      -4.385  13.735  23.391  0.00  0.00    -0.175 NA
HETATM    3  N   UNL     1      -4.383  13.562  24.726  0.00  0.00    -0.277 N 
HETATM    4  H   UNL     1      -5.079  14.056  25.275  0.00  0.00     0.189 HD
HETATM    5  C   UNL     1      -2.736  12.285  24.054  0.00  0.00     0.022 A 
HETATM    6  C   UNL     1      -3.428  12.692  25.182  0.00  0.00     0.065 A 
HETATM    7  C   UNL     1      -1.659  11.388  24.213  0.00  0.00     0.035 A 
HETATM    8  C   UNL     1      -1.338  10.865  25.486  0.00  0.00     0.066 A 
HETATM    9  C   UNL     1      -2.146  11.229  26.571  0.00  0.00     0.083 A 
HETATM   10  C   UNL     1      -3.151  12.202  26.460  0.00  0.00     0.069 A 
ENDROOT
BRANCH   8  11
HETATM   11  C   UNL     1      -0.237   9.852  25.489  0.00  0.00     0.260 C 
HETATM   12  O   UNL     1      -0.592   8.734  25.875  0.00  0.00    -0.267 OA
HETATM   13  N   UNL     1       1.089  10.136  25.093  0.00  0.00    -0.318 N 
HETATM   14  C   UNL     1       1.607  11.470  24.784  0.00  0.00     0.159 C 
BRANCH  13  15
HETATM   15  C   UNL     1       2.045   9.055  25.000  0.00  0.00     0.037 A 
HETATM   16  C   UNL     1       2.975   8.812  26.016  0.00  0.00     0.032 A 
HETATM   17  C   UNL     1       3.912   7.768  25.923  0.00  0.00     0.031 A 
HETATM   18  C   UNL     1       3.969   6.928  24.806  0.00  0.00     0.030 A 
HETATM   19  C   UNL     1       3.011   7.159  23.811  0.00  0.00     0.031 A 
HETATM   20  C   UNL     1       2.058   8.188  23.905  0.00  0.00     0.032 A 
BRANCH  18  21
HETATM   21  N   UNL     1       4.867   5.887  24.695  0.00  0.00    -0.377 N 
HETATM   22  C   UNL     1       5.075   4.889  25.754  0.00  0.00     0.149 C 
HETATM   23  C   UNL     1       5.336   3.524  25.088  0.00  0.00     0.187 C 
HETATM   24  O   UNL     1       6.440   3.573  24.165  0.00  0.00    -0.388 OA
HETATM   25  C   UNL     1       6.200   4.558  23.143  0.00  0.00     0.187 C 
HETATM   26  C   UNL     1       5.995   5.954  23.751  0.00  0.00     0.149 C 
ENDBRANCH  18  21
ENDBRANCH  13  15
ENDBRANCH   8  11
BRANCH   9  27
HETATM   27  O   UNL     1      -2.097  10.611  27.792  0.00  0.00    -0.360 OA
HETATM   28  H   UNL     1      -2.863  10.932  28.305  0.00  0.00     0.217 HD
ENDBRANCH   9  27
BRANCH   1  29
HETATM   29  C   UNL     1      -3.109  12.821  21.490  0.00  0.00     0.172 C 
BRANCH  29  30
HETATM   30  C   UNL     1      -1.949  13.714  21.033  0.00  0.00     0.034 C 
HETATM   31  C   UNL     1      -2.368  15.139  20.688  0.00  0.00     0.008 C 
ENDBRANCH  29  30
BRANCH  29  32
HETATM   32  O   UNL     1      -2.861  11.470  21.083  0.00  0.00    -0.389 OA
HETATM   33  H   UNL     1      -3.727  11.049  20.958  0.00  0.00     0.210 HD
ENDBRANCH  29  32
ENDBRANCH   1  29
TORSDOF 7
ENDMDL
