@<TRIPOS>MOLECULE
*****
 56 59 0 0 0
SMALL
GASTEIGER

@<TRIPOS>ATOM
      1 C           2.0108   -0.1630    0.0003 C.3     1  UNL1       -0.0495
      2 C           2.7490    1.0554    0.5319 C.3     1  UNL1        0.0091
      3 N           3.3932    1.8020   -0.5216 N.am    1  UNL1       -0.3102
      4 C           4.7000    1.5711   -0.9208 C.2     1  UNL1        0.2664
      5 O           5.4471    0.7906   -0.3326 O.2     1  UNL1       -0.2684
      6 C           5.0690    2.2780   -2.1539 C.ar    1  UNL1        0.1758
      7 N           4.5304    3.4820   -2.3932 N.ar    1  UNL1       -0.0723
      8 O           4.9357    3.8370   -3.6483 O.2     1  UNL1       -0.3532
      9 C           5.6899    2.8500   -4.2187 C.ar    1  UNL1        0.1792
     10 C           5.8670    1.8339   -3.2741 C.ar    1  UNL1        0.0614
     11 C           6.4433    0.5121   -3.5465 C.ar    1  UNL1       -0.0119
     12 C           7.5025    0.3314   -4.4477 C.ar    1  UNL1       -0.0535
     13 C           7.7304   -0.9247   -5.0281 C.ar    1  UNL1       -0.0568
     14 C           6.9797   -2.0368   -4.6299 C.ar    1  UNL1       -0.0333
     15 C           6.9699   -3.3316   -5.4113 C.3     1  UNL1        0.0242
     16 N           8.2884   -3.9131   -5.6847 N.3     1  UNL1       -0.2938
     17 C           9.0102   -4.2950   -4.4505 C.3     1  UNL1        0.0228
     18 C           8.4265   -5.5225   -3.7321 C.3     1  UNL1        0.0604
     19 O           8.3519   -6.6540   -4.6083 O.3     1  UNL1       -0.3772
     20 C           7.5776   -6.3495   -5.7723 C.3     1  UNL1        0.0604
     21 C           8.1405   -5.1277   -6.5235 C.3     1  UNL1        0.0228
     22 C           6.1014   -1.8981   -3.5557 C.ar    1  UNL1       -0.0568
     23 C           5.8213   -0.6358   -3.0389 C.ar    1  UNL1       -0.0535
     24 C           5.9618    3.1028   -5.6484 C.ar    1  UNL1        0.0635
     25 C           6.0081    2.0458   -6.5742 C.ar    1  UNL1       -0.0255
     26 C           6.2212    2.2770   -7.9356 C.ar    1  UNL1        0.0832
     27 CL          6.3758    0.9369   -9.0100 Cl      1  UNL1       -0.0797
     28 C           6.3021    3.5794   -8.4172 C.ar    1  UNL1        0.1386
     29 O           6.4395    3.8576   -9.7484 O.3     1  UNL1       -0.5052
     30 C           6.2313    4.6518   -7.5403 C.ar    1  UNL1        0.0235
     31 C           6.0918    4.4108   -6.1682 C.ar    1  UNL1        0.1312
     32 O           6.0830    5.4887   -5.3223 O.3     1  UNL1       -0.5059
     33 H           1.5408   -0.7140    0.8224 H       1  UNL1        0.0245
     34 H           2.6893   -0.8443   -0.5242 H       1  UNL1        0.0245
     35 H           1.2238    0.1293   -0.7034 H       1  UNL1        0.0245
     36 H           3.4995    0.7355    1.2679 H       1  UNL1        0.0459
     37 H           2.0452    1.7278    1.0305 H       1  UNL1        0.0459
     38 H           2.8528    2.4571   -1.0778 H       1  UNL1        0.1490
     39 H           8.0796    1.1810   -4.8078 H       1  UNL1        0.0624
     40 H           8.4444   -1.0173   -5.8455 H       1  UNL1        0.0621
     41 H           6.4769   -3.0975   -6.3649 H       1  UNL1        0.0476
     42 H           6.3121   -4.0483   -4.9080 H       1  UNL1        0.0476
     43 H           9.0812   -3.4522   -3.7546 H       1  UNL1        0.0449
     44 H          10.0422   -4.5256   -4.7440 H       1  UNL1        0.0449
     45 H           7.4319   -5.3191   -3.3188 H       1  UNL1        0.0572
     46 H           9.0768   -5.7986   -2.8960 H       1  UNL1        0.0572
     47 H           6.5309   -6.2052   -5.4803 H       1  UNL1        0.0572
     48 H           7.6090   -7.2277   -6.4271 H       1  UNL1        0.0572
     49 H           7.5222   -4.9143   -7.4045 H       1  UNL1        0.0449
     50 H           9.1361   -5.3845   -6.9054 H       1  UNL1        0.0449
     51 H           5.5564   -2.7547   -3.1654 H       1  UNL1        0.0621
     52 H           5.0449   -0.5866   -2.2839 H       1  UNL1        0.0624
     53 H           5.8582    1.0201   -6.2537 H       1  UNL1        0.0641
     54 H           6.4604    3.0049  -10.2232 H       1  UNL1        0.2922
     55 H           6.2891    5.6613   -7.9352 H       1  UNL1        0.0691
     56 H           6.0149    6.3099   -5.8363 H       1  UNL1        0.2922
@<TRIPOS>BOND
     1     1     2    1
     2     2     3    1
     3     3     4   am
     4     4     5    2
     5     4     6    1
     6     6     7   ar
     7     7     8   ar
     8     8     9   ar
     9     9    10   ar
    10     6    10   ar
    11    10    11    1
    12    11    12   ar
    13    12    13   ar
    14    13    14   ar
    15    14    15    1
    16    15    16    1
    17    16    17    1
    18    17    18    1
    19    18    19    1
    20    19    20    1
    21    20    21    1
    22    16    21    1
    23    14    22   ar
    24    22    23   ar
    25    11    23   ar
    26     9    24    1
    27    24    25   ar
    28    25    26   ar
    29    26    27    1
    30    26    28   ar
    31    28    29    1
    32    28    30   ar
    33    30    31   ar
    34    24    31   ar
    35    31    32    1
    36     1    33    1
    37     1    34    1
    38     1    35    1
    39     2    36    1
    40     2    37    1
    41     3    38    1
    42    12    39    1
    43    13    40    1
    44    15    41    1
    45    15    42    1
    46    17    43    1
    47    17    44    1
    48    18    45    1
    49    18    46    1
    50    20    47    1
    51    20    48    1
    52    21    49    1
    53    21    50    1
    54    22    51    1
    55    23    52    1
    56    25    53    1
    57    29    54    1
    58    30    55    1
    59    32    56    1
@<TRIPOS>MOLECULE
*****
 44 46 0 0 0
SMALL
GASTEIGER

@<TRIPOS>ATOM
      1 C           1.9280   -1.1463    1.2427 C.3     1  UNL1        0.0788
      2 O           2.7514   -0.3186    0.4172 O.3     1  UNL1       -0.4951
      3 C           3.3860   -1.0059   -0.5790 C.ar    1  UNL1        0.1201
      4 C           3.3791   -0.4429   -1.8523 C.ar    1  UNL1       -0.0194
      5 C           3.8523   -1.1744   -2.9541 C.ar    1  UNL1       -0.0504
      6 C           4.3722   -2.4629   -2.7851 C.ar    1  UNL1       -0.0117
      7 C           4.5793   -2.9116   -1.4700 C.ar    1  UNL1       -0.0504
      8 C           4.0525   -2.2112   -0.3776 C.ar    1  UNL1       -0.0194
      9 C           4.5400   -3.3816   -3.9163 C.ar    1  UNL1        0.0614
     10 C           4.9411   -3.1836   -5.2909 C.ar    1  UNL1        0.1758
     11 C           5.3950   -2.0063   -6.0471 C.2     1  UNL1        0.2664
     12 O           5.5880   -0.9000   -5.5569 O.2     1  UNL1       -0.2684
     13 N           5.5864   -2.2770   -7.3952 N.am    1  UNL1       -0.3102
     14 C           6.1011   -1.3269   -8.3521 C.3     1  UNL1        0.0091
     15 C           5.6616   -1.6593   -9.7699 C.3     1  UNL1       -0.0495
     16 N           4.8536   -4.3369   -5.9767 N.ar    1  UNL1       -0.0723
     17 O           4.3544   -5.2613   -5.1192 O.2     1  UNL1       -0.3532
     18 C           4.1571   -4.7285   -3.8834 C.ar    1  UNL1        0.1792
     19 C           3.5416   -5.7001   -2.9582 C.ar    1  UNL1        0.0635
     20 C           2.6126   -5.3028   -1.9807 C.ar    1  UNL1       -0.0255
     21 C           1.9926   -6.2434   -1.1513 C.ar    1  UNL1        0.0832
     22 CL          0.9336   -5.7062    0.1001 Cl      1  UNL1       -0.0797
     23 C           2.2298   -7.6037   -1.3326 C.ar    1  UNL1        0.1386
     24 O           1.5958   -8.5651   -0.5968 O.3     1  UNL1       -0.5052
     25 C           3.1325   -8.0324   -2.2942 C.ar    1  UNL1        0.0235
     26 C           3.8020   -7.0856   -3.0726 C.ar    1  UNL1        0.1312
     27 O           4.7443   -7.5330   -3.9621 O.3     1  UNL1       -0.5059
     28 H           1.3392   -0.4951    1.8967 H       1  UNL1        0.0660
     29 H           2.5282   -1.7971    1.8864 H       1  UNL1        0.0660
     30 H           1.2248   -1.7406    0.6448 H       1  UNL1        0.0660
     31 H           2.9481    0.5430   -2.0047 H       1  UNL1        0.0654
     32 H           3.7518   -0.7268   -3.9397 H       1  UNL1        0.0625
     33 H           5.0676   -3.8650   -1.2797 H       1  UNL1        0.0625
     34 H           4.1465   -2.6413    0.6143 H       1  UNL1        0.0654
     35 H           5.5131   -3.2666   -7.6529 H       1  UNL1        0.1490
     36 H           7.1927   -1.3663   -8.2814 H       1  UNL1        0.0459
     37 H           5.7800   -0.3176   -8.0782 H       1  UNL1        0.0459
     38 H           5.9807   -2.6664  -10.0591 H       1  UNL1        0.0245
     39 H           6.0936   -0.9491  -10.4834 H       1  UNL1        0.0245
     40 H           4.5718   -1.6177   -9.8640 H       1  UNL1        0.0245
     41 H           2.3474   -4.2568   -1.8584 H       1  UNL1        0.0641
     42 H           0.9754   -8.1127    0.0054 H       1  UNL1        0.2922
     43 H           3.3046   -9.0962   -2.4231 H       1  UNL1        0.0691
     44 H           4.7364   -8.5031   -3.9919 H       1  UNL1        0.2922
@<TRIPOS>BOND
     1     1     2    1
     2     2     3    1
     3     3     4   ar
     4     4     5   ar
     5     5     6   ar
     6     6     7   ar
     7     7     8   ar
     8     3     8   ar
     9     6     9    1
    10     9    10   ar
    11    10    11    1
    12    11    12    2
    13    11    13   am
    14    13    14    1
    15    14    15    1
    16    10    16   ar
    17    16    17   ar
    18    17    18   ar
    19     9    18   ar
    20    18    19    1
    21    19    20   ar
    22    20    21   ar
    23    21    22    1
    24    21    23   ar
    25    23    24    1
    26    23    25   ar
    27    25    26   ar
    28    19    26   ar
    29    26    27    1
    30     1    28    1
    31     1    29    1
    32     1    30    1
    33     4    31    1
    34     5    32    1
    35     7    33    1
    36     8    34    1
    37    13    35    1
    38    14    36    1
    39    14    37    1
    40    15    38    1
    41    15    39    1
    42    15    40    1
    43    20    41    1
    44    24    42    1
    45    25    43    1
    46    27    44    1
@<TRIPOS>MOLECULE
*****
 45 47 0 0 0
SMALL
GASTEIGER

@<TRIPOS>ATOM
      1 C           2.1894    0.1103   -1.3491 C.3     1  UNL1        0.0788
      2 O           2.3458   -0.3367   -0.0067 O.3     1  UNL1       -0.4951
      3 C           3.0160    0.4999    0.8429 C.ar    1  UNL1        0.1201
      4 C           3.5965    1.7174    0.5000 C.ar    1  UNL1       -0.0194
      5 C           4.3097    2.4558    1.4547 C.ar    1  UNL1       -0.0504
      6 C           4.4129    2.0269    2.7847 C.ar    1  UNL1       -0.0134
      7 C           3.7741    0.8266    3.1301 C.ar    1  UNL1       -0.0504
      8 C           3.1139    0.0567    2.1615 C.ar    1  UNL1       -0.0194
      9 C           5.2443    2.7556    3.7510 C.ar    1  UNL1        0.0397
     10 C           5.3077    4.1458    3.8751 C.ar    1  UNL1        0.1284
     11 C           4.6008    5.2142    3.2017 C.2     1  UNL1        0.2624
     12 O           3.5031    5.0735    2.6786 O.2     1  UNL1       -0.2685
     13 N           5.2587    6.4367    3.1542 N.am    1  UNL1       -0.3104
     14 C           4.7318    7.4829    2.2926 C.3     1  UNL1        0.0091
     15 C           5.5943    8.7318    2.2839 C.3     1  UNL1       -0.0495
     16 N           6.1953    4.3600    4.8898 N.ar    1  UNL1       -0.2714
     17 H           6.4315    5.2458    5.3229 H       1  UNL1        0.1891
     18 N           6.8097    3.2704    5.3452 N.ar    1  UNL1       -0.1724
     19 C           6.1928    2.2500    4.7294 C.ar    1  UNL1        0.1045
     20 C           6.5302    0.8514    5.0623 C.ar    1  UNL1        0.0457
     21 C           6.6206   -0.1018    4.0321 C.ar    1  UNL1       -0.0271
     22 C           6.7063   -1.4622    4.3273 C.ar    1  UNL1        0.0831
     23 CL          6.6210   -2.6146    3.0477 Cl      1  UNL1       -0.0797
     24 C           6.8029   -1.8852    5.6511 C.ar    1  UNL1        0.1386
     25 O           6.8348   -3.2094    5.9922 O.3     1  UNL1       -0.5052
     26 C           6.8360   -0.9574    6.6833 C.ar    1  UNL1        0.0234
     27 C           6.6735    0.4021    6.3920 C.ar    1  UNL1        0.1296
     28 O           6.5989    1.2798    7.4407 O.3     1  UNL1       -0.5060
     29 H           1.6679   -0.6731   -1.9076 H       1  UNL1        0.0660
     30 H           3.1593    0.2691   -1.8328 H       1  UNL1        0.0660
     31 H           1.5748    1.0159   -1.3892 H       1  UNL1        0.0660
     32 H           3.5274    2.1237   -0.5030 H       1  UNL1        0.0654
     33 H           4.7810    3.3799    1.1299 H       1  UNL1        0.0625
     34 H           3.8095    0.4487    4.1487 H       1  UNL1        0.0625
     35 H           2.6779   -0.9000    2.4404 H       1  UNL1        0.0654
     36 H           6.2292    6.4918    3.4211 H       1  UNL1        0.1490
     37 H           3.7188    7.7250    2.6299 H       1  UNL1        0.0459
     38 H           4.6583    7.0771    1.2768 H       1  UNL1        0.0459
     39 H           5.7013    9.1476    3.2906 H       1  UNL1        0.0245
     40 H           5.1508    9.4984    1.6380 H       1  UNL1        0.0245
     41 H           6.5972    8.5089    1.9056 H       1  UNL1        0.0245
     42 H           6.5554    0.2078    2.9916 H       1  UNL1        0.0641
     43 H           6.6830   -3.7210    5.1746 H       1  UNL1        0.2922
     44 H           6.9417   -1.3094    7.7048 H       1  UNL1        0.0691
     45 H           6.6926    0.8000    8.2784 H       1  UNL1        0.2922
@<TRIPOS>BOND
     1     1     2    1
     2     2     3    1
     3     3     4   ar
     4     4     5   ar
     5     5     6   ar
     6     6     7   ar
     7     7     8   ar
     8     3     8   ar
     9     6     9    1
    10     9    10   ar
    11    10    11    1
    12    11    12    2
    13    11    13   am
    14    13    14    1
    15    14    15    1
    16    10    16   ar
    17    16    17    1
    18    16    18   ar
    19    18    19   ar
    20     9    19   ar
    21    19    20    1
    22    20    21   ar
    23    21    22   ar
    24    22    23    1
    25    22    24   ar
    26    24    25    1
    27    24    26   ar
    28    26    27   ar
    29    20    27   ar
    30    27    28    1
    31     1    29    1
    32     1    30    1
    33     1    31    1
    34     4    32    1
    35     5    33    1
    36     7    34    1
    37     8    35    1
    38    13    36    1
    39    14    37    1
    40    14    38    1
    41    15    39    1
    42    15    40    1
    43    15    41    1
    44    21    42    1
    45    25    43    1
    46    26    44    1
    47    28    45    1
@<TRIPOS>MOLECULE
*****
 60 63 0 0 0
SMALL
GASTEIGER

@<TRIPOS>ATOM
      1 O           1.2195    1.0258   -0.0288 O.3     1  UNL1       -0.5064
      2 C           2.5619    0.7879   -0.0935 C.ar    1  UNL1        0.1232
      3 C           3.4713    1.6423    0.5285 C.ar    1  UNL1        0.0223
      4 C           4.8448    1.3879    0.4308 C.ar    1  UNL1        0.1311
      5 O           5.7223    2.2259    1.0602 O.3     1  UNL1       -0.5059
      6 C           5.3254    0.2847   -0.2974 C.ar    1  UNL1        0.0624
      7 C           4.3787   -0.5574   -0.9024 C.ar    1  UNL1       -0.0411
      8 C           3.0001   -0.3269   -0.8054 C.ar    1  UNL1       -0.0081
      9 C           2.0348   -1.2224   -1.5251 C.3     1  UNL1       -0.0362
     10 C           6.7596   -0.0042   -0.4864 C.ar    1  UNL1        0.1791
     11 O           7.5661    1.0830   -0.6853 O.2     1  UNL1       -0.3532
     12 N           8.8412    0.6829   -1.0571 N.ar    1  UNL1       -0.0723
     13 C           8.8276   -0.6597   -1.0263 C.ar    1  UNL1        0.1758
     14 C           9.9974   -1.4699   -1.4034 C.2     1  UNL1        0.2664
     15 O          10.1797   -2.6043   -0.9659 O.2     1  UNL1       -0.2684
     16 N          10.8188   -0.9121   -2.3633 N.am    1  UNL1       -0.3102
     17 C          11.9383   -1.6304   -2.9430 C.3     1  UNL1        0.0091
     18 C          11.5312   -2.4995   -4.1244 C.3     1  UNL1       -0.0495
     19 C           7.5289   -1.1445   -0.6644 C.ar    1  UNL1        0.0614
     20 C           7.0295   -2.5079   -0.7101 C.ar    1  UNL1       -0.0119
     21 C           6.2658   -3.0610    0.3228 C.ar    1  UNL1       -0.0534
     22 C           5.8015   -4.3801    0.2277 C.ar    1  UNL1       -0.0530
     23 C           6.1147   -5.1654   -0.8927 C.ar    1  UNL1       -0.0029
     24 C           6.8666   -4.6005   -1.9292 C.ar    1  UNL1       -0.0530
     25 C           7.3099   -3.2852   -1.8398 C.ar    1  UNL1       -0.0534
     26 C           5.7216   -6.6116   -0.9834 C.3     1  UNL1       -0.0058
     27 N           4.2373   -6.8693   -1.0841 N.4     1  UNL1        0.2417
     28 H           3.7953   -6.4547   -0.2555 H       1  UNL1        0.2038
     29 C           3.6085   -6.2165   -2.3121 C.3     1  UNL1       -0.0075
     30 C           2.1406   -6.6354   -2.4262 C.3     1  UNL1        0.0878
     31 O           2.0384   -8.0585   -2.5233 O.3     1  UNL1       -0.3693
     32 C           2.5057   -8.6947   -1.3315 C.3     1  UNL1        0.0878
     33 C           3.9786   -8.3734   -1.0640 C.3     1  UNL1       -0.0075
     34 H           1.0613    1.8836    0.4014 H       1  UNL1        0.2921
     35 H           3.1140    2.5036    1.0843 H       1  UNL1        0.0691
     36 H           5.2483    2.9982    1.4121 H       1  UNL1        0.2922
     37 H           4.7119   -1.4043   -1.4975 H       1  UNL1        0.0630
     38 H           2.5285   -2.1316   -1.8857 H       1  UNL1        0.0279
     39 H           1.6169   -0.6989   -2.3906 H       1  UNL1        0.0279
     40 H           1.2226   -1.5371   -0.8621 H       1  UNL1        0.0279
     41 H          10.5966    0.0235   -2.6882 H       1  UNL1        0.1490
     42 H          12.4028   -2.2572   -2.1737 H       1  UNL1        0.0459
     43 H          12.6705   -0.8848   -3.2646 H       1  UNL1        0.0459
     44 H          10.8951   -3.3320   -3.8058 H       1  UNL1        0.0245
     45 H          12.4194   -2.9220   -4.6069 H       1  UNL1        0.0245
     46 H          10.9782   -1.9222   -4.8725 H       1  UNL1        0.0245
     47 H           6.0351   -2.4748    1.2118 H       1  UNL1        0.0624
     48 H           5.2275   -4.7841    1.0589 H       1  UNL1        0.0622
     49 H           7.1519   -5.1755   -2.8085 H       1  UNL1        0.0622
     50 H           7.9070   -2.8827   -2.6572 H       1  UNL1        0.0624
     51 H           6.0841   -7.1386   -0.0938 H       1  UNL1        0.0867
     52 H           6.1822   -7.0832   -1.8609 H       1  UNL1        0.0867
     53 H           4.1813   -6.5575   -3.1808 H       1  UNL1        0.0837
     54 H           3.6908   -5.1319   -2.1969 H       1  UNL1        0.0837
     55 H           1.6994   -6.2050   -3.3305 H       1  UNL1        0.0613
     56 H           1.5551   -6.2844   -1.5681 H       1  UNL1        0.0613
     57 H           2.3926   -9.7751   -1.4684 H       1  UNL1        0.0613
     58 H           1.8720   -8.3985   -0.4886 H       1  UNL1        0.0613
     59 H           4.6118   -8.8104   -1.8437 H       1  UNL1        0.0837
     60 H           4.2877   -8.7418   -0.0806 H       1  UNL1        0.0837
@<TRIPOS>BOND
     1     1     2    1
     2     2     3   ar
     3     3     4   ar
     4     4     5    1
     5     4     6   ar
     6     6     7   ar
     7     7     8   ar
     8     2     8   ar
     9     8     9    1
    10     6    10    1
    11    10    11   ar
    12    11    12   ar
    13    12    13   ar
    14    13    14    1
    15    14    15    2
    16    14    16   am
    17    16    17    1
    18    17    18    1
    19    13    19   ar
    20    10    19   ar
    21    19    20    1
    22    20    21   ar
    23    21    22   ar
    24    22    23   ar
    25    23    24   ar
    26    24    25   ar
    27    20    25   ar
    28    23    26    1
    29    26    27    1
    30    27    28    1
    31    27    29    1
    32    29    30    1
    33    30    31    1
    34    31    32    1
    35    32    33    1
    36    27    33    1
    37     1    34    1
    38     3    35    1
    39     5    36    1
    40     7    37    1
    41     9    38    1
    42     9    39    1
    43     9    40    1
    44    16    41    1
    45    17    42    1
    46    17    43    1
    47    18    44    1
    48    18    45    1
    49    18    46    1
    50    21    47    1
    51    22    48    1
    52    24    49    1
    53    25    50    1
    54    26    51    1
    55    26    52    1
    56    29    53    1
    57    29    54    1
    58    30    55    1
    59    30    56    1
    60    32    57    1
    61    32    58    1
    62    33    59    1
    63    33    60    1
@<TRIPOS>MOLECULE
*****
 31 33 0 0 0
SMALL
GASTEIGER

@<TRIPOS>ATOM
      1 O           1.0181    0.0882    0.4539 O.3     1  UNL1       -0.5055
      2 C           2.3787    0.1008    0.3283 C.ar    1  UNL1        0.1343
      3 C           3.0202    1.2516   -0.1177 C.ar    1  UNL1        0.0231
      4 C           4.4039    1.2334   -0.3253 C.ar    1  UNL1        0.1311
      5 O           4.9886    2.3744   -0.8019 O.3     1  UNL1       -0.5059
      6 C           5.1654    0.0729   -0.0823 C.ar    1  UNL1        0.0622
      7 C           4.5142   -1.0344    0.4799 C.ar    1  UNL1       -0.0300
      8 C           3.1243   -1.0354    0.6425 C.ar    1  UNL1        0.0601
      9 BR          2.2903   -2.6297    1.2432 Br      1  UNL1       -0.0465
     10 C           6.6258    0.0385   -0.3910 C.ar    1  UNL1        0.1728
     11 N           7.3594    1.1234   -0.3807 N.ar    1  UNL1       -0.1507
     12 N           8.6201    0.7060   -0.6695 N.ar    1  UNL1       -0.2260
     13 H           9.3688    1.3470   -0.8915 H       1  UNL1        0.1937
     14 C           8.6466   -0.6597   -0.8897 C.ar    1  UNL1        0.3490
     15 O           9.6193   -1.2828   -1.2881 O.2     1  UNL1       -0.2446
     16 N           7.3552   -1.0996   -0.6532 N.ar    1  UNL1       -0.2408
     17 C           6.9893   -2.4298   -0.9430 C.ar    1  UNL1        0.0881
     18 C           5.9344   -2.7549   -1.7978 C.ar    1  UNL1        0.1473
     19 F           5.2085   -1.7933   -2.3859 F       1  UNL1       -0.2033
     20 C           5.6479   -4.0841   -2.1126 C.ar    1  UNL1       -0.0244
     21 C           6.4205   -5.1112   -1.5617 C.ar    1  UNL1       -0.0589
     22 C           7.4667   -4.8045   -0.7027 C.ar    1  UNL1       -0.0596
     23 C           7.7581   -3.4737   -0.4007 C.ar    1  UNL1       -0.0348
     24 H           0.6451    0.8944    0.0612 H       1  UNL1        0.2922
     25 H           2.4496    2.1492   -0.3318 H       1  UNL1        0.0691
     26 H           4.4121    3.1397   -0.6487 H       1  UNL1        0.2922
     27 H           5.0713   -1.9160    0.7792 H       1  UNL1        0.0638
     28 H           4.8407   -4.3105   -2.7999 H       1  UNL1        0.0647
     29 H           6.2104   -6.1480   -1.8200 H       1  UNL1        0.0618
     30 H           8.0736   -5.6021   -0.2723 H       1  UNL1        0.0618
     31 H           8.5870   -3.2568    0.2701 H       1  UNL1        0.0639
@<TRIPOS>BOND
     1     1     2    1
     2     2     3   ar
     3     3     4   ar
     4     4     5    1
     5     4     6   ar
     6     6     7   ar
     7     7     8   ar
     8     2     8   ar
     9     8     9    1
    10     6    10    1
    11    10    11   ar
    12    11    12   ar
    13    12    13    1
    14    12    14   ar
    15    14    15    2
    16    14    16   ar
    17    10    16   ar
    18    16    17    1
    19    17    18   ar
    20    18    19    1
    21    18    20   ar
    22    20    21   ar
    23    21    22   ar
    24    22    23   ar
    25    17    23   ar
    26     1    24    1
    27     3    25    1
    28     5    26    1
    29     7    27    1
    30    20    28    1
    31    21    29    1
    32    22    30    1
    33    23    31    1
@<TRIPOS>MOLECULE
*****
 49 51 0 0 0
SMALL
GASTEIGER

@<TRIPOS>ATOM
      1 O           6.2140   -3.6247    3.3675 O.co2   1  UNL1       -0.5498
      2 C           6.5063   -2.4121    3.5775 C.2     1  UNL1        0.0419
      3 O           7.4182   -1.9138    4.2921 O.co2   1  UNL1       -0.5498
      4 C           5.6278   -1.4018    2.8368 C.3     1  UNL1       -0.0101
      5 C           6.2543   -1.0138    1.5003 C.3     1  UNL1       -0.0135
      6 C           6.4843   -2.2245    0.6014 C.3     1  UNL1        0.0901
      7 O           7.1493   -1.8133   -0.5978 O.3     1  UNL1       -0.4883
      8 C           7.7511   -2.8191   -1.3215 C.ar    1  UNL1        0.1625
      9 C           8.6519   -2.4254   -2.3154 C.ar    1  UNL1        0.1615
     10 O           8.9342   -1.0865   -2.4067 O.3     1  UNL1       -0.4915
     11 C           9.4710   -0.6361   -3.6409 C.3     1  UNL1        0.0790
     12 C           9.2321   -3.4051   -3.1204 C.ar    1  UNL1       -0.0157
     13 C           8.8584   -4.7532   -2.9939 C.ar    1  UNL1       -0.0503
     14 C           8.0065   -5.1981   -1.9757 C.ar    1  UNL1       -0.0122
     15 C           7.4838   -4.1894   -1.1372 C.ar    1  UNL1       -0.0085
     16 C           7.6228   -6.6350   -1.7917 C.ar    1  UNL1        0.0144
     17 C           6.2771   -7.0150   -1.4671 C.ar    1  UNL1        0.0995
     18 C           5.1851   -6.0750   -1.4413 C.1     1  UNL1        0.1032
     19 N           4.2792   -5.3575   -1.4077 N.1     1  UNL1       -0.1907
     20 C           5.9574   -8.3475   -1.2126 C.ar    1  UNL1        0.1356
     21 N           6.8183   -9.3493   -1.3543 N.ar    1  UNL1       -0.2239
     22 N           4.6691   -8.7625   -0.8634 N.pl3   1  UNL1       -0.3421
     23 C           8.5672   -7.7224   -1.9502 C.ar    1  UNL1        0.0381
     24 C           8.0558   -9.0056   -1.7389 C.ar    1  UNL1        0.1135
     25 C           9.9831   -7.8715   -2.2931 C.ar    1  UNL1        0.0540
     26 N          10.8620   -6.8579   -2.4853 N.pl3   1  UNL1       -0.3564
     27 C          10.3923   -9.1891   -2.4516 C.ar    1  UNL1        0.0968
     28 S           9.1462  -10.2670   -2.0371 S.2     1  UNL1       -0.0621
     29 C          11.6902   -9.6923   -2.8746 C.2     1  UNL1        0.2500
     30 O          12.6542   -8.9775   -3.1584 O.2     1  UNL1       -0.2698
     31 N          11.8410  -11.0492   -2.9650 N.am    1  UNL1       -0.3249
     32 H           5.5005   -0.5093    3.4596 H       1  UNL1        0.0326
     33 H           4.6311   -1.8307    2.6803 H       1  UNL1        0.0326
     34 H           7.2091   -0.4978    1.6591 H       1  UNL1        0.0301
     35 H           5.6069   -0.2927    0.9852 H       1  UNL1        0.0301
     36 H           5.5205   -2.6848    0.3466 H       1  UNL1        0.0696
     37 H           7.1209   -2.9370    1.1301 H       1  UNL1        0.0696
     38 H           9.4634    0.4580   -3.6331 H       1  UNL1        0.0660
     39 H           8.8591   -0.9683   -4.4865 H       1  UNL1        0.0660
     40 H          10.5107   -0.9585   -3.7559 H       1  UNL1        0.0660
     41 H           9.9837   -3.1532   -3.8605 H       1  UNL1        0.0655
     42 H           9.2777   -5.4557   -3.7100 H       1  UNL1        0.0625
     43 H           6.8271   -4.4780   -0.3209 H       1  UNL1        0.0661
     44 H           4.2864   -8.2381   -0.0799 H       1  UNL1        0.1437
     45 H           4.7086   -9.7594   -0.6659 H       1  UNL1        0.1437
     46 H          10.7748   -5.9893   -1.9601 H       1  UNL1        0.1424
     47 H          11.8434   -7.0753   -2.6899 H       1  UNL1        0.1424
     48 H          11.0929  -11.6831   -2.7223 H       1  UNL1        0.1453
     49 H          12.7386  -11.4120   -3.2508 H       1  UNL1        0.1453
@<TRIPOS>BOND
     1     1     2   ar
     2     2     3   ar
     3     2     4    1
     4     4     5    1
     5     5     6    1
     6     6     7    1
     7     7     8    1
     8     8     9   ar
     9     9    10    1
    10    10    11    1
    11     9    12   ar
    12    12    13   ar
    13    13    14   ar
    14    14    15   ar
    15     8    15   ar
    16    14    16    1
    17    16    17   ar
    18    17    18    1
    19    18    19    3
    20    17    20   ar
    21    20    21   ar
    22    20    22    1
    23    16    23   ar
    24    23    24   ar
    25    21    24   ar
    26    23    25   ar
    27    25    26    1
    28    25    27   ar
    29    27    28   ar
    30    24    28   ar
    31    27    29    1
    32    29    30    2
    33    29    31   am
    34     4    32    1
    35     4    33    1
    36     5    34    1
    37     5    35    1
    38     6    36    1
    39     6    37    1
    40    11    38    1
    41    11    39    1
    42    11    40    1
    43    12    41    1
    44    13    42    1
    45    15    43    1
    46    22    44    1
    47    22    45    1
    48    26    46    1
    49    26    47    1
    50    31    48    1
    51    31    49    1
@<TRIPOS>MOLECULE
*****
 40 42 0 0 0
SMALL
GASTEIGER

@<TRIPOS>ATOM
      1 O           1.2052    1.1218    0.2391 O.3     1  UNL1       -0.5064
      2 C           2.5312    0.8021    0.1466 C.ar    1  UNL1        0.1235
      3 C           3.4512    1.4263    0.9899 C.ar    1  UNL1        0.0222
      4 C           4.8136    1.1406    0.8624 C.ar    1  UNL1        0.1296
      5 O           5.6854    1.7727    1.7112 O.3     1  UNL1       -0.5060
      6 C           5.2746    0.2354   -0.1120 C.ar    1  UNL1        0.0446
      7 C           4.3207   -0.4078   -0.9222 C.ar    1  UNL1       -0.0424
      8 C           2.9448   -0.1267   -0.8134 C.ar    1  UNL1       -0.0054
      9 C           1.9886   -0.7149   -1.8238 C.3     1  UNL1       -0.0271
     10 C           1.9520   -2.2369   -1.8680 C.3     1  UNL1       -0.0611
     11 C           6.7098    0.0359   -0.3974 C.ar    1  UNL1        0.1040
     12 N           7.4951    1.1247   -0.4699 N.ar    1  UNL1       -0.1729
     13 N           8.6953    0.6665   -0.7974 N.ar    1  UNL1       -0.2807
     14 H           9.4459    1.3421   -0.8861 H       1  UNL1        0.1885
     15 C           8.7515   -0.6805   -1.0086 C.ar    1  UNL1        0.0414
     16 C          10.0514   -1.2981   -1.3764 C.3     1  UNL1       -0.0223
     17 C           7.4585   -1.1477   -0.7800 C.ar    1  UNL1        0.0330
     18 C           7.0280   -2.5383   -0.9704 C.ar    1  UNL1        0.0211
     19 C           6.1086   -3.1572   -0.1126 C.ar    1  UNL1        0.1312
     20 F           5.6631   -2.5325    0.9868 F       1  UNL1       -0.2049
     21 C           5.6049   -4.4351   -0.3778 C.ar    1  UNL1       -0.0258
     22 C           6.0489   -5.1468   -1.4893 C.ar    1  UNL1       -0.0590
     23 C           6.9953   -4.5747   -2.3319 C.ar    1  UNL1       -0.0610
     24 C           7.4615   -3.2770   -2.0855 C.ar    1  UNL1       -0.0512
     25 H           1.0927    1.8144    0.9103 H       1  UNL1        0.2921
     26 H           3.1176    2.1499    1.7233 H       1  UNL1        0.0691
     27 H           5.2668    2.5772    2.0524 H       1  UNL1        0.2922
     28 H           4.6552   -1.0902   -1.6974 H       1  UNL1        0.0629
     29 H           2.2809   -0.3327   -2.8098 H       1  UNL1        0.0312
     30 H           0.9675   -0.3571   -1.6533 H       1  UNL1        0.0312
     31 H           2.9395   -2.6724   -2.0490 H       1  UNL1        0.0233
     32 H           1.2944   -2.5628   -2.6815 H       1  UNL1        0.0233
     33 H           1.5634   -2.6513   -0.9324 H       1  UNL1        0.0233
     34 H          10.7649   -0.5347   -1.7109 H       1  UNL1        0.0292
     35 H           9.9652   -2.0122   -2.1958 H       1  UNL1        0.0292
     36 H          10.4896   -1.8077   -0.5136 H       1  UNL1        0.0292
     37 H           4.8560   -4.8603    0.2838 H       1  UNL1        0.0646
     38 H           5.6548   -6.1377   -1.7020 H       1  UNL1        0.0618
     39 H           7.3570   -5.1238   -3.1987 H       1  UNL1        0.0618
     40 H           8.1461   -2.8443   -2.8080 H       1  UNL1        0.0625
@<TRIPOS>BOND
     1     1     2    1
     2     2     3   ar
     3     3     4   ar
     4     4     5    1
     5     4     6   ar
     6     6     7   ar
     7     7     8   ar
     8     2     8   ar
     9     8     9    1
    10     9    10    1
    11     6    11    1
    12    11    12   ar
    13    12    13   ar
    14    13    14    1
    15    13    15   ar
    16    15    16    1
    17    15    17   ar
    18    11    17   ar
    19    17    18    1
    20    18    19   ar
    21    19    20    1
    22    19    21   ar
    23    21    22   ar
    24    22    23   ar
    25    23    24   ar
    26    18    24   ar
    27     1    25    1
    28     3    26    1
    29     5    27    1
    30     7    28    1
    31     9    29    1
    32     9    30    1
    33    10    31    1
    34    10    32    1
    35    10    33    1
    36    16    34    1
    37    16    35    1
    38    16    36    1
    39    21    37    1
    40    22    38    1
    41    23    39    1
    42    24    40    1
@<TRIPOS>MOLECULE
*****
 31 33 0 0 0
SMALL
GASTEIGER

@<TRIPOS>ATOM
      1 O           1.0097    0.0333    0.4212 O.3     1  UNL1       -0.5066
      2 C           2.3627    0.0900    0.2709 C.ar    1  UNL1        0.1204
      3 C           2.9912    1.2322   -0.2059 C.ar    1  UNL1        0.0220
      4 C           4.3727    1.2122   -0.4241 C.ar    1  UNL1        0.1310
      5 O           4.9531    2.3518   -0.9106 O.3     1  UNL1       -0.5059
      6 C           5.1334    0.0521   -0.1791 C.ar    1  UNL1        0.0612
      7 C           4.4863   -1.0429    0.4136 C.ar    1  UNL1       -0.0441
      8 C           3.1012   -1.0354    0.6075 C.ar    1  UNL1       -0.0193
      9 C           6.5886    0.0078   -0.5074 C.ar    1  UNL1        0.1728
     10 N           7.3342    1.0847   -0.4930 N.ar    1  UNL1       -0.1507
     11 N           8.5891    0.6538   -0.7960 N.ar    1  UNL1       -0.2260
     12 H           9.3463    1.2887   -1.0065 H       1  UNL1        0.1937
     13 C           8.6004   -0.7110   -1.0213 C.ar    1  UNL1        0.3490
     14 O           9.5674   -1.3451   -1.4227 O.2     1  UNL1       -0.2446
     15 N           7.3033   -1.1359   -0.7855 N.ar    1  UNL1       -0.2408
     16 C           6.9154   -2.4615   -1.0666 C.ar    1  UNL1        0.0881
     17 C           5.8387   -2.7740   -1.8998 C.ar    1  UNL1        0.1473
     18 F           5.1241   -1.8015   -2.4867 F       1  UNL1       -0.2033
     19 C           5.5231   -4.1000   -2.1949 C.ar    1  UNL1       -0.0244
     20 C           6.2827   -5.1372   -1.6511 C.ar    1  UNL1       -0.0589
     21 C           7.3571   -4.8443   -0.8146 C.ar    1  UNL1       -0.0596
     22 C           7.6778   -3.5147   -0.5323 C.ar    1  UNL1       -0.0348
     23 H           0.6134    0.8143   -0.0001 H       1  UNL1        0.2921
     24 H           2.4150    2.1229   -0.4317 H       1  UNL1        0.0691
     25 H           4.4132    3.1215   -0.6682 H       1  UNL1        0.2922
     26 H           5.0360   -1.9267    0.7214 H       1  UNL1        0.0627
     27 H           2.6000   -1.9143    1.0041 H       1  UNL1        0.0654
     28 H           4.6989   -4.3168   -2.8660 H       1  UNL1        0.0647
     29 H           6.0483   -6.1714   -1.8915 H       1  UNL1        0.0618
     30 H           7.9573   -5.6468   -0.3913 H       1  UNL1        0.0618
     31 H           8.5258   -3.3069    0.1190 H       1  UNL1        0.0639
@<TRIPOS>BOND
     1     1     2    1
     2     2     3   ar
     3     3     4   ar
     4     4     5    1
     5     4     6   ar
     6     6     7   ar
     7     7     8   ar
     8     2     8   ar
     9     6     9    1
    10     9    10   ar
    11    10    11   ar
    12    11    12    1
    13    11    13   ar
    14    13    14    2
    15    13    15   ar
    16     9    15   ar
    17    15    16    1
    18    16    17   ar
    19    17    18    1
    20    17    19   ar
    21    19    20   ar
    22    20    21   ar
    23    21    22   ar
    24    16    22   ar
    25     1    23    1
    26     3    24    1
    27     5    25    1
    28     7    26    1
    29     8    27    1
    30    19    28    1
    31    20    29    1
    32    21    30    1
    33    22    31    1
@<TRIPOS>MOLECULE
*****
 38 41 0 0 0
SMALL
GASTEIGER

@<TRIPOS>ATOM
      1 N          -1.6699    1.0720   -0.2792 N.ar    1  UNL1       -0.2766
      2 H          -2.1226    1.8939    0.0995 H       1  UNL1        0.1889
      3 N          -2.4320    0.1529   -0.9032 N.ar    1  UNL1       -0.1780
      4 C          -1.5562   -0.7884   -1.2730 C.ar    1  UNL1        0.0675
      5 C          -2.0151   -2.0490   -1.9105 C.3     1  UNL1       -0.0200
      6 C          -0.2268   -0.4531   -0.8969 C.ar    1  UNL1        0.0232
      7 C          -0.3446    0.7368   -0.1989 C.ar    1  UNL1        0.0695
      8 C           1.0413   -1.0449   -1.0322 C.ar    1  UNL1       -0.0381
      9 C           2.1406   -0.5469   -0.3088 C.ar    1  UNL1        0.0422
     10 C           1.9644    0.6637    0.3910 C.ar    1  UNL1        0.1280
     11 C           0.7432    1.3547    0.4176 C.ar    1  UNL1        0.0059
     12 O           2.9526    1.2509    1.1383 O.3     1  UNL1       -0.5060
     13 C           3.4080   -1.3125   -0.2935 C.ar    1  UNL1        0.0734
     14 C           4.7171   -0.8575   -0.3589 C.ar    1  UNL1       -0.0162
     15 C           5.5320   -1.9916   -0.2390 C.ar    1  UNL1        0.0500
     16 N           4.8246   -3.1099   -0.1192 N.ar    1  UNL1       -0.1783
     17 N           3.5303   -2.6978   -0.1271 N.ar    1  UNL1       -0.2530
     18 C           2.4550   -3.6715    0.1748 C.3     1  UNL1        0.0896
     19 C           2.7616   -5.1055   -0.2211 C.2     1  UNL1       -0.0597
     20 C           2.5647   -6.1539    0.5968 C.2     1  UNL1       -0.0819
     21 C           2.0792   -6.0159    2.0139 C.3     1  UNL1       -0.0164
     22 C           1.8292   -4.5928    2.4317 C.2     1  UNL1       -0.0819
     23 C           1.9964   -3.5439    1.6122 C.2     1  UNL1       -0.0597
     24 H          -3.0811   -2.0066   -2.1642 H       1  UNL1        0.0293
     25 H          -1.8637   -2.8922   -1.2319 H       1  UNL1        0.0293
     26 H          -1.4547   -2.2427   -2.8314 H       1  UNL1        0.0293
     27 H           1.1334   -1.9096   -1.6777 H       1  UNL1        0.0632
     28 H           0.6438    2.2915    0.9559 H       1  UNL1        0.0675
     29 H           3.6174    0.5728    1.3421 H       1  UNL1        0.2922
     30 H           5.0448    0.1681   -0.4629 H       1  UNL1        0.0654
     31 H           6.6130   -2.0519   -0.2258 H       1  UNL1        0.0848
     32 H           1.6139   -3.4079   -0.4625 H       1  UNL1        0.0633
     33 H           3.1244   -5.2729   -1.2327 H       1  UNL1        0.0593
     34 H           2.7665   -7.1607    0.2403 H       1  UNL1        0.0573
     35 H           2.8267   -6.4542    2.6837 H       1  UNL1        0.0350
     36 H           1.1505   -6.5849    2.1314 H       1  UNL1        0.0350
     37 H           1.4987   -4.4263    3.4527 H       1  UNL1        0.0573
     38 H           1.7880   -2.5419    1.9791 H       1  UNL1        0.0593
@<TRIPOS>BOND
     1     1     2    1
     2     1     3   ar
     3     3     4   ar
     4     4     5    1
     5     4     6   ar
     6     6     7   ar
     7     1     7   ar
     8     6     8   ar
     9     8     9   ar
    10     9    10   ar
    11    10    11   ar
    12     7    11   ar
    13    10    12    1
    14     9    13    1
    15    13    14   ar
    16    14    15   ar
    17    15    16   ar
    18    16    17   ar
    19    13    17   ar
    20    17    18    1
    21    18    19    1
    22    19    20    2
    23    20    21    1
    24    21    22    1
    25    22    23    2
    26    18    23    1
    27     5    24    1
    28     5    25    1
    29     5    26    1
    30     8    27    1
    31    11    28    1
    32    12    29    1
    33    14    30    1
    34    15    31    1
    35    18    32    1
    36    19    33    1
    37    20    34    1
    38    21    35    1
    39    21    36    1
    40    22    37    1
    41    23    38    1
@<TRIPOS>MOLECULE
*****
 40 42 0 0 0
SMALL
GASTEIGER

@<TRIPOS>ATOM
      1 C          -0.4963    0.8228   -0.6887 C.ar    1  UNL1       -0.0455
      2 C           0.9034    0.7983   -0.6562 C.ar    1  UNL1       -0.0193
      3 C           1.5530   -0.2825   -0.0800 C.ar    1  UNL1        0.1204
      4 O           2.9134   -0.3602   -0.0490 O.3     1  UNL1       -0.5066
      5 C           0.8272   -1.3228    0.4808 C.ar    1  UNL1        0.0220
      6 C          -0.5742   -1.2784    0.4701 C.ar    1  UNL1        0.1295
      7 O          -1.2418   -2.3101    1.0797 O.3     1  UNL1       -0.5060
      8 C          -1.2708   -0.2030   -0.1226 C.ar    1  UNL1        0.0440
      9 C          -2.7456   -0.1607   -0.2426 C.ar    1  UNL1        0.1003
     10 N          -3.4237   -1.3030   -0.4620 N.ar    1  UNL1       -0.1732
     11 N          -4.7065   -0.9563   -0.5089 N.ar    1  UNL1       -0.2810
     12 H          -5.3968   -1.6966   -0.6036 H       1  UNL1        0.1885
     13 C          -4.9147    0.3829   -0.4414 C.ar    1  UNL1        0.0376
     14 C          -6.2615    0.9945   -0.5646 C.3     1  UNL1       -0.0226
     15 C          -3.6663    0.9549   -0.2298 C.ar    1  UNL1        0.0113
     16 C          -3.4818    2.4362   -0.0268 C.3     1  UNL1        0.0242
     17 C          -2.6756    2.8056    1.1947 C.2     1  UNL1       -0.0740
     18 C          -1.9157    3.9162    1.2370 C.2     1  UNL1       -0.0549
     19 C          -1.7485    4.8399    0.0563 C.3     1  UNL1        0.0947
     20 C          -2.2976    4.2808   -1.2346 C.2     1  UNL1       -0.0549
     21 C          -3.0657    3.1782   -1.2819 C.2     1  UNL1       -0.0740
     22 O          -2.2955    6.1368    0.3040 O.3     1  UNL1       -0.3717
     23 C          -3.6733    6.1655    0.6635 C.3     1  UNL1        0.0376
     24 H          -0.9696    1.6537   -1.1953 H       1  UNL1        0.0626
     25 H           1.4561    1.6223   -1.0961 H       1  UNL1        0.0654
     26 H           3.2794    0.4121   -0.5108 H       1  UNL1        0.2921
     27 H           1.3618   -2.1554    0.9282 H       1  UNL1        0.0691
     28 H          -0.6415   -3.0675    1.1612 H       1  UNL1        0.2922
     29 H          -7.0482    0.2425   -0.6695 H       1  UNL1        0.0292
     30 H          -6.2957    1.6481   -1.4436 H       1  UNL1        0.0292
     31 H          -6.4903    1.6018    0.3180 H       1  UNL1        0.0292
     32 H          -4.4817    2.8345    0.1960 H       1  UNL1        0.0435
     33 H          -2.7819    2.1854    2.0791 H       1  UNL1        0.0579
     34 H          -1.4012    4.1868    2.1529 H       1  UNL1        0.0598
     35 H          -0.6708    4.9816   -0.0895 H       1  UNL1        0.0685
     36 H          -2.0557    4.8224   -2.1440 H       1  UNL1        0.0598
     37 H          -3.4534    2.8295   -2.2342 H       1  UNL1        0.0579
     38 H          -4.0134    7.2039    0.6190 H       1  UNL1        0.0524
     39 H          -3.8108    5.8118    1.6897 H       1  UNL1        0.0524
     40 H          -4.2941    5.5819   -0.0222 H       1  UNL1        0.0524
@<TRIPOS>BOND
     1     1     2   ar
     2     2     3   ar
     3     3     4    1
     4     3     5   ar
     5     5     6   ar
     6     6     7    1
     7     6     8   ar
     8     1     8   ar
     9     8     9    1
    10     9    10   ar
    11    10    11   ar
    12    11    12    1
    13    11    13   ar
    14    13    14    1
    15    13    15   ar
    16     9    15   ar
    17    15    16    1
    18    16    17    1
    19    17    18    2
    20    18    19    1
    21    19    20    1
    22    20    21    2
    23    16    21    1
    24    19    22    1
    25    22    23    1
    26     1    24    1
    27     2    25    1
    28     4    26    1
    29     5    27    1
    30     7    28    1
    31    14    29    1
    32    14    30    1
    33    14    31    1
    34    16    32    1
    35    17    33    1
    36    18    34    1
    37    19    35    1
    38    20    36    1
    39    21    37    1
    40    23    38    1
    41    23    39    1
    42    23    40    1
@<TRIPOS>MOLECULE
*****
 48 51 0 0 0
SMALL
GASTEIGER

@<TRIPOS>ATOM
      1 F           2.2448   -4.0229    3.2366 F       1  UNL1       -0.2033
      2 C           2.6986   -2.7648    3.1307 C.ar    1  UNL1        0.1473
      3 C           3.4179   -2.2389    4.2021 C.ar    1  UNL1       -0.0244
      4 C           3.8576   -0.9190    4.1518 C.ar    1  UNL1       -0.0589
      5 C           3.6059   -0.1527    3.0163 C.ar    1  UNL1       -0.0596
      6 C           2.9409   -0.7126    1.9184 C.ar    1  UNL1       -0.0348
      7 C           2.4377   -2.0117    1.9726 C.ar    1  UNL1        0.0881
      8 N           1.9005   -2.6426    0.8379 N.ar    1  UNL1       -0.2408
      9 C           2.4650   -3.8205    0.3699 C.ar    1  UNL1        0.3490
     10 O           3.4423   -4.4377    0.7735 O.2     1  UNL1       -0.2446
     11 N           1.7604   -4.1472   -0.7698 N.ar    1  UNL1       -0.2260
     12 H           1.9806   -4.9151   -1.3916 H       1  UNL1        0.1937
     13 N           0.8259   -3.2096   -1.0407 N.ar    1  UNL1       -0.1507
     14 C           0.9213   -2.3240   -0.0731 C.ar    1  UNL1        0.1728
     15 C          -0.0950   -1.2162   -0.0533 C.ar    1  UNL1        0.0619
     16 C          -1.3595   -1.5102   -0.6184 C.ar    1  UNL1        0.1310
     17 O          -1.7431   -2.7663   -1.0247 O.3     1  UNL1       -0.5059
     18 C          -2.3164   -0.5229   -0.8452 C.ar    1  UNL1        0.0228
     19 C          -2.0266    0.8006   -0.5316 C.ar    1  UNL1        0.1325
     20 O          -2.9751    1.7496   -0.8126 O.3     1  UNL1       -0.5059
     21 C           0.1632    0.1272    0.2762 C.ar    1  UNL1       -0.0319
     22 C          -0.7840    1.1496    0.0253 C.ar    1  UNL1        0.0791
     23 C          -0.3465    2.5818   -0.0479 C.2     1  UNL1        0.2503
     24 O          -0.5940    3.1582   -1.1111 O.2     1  UNL1       -0.2699
     25 N           0.3910    3.2228    0.9555 N.am    1  UNL1       -0.2932
     26 C           0.8755    4.5718    0.6618 C.3     1  UNL1        0.0039
     27 C           0.5801    2.7774    2.3351 C.3     1  UNL1        0.0726
     28 C          -0.5200    3.2878    3.1964 C.ar    1  UNL1        0.1220
     29 O          -0.1712    3.7301    4.4415 O.2     1  UNL1       -0.4662
     30 C          -1.3196    4.0999    5.0672 C.ar    1  UNL1        0.0921
     31 C          -2.4017    3.9036    4.2426 C.ar    1  UNL1       -0.0236
     32 C          -1.8847    3.4037    3.0253 C.ar    1  UNL1       -0.0191
     33 H           3.6524   -2.8709    5.0556 H       1  UNL1        0.0647
     34 H           4.4276   -0.5018    4.9779 H       1  UNL1        0.0618
     35 H           3.9808    0.8663    2.9579 H       1  UNL1        0.0618
     36 H           2.9371   -0.1538    0.9912 H       1  UNL1        0.0639
     37 H          -0.9394   -3.3236   -1.1114 H       1  UNL1        0.2922
     38 H          -3.2577   -0.7950   -1.3153 H       1  UNL1        0.0691
     39 H          -3.4490    1.4827   -1.6213 H       1  UNL1        0.2922
     40 H           1.1330    0.4422    0.6104 H       1  UNL1        0.0634
     41 H           0.3574    5.0269   -0.1870 H       1  UNL1        0.0429
     42 H           1.9420    4.5068    0.4236 H       1  UNL1        0.0429
     43 H           0.7409    5.2248    1.5294 H       1  UNL1        0.0429
     44 H           1.5518    3.1533    2.6832 H       1  UNL1        0.0545
     45 H           0.6045    1.6896    2.4033 H       1  UNL1        0.0545
     46 H          -1.2078    4.4676    6.0781 H       1  UNL1        0.1029
     47 H          -3.4367    4.0973    4.4858 H       1  UNL1        0.0649
     48 H          -2.4352    3.1441    2.1310 H       1  UNL1        0.0652
@<TRIPOS>BOND
     1     1     2    1
     2     2     3   ar
     3     3     4   ar
     4     4     5   ar
     5     5     6   ar
     6     6     7   ar
     7     2     7   ar
     8     7     8    1
     9     8     9   ar
    10     9    10    2
    11     9    11   ar
    12    11    12    1
    13    11    13   ar
    14    13    14   ar
    15     8    14   ar
    16    14    15    1
    17    15    16   ar
    18    16    17    1
    19    16    18   ar
    20    18    19   ar
    21    19    20    1
    22    15    21   ar
    23    21    22   ar
    24    19    22   ar
    25    22    23    1
    26    23    24    2
    27    23    25   am
    28    25    26    1
    29    25    27    1
    30    27    28    1
    31    28    29   ar
    32    29    30   ar
    33    30    31   ar
    34    31    32   ar
    35    28    32   ar
    36     3    33    1
    37     4    34    1
    38     5    35    1
    39     6    36    1
    40    17    37    1
    41    18    38    1
    42    20    39    1
    43    21    40    1
    44    26    41    1
    45    26    42    1
    46    26    43    1
    47    27    44    1
    48    27    45    1
    49    30    46    1
    50    31    47    1
    51    32    48    1
@<TRIPOS>MOLECULE
*****
 51 54 0 0 0
SMALL
GASTEIGER

@<TRIPOS>ATOM
      1 C           2.5502   -0.3882   -2.2444 C.3     1  UNL1       -0.0377
      2 C           3.3913   -0.3204   -1.0014 C.ar    1  UNL1       -0.0264
      3 C           4.3901    0.6750   -0.9542 C.ar    1  UNL1       -0.0569
      4 C           5.3646    0.6775    0.0442 C.ar    1  UNL1       -0.0614
      5 C           5.3610   -0.3107    1.0164 C.ar    1  UNL1       -0.0598
      6 C           4.3549   -1.2779    1.0112 C.ar    1  UNL1       -0.0374
      7 C           3.3398   -1.2808    0.0279 C.ar    1  UNL1        0.0558
      8 N           2.4018   -2.3376    0.0780 N.ar    1  UNL1       -0.2434
      9 C           2.8387   -3.6564    0.1171 C.ar    1  UNL1        0.3489
     10 O           3.9711   -4.1092    0.1851 O.2     1  UNL1       -0.2446
     11 N           1.6989   -4.4310   -0.0267 N.ar    1  UNL1       -0.2260
     12 H           1.6964   -5.4359   -0.1479 H       1  UNL1        0.1937
     13 N           0.6036   -3.6532   -0.1820 N.ar    1  UNL1       -0.1507
     14 C           1.0421   -2.4176   -0.1112 C.ar    1  UNL1        0.1727
     15 C           0.0615   -1.2949   -0.2253 C.ar    1  UNL1        0.0619
     16 C          -1.1656   -1.5568   -0.8695 C.ar    1  UNL1        0.1310
     17 O          -1.5535   -2.7956   -1.3144 O.3     1  UNL1       -0.5059
     18 C          -2.0764   -0.5412   -1.1320 C.ar    1  UNL1        0.0228
     19 C          -1.7729    0.7699   -0.7706 C.ar    1  UNL1        0.1325
     20 O          -2.6941    1.7389   -1.0848 O.3     1  UNL1       -0.5059
     21 C           0.3132    0.0226    0.2116 C.ar    1  UNL1       -0.0319
     22 C          -0.5683    1.0852   -0.1046 C.ar    1  UNL1        0.0791
     23 C          -0.1260    2.5313   -0.0508 C.2     1  UNL1        0.2502
     24 O          -0.4681    3.2487   -0.9952 O.2     1  UNL1       -0.2699
     25 N           0.7400    3.0424    0.9284 N.am    1  UNL1       -0.2957
     26 C           1.1829    2.3572    2.1291 C.3     1  UNL1        0.0038
     27 C           1.4316    4.3023    0.6150 C.3     1  UNL1        0.0459
     28 C           0.8485    5.5009    1.3153 C.ar    1  UNL1        0.0071
     29 S           1.7871    6.3521    2.4795 S.2     1  UNL1       -0.1000
     30 C           0.6029    7.5725    2.6500 C.ar    1  UNL1       -0.0240
     31 C          -0.4932    7.3429    1.8552 C.ar    1  UNL1       -0.0544
     32 C          -0.3518    6.1484    1.0840 C.ar    1  UNL1       -0.0500
     33 H           2.9046    0.3171   -3.0032 H       1  UNL1        0.0278
     34 H           1.5119   -0.1249   -2.0562 H       1  UNL1        0.0278
     35 H           2.6025   -1.3883   -2.6842 H       1  UNL1        0.0278
     36 H           4.4550    1.4269   -1.7379 H       1  UNL1        0.0621
     37 H           6.1500    1.4280    0.0354 H       1  UNL1        0.0618
     38 H           6.1490   -0.3463    1.7652 H       1  UNL1        0.0618
     39 H           4.3911   -2.0494    1.7725 H       1  UNL1        0.0638
     40 H          -0.9141   -3.4614   -0.9761 H       1  UNL1        0.2922
     41 H          -3.0015   -0.7845   -1.6479 H       1  UNL1        0.0691
     42 H          -3.2304    1.4355   -1.8407 H       1  UNL1        0.2922
     43 H           1.2464    0.2296    0.7173 H       1  UNL1        0.0634
     44 H           0.4651    1.5996    2.4455 H       1  UNL1        0.0429
     45 H           1.3167    3.0753    2.9421 H       1  UNL1        0.0429
     46 H           2.1512    1.8920    1.9133 H       1  UNL1        0.0429
     47 H           1.4116    4.4922   -0.4647 H       1  UNL1        0.0519
     48 H           2.4901    4.1697    0.8714 H       1  UNL1        0.0519
     49 H           0.7722    8.4094    3.3214 H       1  UNL1        0.0693
     50 H          -1.3479    8.0087    1.8108 H       1  UNL1        0.0623
     51 H          -1.0833    5.7993    0.3620 H       1  UNL1        0.0626
@<TRIPOS>BOND
     1     1     2    1
     2     2     3   ar
     3     3     4   ar
     4     4     5   ar
     5     5     6   ar
     6     6     7   ar
     7     2     7   ar
     8     7     8    1
     9     8     9   ar
    10     9    10    2
    11     9    11   ar
    12    11    12    1
    13    11    13   ar
    14    13    14   ar
    15     8    14   ar
    16    14    15    1
    17    15    16   ar
    18    16    17    1
    19    16    18   ar
    20    18    19   ar
    21    19    20    1
    22    15    21   ar
    23    21    22   ar
    24    19    22   ar
    25    22    23    1
    26    23    24    2
    27    23    25   am
    28    25    26    1
    29    25    27    1
    30    27    28    1
    31    28    29   ar
    32    29    30   ar
    33    30    31   ar
    34    31    32   ar
    35    28    32   ar
    36     1    33    1
    37     1    34    1
    38     1    35    1
    39     3    36    1
    40     4    37    1
    41     5    38    1
    42     6    39    1
    43    17    40    1
    44    18    41    1
    45    20    42    1
    46    21    43    1
    47    26    44    1
    48    26    45    1
    49    26    46    1
    50    27    47    1
    51    27    48    1
    52    30    49    1
    53    31    50    1
    54    32    51    1
@<TRIPOS>MOLECULE
*****
 50 52 0 0 0
SMALL
GASTEIGER

@<TRIPOS>ATOM
      1 F           2.1201   -0.0109   -1.8523 F       1  UNL1       -0.2033
      2 C           3.2483   -0.2252   -1.1678 C.ar    1  UNL1        0.1473
      3 C           4.1902    0.8084   -1.1797 C.ar    1  UNL1       -0.0244
      4 C           5.4811    0.5781   -0.7266 C.ar    1  UNL1       -0.0589
      5 C           5.8138   -0.6875   -0.2680 C.ar    1  UNL1       -0.0596
      6 C           4.8252   -1.6765   -0.1573 C.ar    1  UNL1       -0.0348
      7 C           3.4895   -1.4561   -0.5570 C.ar    1  UNL1        0.0881
      8 N           2.4855   -2.4558   -0.3381 N.ar    1  UNL1       -0.2408
      9 C           2.8218   -3.8020   -0.1703 C.ar    1  UNL1        0.3490
     10 O           3.8984   -4.3715   -0.1956 O.2     1  UNL1       -0.2446
     11 N           1.6190   -4.4701    0.0040 N.ar    1  UNL1       -0.2260
     12 H           1.5264   -5.4723    0.0974 H       1  UNL1        0.1937
     13 N           0.5759   -3.6230   -0.0880 N.ar    1  UNL1       -0.1507
     14 C           1.0979   -2.4322   -0.2891 C.ar    1  UNL1        0.1728
     15 C           0.1220   -1.2949   -0.4326 C.ar    1  UNL1        0.0619
     16 C          -1.1508   -1.5917   -0.9643 C.ar    1  UNL1        0.1310
     17 O          -1.5669   -2.8542   -1.3085 O.3     1  UNL1       -0.5059
     18 C          -2.0959   -0.5942   -1.1873 C.ar    1  UNL1        0.0228
     19 C          -1.7808    0.7367   -0.9204 C.ar    1  UNL1        0.1325
     20 O          -2.7379    1.6802   -1.1792 O.3     1  UNL1       -0.5059
     21 C           0.3726    0.0435   -0.0690 C.ar    1  UNL1       -0.0319
     22 C          -0.5307    1.0920   -0.3842 C.ar    1  UNL1        0.0791
     23 C          -0.0835    2.5409   -0.4677 C.2     1  UNL1        0.2499
     24 O          -0.4235    3.1637   -1.4764 O.2     1  UNL1       -0.2699
     25 N           0.7768    3.1371    0.4758 N.am    1  UNL1       -0.3005
     26 C           1.2427    2.4665    1.6752 C.3     1  UNL1        0.0035
     27 C           1.5951    4.2925    0.0564 C.3     1  UNL1        0.0147
     28 C           0.9199    5.5953   -0.4066 C.3     1  UNL1       -0.0374
     29 C           0.0363    6.3262    0.6050 C.3     1  UNL1       -0.0545
     30 C           0.7700    6.8041    1.8490 C.3     1  UNL1       -0.0652
     31 H           3.9098    1.7775   -1.5816 H       1  UNL1        0.0647
     32 H           6.2317    1.3625   -0.7720 H       1  UNL1        0.0618
     33 H           6.8394   -0.9148    0.0173 H       1  UNL1        0.0618
     34 H           5.1547   -2.6228    0.2653 H       1  UNL1        0.0639
     35 H          -0.9187   -3.4980   -0.9469 H       1  UNL1        0.2922
     36 H          -3.0657   -0.8680   -1.5940 H       1  UNL1        0.0691
     37 H          -3.3794    1.3224   -1.8162 H       1  UNL1        0.2922
     38 H           1.3254    0.2823    0.3775 H       1  UNL1        0.0634
     39 H           0.5303    1.7172    2.0224 H       1  UNL1        0.0429
     40 H           1.3865    3.2011    2.4712 H       1  UNL1        0.0429
     41 H           2.2068    1.9973    1.4488 H       1  UNL1        0.0429
     42 H           2.2294    3.9332   -0.7640 H       1  UNL1        0.0464
     43 H           2.2760    4.5440    0.8781 H       1  UNL1        0.0464
     44 H           0.3389    5.4280   -1.3186 H       1  UNL1        0.0280
     45 H           1.7241    6.2850   -0.7024 H       1  UNL1        0.0280
     46 H          -0.8118    5.6967    0.8903 H       1  UNL1        0.0263
     47 H          -0.3821    7.2122    0.1076 H       1  UNL1        0.0263
     48 H           1.1714    5.9674    2.4261 H       1  UNL1        0.0230
     49 H           0.0825    7.3583    2.4977 H       1  UNL1        0.0230
     50 H           1.5945    7.4770    1.5900 H       1  UNL1        0.0230
@<TRIPOS>BOND
     1     1     2    1
     2     2     3   ar
     3     3     4   ar
     4     4     5   ar
     5     5     6   ar
     6     6     7   ar
     7     2     7   ar
     8     7     8    1
     9     8     9   ar
    10     9    10    2
    11     9    11   ar
    12    11    12    1
    13    11    13   ar
    14    13    14   ar
    15     8    14   ar
    16    14    15    1
    17    15    16   ar
    18    16    17    1
    19    16    18   ar
    20    18    19   ar
    21    19    20    1
    22    15    21   ar
    23    21    22   ar
    24    19    22   ar
    25    22    23    1
    26    23    24    2
    27    23    25   am
    28    25    26    1
    29    25    27    1
    30    27    28    1
    31    28    29    1
    32    29    30    1
    33     3    31    1
    34     4    32    1
    35     5    33    1
    36     6    34    1
    37    17    35    1
    38    18    36    1
    39    20    37    1
    40    21    38    1
    41    26    39    1
    42    26    40    1
    43    26    41    1
    44    27    42    1
    45    27    43    1
    46    28    44    1
    47    28    45    1
    48    29    46    1
    49    29    47    1
    50    30    48    1
    51    30    49    1
    52    30    50    1
@<TRIPOS>MOLECULE
*****
 48 51 0 0 0
SMALL
GASTEIGER

@<TRIPOS>ATOM
      1 N           0.7148    0.2691    0.8939 N.pl3   1  UNL1       -0.3243
      2 C          -0.1948   -0.7435    1.0521 C.2     1  UNL1       -0.0101
      3 C          -0.8274   -1.2991    0.0087 C.2     1  UNL1       -0.0664
      4 C          -0.5583   -0.8086   -1.3961 C.3     1  UNL1       -0.0134
      5 C           0.4482    0.3188   -1.4530 C.2     1  UNL1       -0.0632
      6 C           1.0262    0.8123   -0.3363 C.2     1  UNL1        0.0043
      7 C           1.9235    2.0320   -0.3713 C.3     1  UNL1       -0.0107
      8 C           3.3400    1.8374    0.2089 C.3     1  UNL1       -0.0191
      9 C           4.3138    2.9603   -0.1183 C.ar    1  UNL1       -0.0047
     10 C           3.9774    4.3119   -0.1010 C.ar    1  UNL1        0.1235
     11 O           2.7784    4.7490    0.3688 O.3     1  UNL1       -0.5064
     12 C           4.8653    5.2824   -0.5566 C.ar    1  UNL1        0.0222
     13 C           6.0892    4.8920   -1.1040 C.ar    1  UNL1        0.1295
     14 O           6.8855    5.8713   -1.6444 O.3     1  UNL1       -0.5060
     15 C           6.4956    3.5401   -1.1204 C.ar    1  UNL1        0.0423
     16 C           5.6307    2.6217   -0.4991 C.ar    1  UNL1       -0.0424
     17 C           7.7588    3.1115   -1.7900 C.ar    1  UNL1        0.0782
     18 C           8.9249    3.8656   -1.8942 C.ar    1  UNL1       -0.0158
     19 C           9.8274    3.1143   -2.6345 C.ar    1  UNL1        0.0504
     20 N           9.3320    1.9350   -2.9696 N.ar    1  UNL1       -0.1742
     21 N           8.0807    1.8858   -2.4311 N.ar    1  UNL1       -0.2306
     22 C           7.3185    0.6871   -2.6338 C.ar    1  UNL1        0.0843
     23 C           7.9211   -0.5891   -2.6713 C.ar    1  UNL1        0.0663
     24 CL          9.6194   -0.9162   -2.5335 Cl      1  UNL1       -0.0813
     25 C           7.1182   -1.7403   -2.7372 C.ar    1  UNL1       -0.0413
     26 C           5.7290   -1.6449   -2.7581 C.ar    1  UNL1       -0.0603
     27 C           5.1332   -0.3914   -2.7938 C.ar    1  UNL1       -0.0597
     28 C           5.9241    0.7608   -2.7814 C.ar    1  UNL1       -0.0348
     29 H           1.0502    0.7390    1.7300 H       1  UNL1        0.1513
     30 H          -0.3698   -1.0566    2.0761 H       1  UNL1        0.0778
     31 H          -1.5465   -2.0966    0.1542 H       1  UNL1        0.0587
     32 H          -1.5042   -0.4579   -1.8275 H       1  UNL1        0.0351
     33 H          -0.2039   -1.6447   -2.0050 H       1  UNL1        0.0351
     34 H           0.6481    0.7473   -2.4285 H       1  UNL1        0.0590
     35 H           1.3967    2.8072    0.1966 H       1  UNL1        0.0329
     36 H           2.0014    2.4012   -1.4030 H       1  UNL1        0.0329
     37 H           3.7394    0.9017   -0.2057 H       1  UNL1        0.0318
     38 H           3.2990    1.7111    1.2952 H       1  UNL1        0.0318
     39 H           2.1700    4.7393   -0.3910 H       1  UNL1        0.2921
     40 H           4.5720    6.3260   -0.5180 H       1  UNL1        0.0691
     41 H           6.4932    6.7423   -1.4650 H       1  UNL1        0.2922
     42 H           5.9488    1.5895   -0.3667 H       1  UNL1        0.0629
     43 H           9.0870    4.8596   -1.5004 H       1  UNL1        0.0655
     44 H          10.8306    3.3745   -2.9501 H       1  UNL1        0.0848
     45 H           7.5781   -2.7271   -2.7421 H       1  UNL1        0.0633
     46 H           5.1205   -2.5448   -2.7583 H       1  UNL1        0.0618
     47 H           4.0488   -0.3082   -2.8229 H       1  UNL1        0.0618
     48 H           5.4198    1.7188   -2.8785 H       1  UNL1        0.0639
@<TRIPOS>BOND
     1     1     2    1
     2     2     3    2
     3     3     4    1
     4     4     5    1
     5     5     6    2
     6     1     6    1
     7     6     7    1
     8     7     8    1
     9     8     9    1
    10     9    10   ar
    11    10    11    1
    12    10    12   ar
    13    12    13   ar
    14    13    14    1
    15    13    15   ar
    16    15    16   ar
    17     9    16   ar
    18    15    17    1
    19    17    18   ar
    20    18    19   ar
    21    19    20   ar
    22    20    21   ar
    23    17    21   ar
    24    21    22    1
    25    22    23   ar
    26    23    24    1
    27    23    25   ar
    28    25    26   ar
    29    26    27   ar
    30    27    28   ar
    31    22    28   ar
    32     1    29    1
    33     2    30    1
    34     3    31    1
    35     4    32    1
    36     4    33    1
    37     5    34    1
    38     7    35    1
    39     7    36    1
    40     8    37    1
    41     8    38    1
    42    11    39    1
    43    12    40    1
    44    14    41    1
    45    16    42    1
    46    18    43    1
    47    19    44    1
    48    25    45    1
    49    26    46    1
    50    27    47    1
    51    28    48    1
@<TRIPOS>MOLECULE
*****
 48 50 0 0 0
SMALL
GASTEIGER

@<TRIPOS>ATOM
      1 C           4.7206    4.2691    0.6379 C.3     1  UNL1       -0.0641
      2 C           4.0333    4.5642   -0.6860 C.3     1  UNL1       -0.0414
      3 C           4.5426    3.6998   -1.8431 C.3     1  UNL1        0.0200
      4 N           4.3945    2.2300   -1.6060 N.3     1  UNL1       -0.1795
      5 C           2.9749    1.8168   -1.4071 C.3     1  UNL1        0.0089
      6 S           5.1199    1.2622   -2.8452 S.O2    1  UNL1        0.0641
      7 O           4.8544   -0.1216   -2.4953 O.2     1  UNL1       -0.1527
      8 O           4.6769    1.7634   -4.1250 O.2     1  UNL1       -0.1527
      9 C           6.8780    1.4957   -2.6731 C.ar    1  UNL1        0.1475
     10 C           7.5629    0.5317   -1.9186 C.ar    1  UNL1       -0.0175
     11 C           8.9573    0.4394   -1.9581 C.ar    1  UNL1        0.0631
     12 C           9.6691    1.4226   -2.6549 C.ar    1  UNL1        0.1311
     13 O          11.0363    1.4954   -2.6679 O.3     1  UNL1       -0.5059
     14 C           8.9969    2.4145   -3.3720 C.ar    1  UNL1        0.0240
     15 C           7.5994    2.4375   -3.4011 C.ar    1  UNL1        0.1466
     16 O           6.9700    3.4178   -4.1065 O.3     1  UNL1       -0.5047
     17 C           9.6678   -0.6314   -1.2223 C.ar    1  UNL1        0.1728
     18 N          10.8787   -0.4489   -0.7567 N.ar    1  UNL1       -0.1507
     19 N          11.1301   -1.5787   -0.0321 N.ar    1  UNL1       -0.2260
     20 H          11.9896   -1.7375    0.4767 H       1  UNL1        0.1937
     21 C          10.0443   -2.4496   -0.0670 C.ar    1  UNL1        0.3490
     22 O           9.9917   -3.5265    0.4957 O.2     1  UNL1       -0.2446
     23 N           9.1138   -1.8350   -0.8764 N.ar    1  UNL1       -0.2408
     24 C           7.9624   -2.4916   -1.3464 C.ar    1  UNL1        0.0881
     25 C           7.7134   -2.6608   -2.7142 C.ar    1  UNL1        0.1473
     26 F           8.6050   -2.2349   -3.6223 F       1  UNL1       -0.2033
     27 C           6.5592   -3.3038   -3.1589 C.ar    1  UNL1       -0.0244
     28 C           5.6195   -3.7546   -2.2313 C.ar    1  UNL1       -0.0589
     29 C           5.8477   -3.5782   -0.8658 C.ar    1  UNL1       -0.0596
     30 C           7.0268   -2.9730   -0.4235 C.ar    1  UNL1       -0.0348
     31 H           4.3417    4.9423    1.4139 H       1  UNL1        0.0230
     32 H           5.8018    4.4181    0.5590 H       1  UNL1        0.0230
     33 H           4.5352    3.2425    0.9677 H       1  UNL1        0.0230
     34 H           4.2090    5.6161   -0.9423 H       1  UNL1        0.0275
     35 H           2.9494    4.4657   -0.5662 H       1  UNL1        0.0275
     36 H           5.6018    3.9342   -1.9743 H       1  UNL1        0.0444
     37 H           4.0107    3.9812   -2.7589 H       1  UNL1        0.0444
     38 H           2.4879    2.4077   -0.6291 H       1  UNL1        0.0408
     39 H           2.9306    0.7787   -1.0625 H       1  UNL1        0.0408
     40 H           2.4016    1.9212   -2.3335 H       1  UNL1        0.0408
     41 H           6.9792   -0.1540   -1.3122 H       1  UNL1        0.0646
     42 H          11.3866    0.8715   -1.9946 H       1  UNL1        0.2922
     43 H           9.5826    3.1582   -3.9059 H       1  UNL1        0.0691
     44 H           7.6241    3.9265   -4.6167 H       1  UNL1        0.2922
     45 H           6.3925   -3.4439   -4.2227 H       1  UNL1        0.0647
     46 H           4.7049   -4.2356   -2.5707 H       1  UNL1        0.0618
     47 H           5.1036   -3.9060   -0.1438 H       1  UNL1        0.0618
     48 H           7.1837   -2.8341    0.6442 H       1  UNL1        0.0639
@<TRIPOS>BOND
     1     1     2    1
     2     2     3    1
     3     3     4    1
     4     4     5    1
     5     4     6    1
     6     6     7    2
     7     6     8    2
     8     6     9    1
     9     9    10   ar
    10    10    11   ar
    11    11    12   ar
    12    12    13    1
    13    12    14   ar
    14    14    15   ar
    15     9    15   ar
    16    15    16    1
    17    11    17    1
    18    17    18   ar
    19    18    19   ar
    20    19    20    1
    21    19    21   ar
    22    21    22    2
    23    21    23   ar
    24    17    23   ar
    25    23    24    1
    26    24    25   ar
    27    25    26    1
    28    25    27   ar
    29    27    28   ar
    30    28    29   ar
    31    29    30   ar
    32    24    30   ar
    33     1    31    1
    34     1    32    1
    35     1    33    1
    36     2    34    1
    37     2    35    1
    38     3    36    1
    39     3    37    1
    40     5    38    1
    41     5    39    1
    42     5    40    1
    43    10    41    1
    44    13    42    1
    45    14    43    1
    46    16    44    1
    47    27    45    1
    48    28    46    1
    49    29    47    1
    50    30    48    1
@<TRIPOS>MOLECULE
*****
 48 50 0 0 0
SMALL
GASTEIGER

@<TRIPOS>ATOM
      1 C           9.4470    2.9329   -0.7314 C.3     1  UNL1       -0.0481
      2 C           7.9558    2.9323   -1.0367 C.3     1  UNL1        0.0259
      3 C           7.0121    2.6250    0.1285 C.3     1  UNL1       -0.0481
      4 N           6.8568    1.1724    0.4474 N.3     1  UNL1       -0.1770
      5 C           8.0083    0.5734    1.1585 C.3     1  UNL1        0.0092
      6 S           5.3355    0.7479    1.1755 S.O2    1  UNL1        0.0643
      7 O           4.2875    1.4121    0.4238 O.2     1  UNL1       -0.1527
      8 O           5.2863   -0.6826    1.3764 O.2     1  UNL1       -0.1527
      9 C           5.4488    1.5802    2.7531 C.ar    1  UNL1        0.1475
     10 C           5.0355    2.9206    2.7871 C.ar    1  UNL1       -0.0175
     11 C           5.2007    3.7029    3.9330 C.ar    1  UNL1        0.0631
     12 C           5.7938    3.1069    5.0560 C.ar    1  UNL1        0.1311
     13 O           6.1017    3.7980    6.1984 O.3     1  UNL1       -0.5059
     14 C           6.1676    1.7599    5.0456 C.ar    1  UNL1        0.0240
     15 C           6.0110    0.9950    3.8884 C.ar    1  UNL1        0.1466
     16 O           6.4989   -0.2716    3.8644 O.3     1  UNL1       -0.5047
     17 C           4.9646    5.1686    3.8895 C.ar    1  UNL1        0.1728
     18 N           5.6572    5.9758    4.6562 N.ar    1  UNL1       -0.1507
     19 N           5.3189    7.2241    4.2261 N.ar    1  UNL1       -0.2260
     20 H           5.7123    8.0729    4.6097 H       1  UNL1        0.1937
     21 C           4.4038    7.1629    3.1808 C.ar    1  UNL1        0.3490
     22 O           3.9311    8.1291    2.6024 O.2     1  UNL1       -0.2446
     23 N           4.1604    5.8188    2.9894 N.ar    1  UNL1       -0.2408
     24 C           3.1452    5.3364    2.1435 C.ar    1  UNL1        0.0881
     25 C           2.1775    4.4345    2.5996 C.ar    1  UNL1        0.1473
     26 F           2.1626    4.0545    3.8857 F       1  UNL1       -0.2033
     27 C           1.2021    3.9328    1.7418 C.ar    1  UNL1       -0.0244
     28 C           1.1977    4.3173    0.4019 C.ar    1  UNL1       -0.0589
     29 C           2.1567    5.2150   -0.0681 C.ar    1  UNL1       -0.0596
     30 C           3.1138    5.7411    0.8034 C.ar    1  UNL1       -0.0348
     31 H           9.9910    3.3532   -1.5851 H       1  UNL1        0.0245
     32 H           9.8444    1.9290   -0.5806 H       1  UNL1        0.0245
     33 H           9.6827    3.5431    0.1459 H       1  UNL1        0.0245
     34 H           7.7173    3.9518   -1.3701 H       1  UNL1        0.0474
     35 H           7.7511    2.2697   -1.8836 H       1  UNL1        0.0245
     36 H           6.0352    3.0044   -0.1966 H       1  UNL1        0.0245
     37 H           7.2978    3.1905    1.0210 H       1  UNL1        0.0245
     38 H           8.8754    0.5202    0.5045 H       1  UNL1        0.0408
     39 H           7.8022   -0.4604    1.4492 H       1  UNL1        0.0408
     40 H           8.2687    1.1558    2.0470 H       1  UNL1        0.0408
     41 H           4.6654    3.3545    1.8651 H       1  UNL1        0.0646
     42 H           6.0218    4.7586    6.0102 H       1  UNL1        0.2922
     43 H           6.6311    1.3423    5.9369 H       1  UNL1        0.0691
     44 H           6.8696   -0.5085    4.7321 H       1  UNL1        0.2922
     45 H           0.4544    3.2426    2.1198 H       1  UNL1        0.0647
     46 H           0.4496    3.9156   -0.2781 H       1  UNL1        0.0618
     47 H           2.1646    5.4993   -1.1182 H       1  UNL1        0.0618
     48 H           3.8633    6.4265    0.4130 H       1  UNL1        0.0639
@<TRIPOS>BOND
     1     1     2    1
     2     2     3    1
     3     2     4    1
     4     4     5    1
     5     4     6    1
     6     6     7    2
     7     6     8    2
     8     6     9    1
     9     9    10   ar
    10    10    11   ar
    11    11    12   ar
    12    12    13    1
    13    12    14   ar
    14    14    15   ar
    15     9    15   ar
    16    15    16    1
    17    11    17    1
    18    17    18   ar
    19    18    19   ar
    20    19    20    1
    21    19    21   ar
    22    21    22    2
    23    21    23   ar
    24    17    23   ar
    25    23    24    1
    26    24    25   ar
    27    25    26    1
    28    25    27   ar
    29    27    28   ar
    30    28    29   ar
    31    29    30   ar
    32    24    30   ar
    33     1    31    1
    34     1    32    1
    35     1    33    1
    36     2    34    1
    37     3    35    1
    38     3    36    1
    39     3    37    1
    40     5    38    1
    41     5    39    1
    42     5    40    1
    43    10    41    1
    44    13    42    1
    45    14    43    1
    46    16    44    1
    47    27    45    1
    48    28    46    1
    49    29    47    1
    50    30    48    1
@<TRIPOS>MOLECULE
*****
 54 60 0 0 0
SMALL
GASTEIGER

@<TRIPOS>ATOM
      1 C          -1.2654    1.5553    0.0585 C.ar    1  UNL1       -0.0357
      2 C          -2.4824    0.9167   -0.2136 C.ar    1  UNL1       -0.0597
      3 C          -2.4956   -0.4208   -0.5919 C.ar    1  UNL1       -0.0611
      4 C          -1.2908   -1.0907   -0.7682 C.ar    1  UNL1       -0.0525
      5 C          -0.0749   -0.4369   -0.5122 C.ar    1  UNL1        0.0010
      6 C          -0.0516    0.8813   -0.0331 C.ar    1  UNL1        0.0710
      7 C           1.1449   -1.0995   -0.6828 C.ar    1  UNL1       -0.0434
      8 C           2.3336   -0.5987   -0.1547 C.ar    1  UNL1        0.0014
      9 C           2.2329    0.7110    0.3222 C.ar    1  UNL1        0.0360
     10 N           1.0985    1.4672    0.3454 N.ar    1  UNL1       -0.2544
     11 C           3.5875   -1.3948   -0.1358 C.ar    1  UNL1       -0.0084
     12 C           4.8250   -0.7113   -0.3037 C.ar    1  UNL1       -0.0534
     13 C           6.0641   -1.3668   -0.4112 C.ar    1  UNL1       -0.0608
     14 C           6.1179   -2.7495   -0.4022 C.ar    1  UNL1       -0.0559
     15 C           3.6703   -2.8030   -0.0302 C.ar    1  UNL1       -0.0045
     16 C           4.9303   -3.4438   -0.2302 C.ar    1  UNL1       -0.0145
     17 C           4.7921   -4.9571   -0.2776 C.3     1  UNL1        0.0751
     18 H           5.3434   -5.4118    0.5554 H       1  UNL1        0.0599
     19 C           3.3050   -5.1328   -0.0727 C.ar    1  UNL1       -0.0151
     20 C           2.6831   -3.8875    0.1696 C.ar    1  UNL1       -0.0117
     21 C           2.6028   -6.3352   -0.0662 C.ar    1  UNL1       -0.0559
     22 C           1.2375   -6.3029    0.1942 C.ar    1  UNL1       -0.0614
     23 C           0.6210   -5.0926    0.5245 C.ar    1  UNL1       -0.0612
     24 C           1.3537   -3.8973    0.5626 C.ar    1  UNL1       -0.0537
     25 N           5.2271   -5.4789   -1.5517 N.am    1  UNL1       -0.3004
     26 C           5.7197   -6.7569   -1.6786 C.2     1  UNL1        0.2481
     27 O           5.8806   -7.5041   -0.7220 O.2     1  UNL1       -0.2701
     28 C           6.0508   -7.1920   -3.0552 C.ar    1  UNL1        0.0810
     29 C           7.0711   -8.1074   -3.3600 C.ar    1  UNL1        0.0502
     30 BR          8.2275   -8.8948   -2.0773 Br      1  UNL1       -0.0479
     31 C           7.3037   -8.4371   -4.6981 C.ar    1  UNL1        0.0447
     32 N           6.6234   -7.9638   -5.7739 N.ar    1  UNL1       -0.2348
     33 C           5.6598   -7.1022   -5.4165 C.ar    1  UNL1        0.1584
     34 C           5.3212   -6.6725   -4.1412 C.ar    1  UNL1        0.1208
     35 N           4.7979   -6.4610   -6.2576 N.ar    1  UNL1       -0.3293
     36 H           4.7792   -6.5646   -7.2612 H       1  UNL1        0.1682
     37 C           3.9795   -5.6794   -5.4904 C.ar    1  UNL1        0.0956
     38 N           4.2793   -5.7658   -4.2113 N.ar    1  UNL1       -0.2335
     39 H          -1.2665    2.5968    0.3699 H       1  UNL1        0.0639
     40 H          -3.4165    1.4610   -0.1078 H       1  UNL1        0.0618
     41 H          -3.4367   -0.9419   -0.7463 H       1  UNL1        0.0618
     42 H          -1.3002   -2.1402   -1.0526 H       1  UNL1        0.0624
     43 H           1.1459   -2.0581   -1.1934 H       1  UNL1        0.0631
     44 H           3.0953    1.2379    0.7239 H       1  UNL1        0.0836
     45 H           4.8486    0.3750   -0.3900 H       1  UNL1        0.0624
     46 H           6.9746   -0.7863   -0.5363 H       1  UNL1        0.0618
     47 H           7.0644   -3.2731   -0.5262 H       1  UNL1        0.0621
     48 H           3.1078   -7.2776   -0.2603 H       1  UNL1        0.0621
     49 H           0.6576   -7.2218    0.1718 H       1  UNL1        0.0618
     50 H          -0.4403   -5.0788    0.7619 H       1  UNL1        0.0618
     51 H           0.8502   -3.0012    0.8999 H       1  UNL1        0.0624
     52 H           4.8628   -5.0171   -2.3819 H       1  UNL1        0.1499
     53 H           8.1020   -9.1302   -4.9615 H       1  UNL1        0.0842
     54 H           3.1896   -5.0748   -5.9181 H       1  UNL1        0.1027
@<TRIPOS>BOND
     1     1     2   ar
     2     2     3   ar
     3     3     4   ar
     4     4     5   ar
     5     5     6   ar
     6     1     6   ar
     7     5     7   ar
     8     7     8   ar
     9     8     9   ar
    10     9    10   ar
    11     6    10   ar
    12     8    11    1
    13    11    12   ar
    14    12    13   ar
    15    13    14   ar
    16    11    15   ar
    17    15    16   ar
    18    14    16   ar
    19    16    17    1
    20    17    19    1
    21    19    20   ar
    22    15    20    1
    23    19    21   ar
    24    21    22   ar
    25    22    23   ar
    26    23    24   ar
    27    20    24   ar
    28    25    26   am
    29    26    27    2
    30    26    28    1
    31    28    29   ar
    32    29    30    1
    33    29    31   ar
    34    31    32   ar
    35    32    33   ar
    36    33    34   ar
    37    28    34   ar
    38    33    35   ar
    39    35    36    1
    40    35    37   ar
    41    37    38   ar
    42    34    38   ar
    43    17    25    1
    44    17    18    1
    45     1    39    1
    46     2    40    1
    47     3    41    1
    48     4    42    1
    49     7    43    1
    50     9    44    1
    51    12    45    1
    52    13    46    1
    53    14    47    1
    54    21    48    1
    55    22    49    1
    56    23    50    1
    57    24    51    1
    58    25    52    1
    59    31    53    1
    60    37    54    1
@<TRIPOS>MOLECULE
*****
 53 59 0 0 0
SMALL
GASTEIGER

@<TRIPOS>ATOM
      1 C           2.6122    0.2885   -3.1124 C.ar    1  UNL1       -0.0344
      2 C           2.3944   -0.9863   -3.5827 C.ar    1  UNL1        0.0041
      3 N           1.7974   -1.6993   -2.5805 N.ar    1  UNL1       -0.3458
      4 H           1.5236   -2.6741   -2.6134 H       1  UNL1        0.1668
      5 C           1.6369   -0.9098   -1.4741 C.ar    1  UNL1        0.1388
      6 C           2.1285    0.3595   -1.7712 C.ar    1  UNL1        0.0307
      7 N           1.0973   -1.3316   -0.3203 N.ar    1  UNL1       -0.2375
      8 C           1.0727   -0.3746    0.6338 C.ar    1  UNL1        0.0306
      9 C           1.5184    0.9298    0.4873 C.ar    1  UNL1       -0.0308
     10 C           2.0449    1.3312   -0.7467 C.ar    1  UNL1        0.0488
     11 C           2.6050    2.6924   -0.9466 C.2     1  UNL1        0.2455
     12 O           3.5802    2.8449   -1.6752 O.2     1  UNL1       -0.2702
     13 N           2.0067    3.7405   -0.2633 N.am    1  UNL1       -0.3005
     14 C           2.6674    5.0237   -0.1952 C.3     1  UNL1        0.0751
     15 H           3.7513    4.8631   -0.2773 H       1  UNL1        0.0599
     16 C           2.4443    5.7997    1.0866 C.ar    1  UNL1       -0.0151
     17 C           2.3430    7.1834    0.7929 C.ar    1  UNL1       -0.0116
     18 C           2.4707    5.3184    2.3920 C.ar    1  UNL1       -0.0559
     19 C           2.4326    6.2386    3.4404 C.ar    1  UNL1       -0.0614
     20 C           2.4070    7.6099    3.1682 C.ar    1  UNL1       -0.0612
     21 C           2.3689    8.0772    1.8493 C.ar    1  UNL1       -0.0537
     22 C           2.2954    6.0586   -1.2464 C.ar    1  UNL1       -0.0144
     23 C           2.2353    7.3666   -0.6631 C.ar    1  UNL1       -0.0017
     24 C           2.0946    8.4926   -1.4979 C.ar    1  UNL1        0.0253
     25 C           2.0009    8.2516   -2.8901 C.ar    1  UNL1       -0.0505
     26 C           2.0176    6.9548   -3.4333 C.ar    1  UNL1       -0.0607
     27 C           2.1668    5.8461   -2.6107 C.ar    1  UNL1       -0.0559
     28 C           2.0301    9.8872   -1.0224 C.ar    1  UNL1        0.1399
     29 N           2.5447   10.9737   -1.7094 N.ar    1  UNL1       -0.3379
     30 H           3.0181   10.9309   -2.6000 H       1  UNL1        0.1674
     31 N           1.4668   10.3133    0.0914 N.ar    1  UNL1       -0.2276
     32 C           1.7325   11.6517    0.1907 C.ar    1  UNL1        0.0922
     33 C           2.3746   12.1096   -0.9515 C.ar    1  UNL1        0.0666
     34 C           1.4598   12.5344    1.2412 C.ar    1  UNL1        0.0010
     35 C           1.8214   13.8688    1.0778 C.ar    1  UNL1        0.1255
     36 F           1.5803   14.7347    2.0723 F       1  UNL1       -0.2054
     37 C           2.4265   14.3288   -0.0903 C.ar    1  UNL1       -0.0244
     38 C           2.7243   13.4510   -1.1426 C.ar    1  UNL1       -0.0335
     39 H           3.0827    1.0941   -3.6652 H       1  UNL1        0.0639
     40 H           2.6194   -1.4483   -4.5375 H       1  UNL1        0.0807
     41 H           0.6746   -0.7139    1.5905 H       1  UNL1        0.0830
     42 H           1.4938    1.5995    1.3393 H       1  UNL1        0.0640
     43 H           1.1238    3.6246    0.2126 H       1  UNL1        0.1499
     44 H           2.5466    4.2568    2.5996 H       1  UNL1        0.0621
     45 H           2.4568    5.8969    4.4698 H       1  UNL1        0.0618
     46 H           2.4204    8.3262    3.9897 H       1  UNL1        0.0618
     47 H           2.3745    9.1496    1.7049 H       1  UNL1        0.0624
     48 H           1.8874    9.0786   -3.5884 H       1  UNL1        0.0625
     49 H           1.9294    6.8170   -4.5089 H       1  UNL1        0.0618
     50 H           2.2108    4.8444   -3.0281 H       1  UNL1        0.0621
     51 H           0.9934   12.1871    2.1541 H       1  UNL1        0.0668
     52 H           2.6732   15.3844   -0.1701 H       1  UNL1        0.0647
     53 H           3.2061   13.8045   -2.0476 H       1  UNL1        0.0640
@<TRIPOS>BOND
     1     1     2   ar
     2     2     3   ar
     3     3     4    1
     4     3     5   ar
     5     5     6   ar
     6     1     6   ar
     7     5     7   ar
     8     7     8   ar
     9     8     9   ar
    10     9    10   ar
    11     6    10   ar
    12    10    11    1
    13    11    12    2
    14    11    13   am
    15    13    14    1
    16    14    15    1
    17    14    16    1
    18    16    17   ar
    19    16    18   ar
    20    18    19   ar
    21    19    20   ar
    22    20    21   ar
    23    17    21   ar
    24    14    22    1
    25    22    23   ar
    26    17    23    1
    27    23    24   ar
    28    24    25   ar
    29    25    26   ar
    30    26    27   ar
    31    22    27   ar
    32    24    28    1
    33    28    29   ar
    34    29    30    1
    35    28    31   ar
    36    31    32   ar
    37    32    33   ar
    38    29    33   ar
    39    32    34   ar
    40    34    35   ar
    41    35    36    1
    42    35    37   ar
    43    37    38   ar
    44    33    38   ar
    45     1    39    1
    46     2    40    1
    47     8    41    1
    48     9    42    1
    49    13    43    1
    50    18    44    1
    51    19    45    1
    52    20    46    1
    53    21    47    1
    54    25    48    1
    55    26    49    1
    56    27    50    1
    57    34    51    1
    58    37    52    1
    59    38    53    1
@<TRIPOS>MOLECULE
*****
 52 58 0 0 0
SMALL
GASTEIGER

@<TRIPOS>ATOM
      1 C           0.9217   -1.5160    0.3018 C.ar    1  UNL1       -0.0161
      2 C           2.0902   -0.7941    0.0962 C.ar    1  UNL1        0.0297
      3 N           2.1485    0.5089   -0.2762 N.ar    1  UNL1       -0.2611
      4 C           0.9974    1.1710   -0.5292 C.ar    1  UNL1        0.0530
      5 C          -0.1943    0.4871   -0.3810 C.ar    1  UNL1        0.0848
      6 C          -0.2634   -0.8134    0.0878 C.ar    1  UNL1        0.0924
      7 N          -1.4957    0.8096   -0.6433 N.ar    1  UNL1       -0.3367
      8 H          -1.8141    1.6382   -1.1225 H       1  UNL1        0.1674
      9 C          -2.3080   -0.1214   -0.0489 C.ar    1  UNL1        0.1399
     10 N          -1.5780   -1.1806    0.2823 N.ar    1  UNL1       -0.2276
     11 C          -3.7669    0.0143    0.0678 C.ar    1  UNL1        0.0253
     12 C          -4.5117   -1.1900    0.0929 C.ar    1  UNL1       -0.0505
     13 C          -5.9140   -1.2112    0.0995 C.ar    1  UNL1       -0.0607
     14 C          -6.6257   -0.0241    0.0643 C.ar    1  UNL1       -0.0559
     15 C          -4.4856    1.2209    0.1093 C.ar    1  UNL1       -0.0017
     16 C          -5.9114    1.1641    0.0557 C.ar    1  UNL1       -0.0144
     17 C          -4.1144    2.6451    0.1533 C.ar    1  UNL1       -0.0116
     18 C          -5.2785    3.4299   -0.0117 C.ar    1  UNL1       -0.0151
     19 C          -5.2424    4.8196   -0.0901 C.ar    1  UNL1       -0.0559
     20 C          -4.0097    5.4558    0.0069 C.ar    1  UNL1       -0.0614
     21 C          -2.8560    4.7067    0.2558 C.ar    1  UNL1       -0.0612
     22 C          -2.9148    3.3096    0.3730 C.ar    1  UNL1       -0.0537
     23 C          -6.5191    2.5547   -0.0205 C.3     1  UNL1        0.0751
     24 H          -7.1199    2.7521    0.8742 H       1  UNL1        0.0599
     25 N          -7.2737    2.7559   -1.2280 N.am    1  UNL1       -0.3005
     26 C          -8.6389    2.6101   -1.2663 C.2     1  UNL1        0.2455
     27 O          -9.3108    2.2212   -0.3214 O.2     1  UNL1       -0.2702
     28 C          -9.2908    2.9350   -2.5535 C.ar    1  UNL1        0.0488
     29 C         -10.4539    2.2490   -2.9225 C.ar    1  UNL1       -0.0308
     30 C         -11.0764    2.5880   -4.1133 C.ar    1  UNL1        0.0306
     31 N         -10.6628    3.5466   -4.9723 N.ar    1  UNL1       -0.2375
     32 C          -9.5577    4.1912   -4.5583 C.ar    1  UNL1        0.1388
     33 C          -8.8247    3.9627   -3.3979 C.ar    1  UNL1        0.0307
     34 N          -8.9734    5.2241   -5.2385 N.ar    1  UNL1       -0.3458
     35 H          -9.3264    5.5878   -6.1114 H       1  UNL1        0.1668
     36 C          -7.8877    5.6855   -4.5421 C.ar    1  UNL1        0.0041
     37 C          -7.7738    4.9275   -3.3959 C.ar    1  UNL1       -0.0344
     38 H           0.9294   -2.5504    0.6138 H       1  UNL1        0.0655
     39 H           3.0597   -1.2647    0.2379 H       1  UNL1        0.0830
     40 H           1.0694    2.2090   -0.8271 H       1  UNL1        0.0851
     41 H          -3.9851   -2.1457    0.0897 H       1  UNL1        0.0625
     42 H          -6.4425   -2.1608    0.1130 H       1  UNL1        0.0618
     43 H          -7.7121   -0.0214    0.0480 H       1  UNL1        0.0621
     44 H          -6.1541    5.3964   -0.2138 H       1  UNL1        0.0621
     45 H          -3.9477    6.5392   -0.0666 H       1  UNL1        0.0618
     46 H          -1.9041    5.2194    0.3849 H       1  UNL1        0.0618
     47 H          -2.0115    2.7959    0.6759 H       1  UNL1        0.0624
     48 H          -6.7571    2.8352   -2.0918 H       1  UNL1        0.1499
     49 H         -10.8672    1.4697   -2.2902 H       1  UNL1        0.0640
     50 H         -11.9814    2.0692   -4.4218 H       1  UNL1        0.0830
     51 H          -7.3013    6.5165   -4.9097 H       1  UNL1        0.0807
     52 H          -7.0193    5.0736   -2.6353 H       1  UNL1        0.0639
@<TRIPOS>BOND
     1     1     2   ar
     2     2     3   ar
     3     3     4   ar
     4     4     5   ar
     5     5     6   ar
     6     1     6   ar
     7     5     7   ar
     8     7     8    1
     9     7     9   ar
    10     9    10   ar
    11     6    10   ar
    12     9    11    1
    13    11    12   ar
    14    12    13   ar
    15    13    14   ar
    16    11    15   ar
    17    15    16   ar
    18    14    16   ar
    19    15    17    1
    20    17    18   ar
    21    18    19   ar
    22    19    20   ar
    23    20    21   ar
    24    21    22   ar
    25    17    22   ar
    26    18    23    1
    27    16    23    1
    28    25    26   am
    29    26    27    2
    30    26    28    1
    31    28    29   ar
    32    29    30   ar
    33    30    31   ar
    34    31    32   ar
    35    32    33   ar
    36    28    33   ar
    37    32    34   ar
    38    34    35    1
    39    34    36   ar
    40    36    37   ar
    41    33    37   ar
    42    23    25    1
    43    23    24    1
    44     1    38    1
    45     2    39    1
    46     4    40    1
    47    12    41    1
    48    13    42    1
    49    14    43    1
    50    19    44    1
    51    20    45    1
    52    21    46    1
    53    22    47    1
    54    25    48    1
    55    29    49    1
    56    30    50    1
    57    36    51    1
    58    37    52    1
@<TRIPOS>MOLECULE
*****
 66 71 0 0 0
SMALL
GASTEIGER

@<TRIPOS>ATOM
      1 C          -0.2197   -3.3281    0.7441 C.ar    1  UNL1       -0.0525
      2 C          -1.5911   -3.3330    0.4856 C.ar    1  UNL1       -0.0611
      3 C          -2.1835   -2.2188   -0.0977 C.ar    1  UNL1       -0.0597
      4 C          -1.4129   -1.0858   -0.3680 C.ar    1  UNL1       -0.0357
      5 C          -0.0588   -1.0367   -0.0566 C.ar    1  UNL1        0.0710
      6 C           0.5603   -2.1841    0.4645 C.ar    1  UNL1        0.0010
      7 N           0.6172    0.1073   -0.2144 N.ar    1  UNL1       -0.2544
      8 C           1.9249    0.1383    0.1627 C.ar    1  UNL1        0.0360
      9 C           2.6916   -0.9371    0.5832 C.ar    1  UNL1        0.0015
     10 C           1.9472   -2.1283    0.7173 C.ar    1  UNL1       -0.0434
     11 C           4.1262   -0.8440    0.9850 C.ar    1  UNL1       -0.0055
     12 C           4.5818   -1.6901    2.0365 C.ar    1  UNL1       -0.0532
     13 C           5.8874   -1.7018    2.5057 C.ar    1  UNL1       -0.0591
     14 C           6.8310   -0.8591    1.9480 C.ar    1  UNL1       -0.0356
     15 C           6.4305    0.0051    0.9141 C.ar    1  UNL1        0.0755
     16 C           5.1008    0.0684    0.4370 C.ar    1  UNL1        0.0308
     17 N           7.1580    0.9539    0.2061 N.ar    1  UNL1       -0.2318
     18 N           6.3616    1.7385   -0.5355 N.ar    1  UNL1       -0.1705
     19 C           5.1709    1.1364   -0.5271 C.ar    1  UNL1        0.0687
     20 C           4.1709    1.7290   -1.4512 C.3     1  UNL1       -0.0200
     21 C           8.5641    1.1407    0.0891 C.ar    1  UNL1        0.0678
     22 C           9.0606    2.3849   -0.3108 C.ar    1  UNL1       -0.0354
     23 C          10.4168    2.5449   -0.5843 C.ar    1  UNL1       -0.0459
     24 C          11.2900    1.4459   -0.5304 C.ar    1  UNL1        0.0574
     25 C          12.7137    1.6332   -0.9545 C.2     1  UNL1        0.2433
     26 O          13.3912    0.6938   -1.3474 O.2     1  UNL1       -0.2704
     27 N          13.2347    2.9041   -0.9367 N.am    1  UNL1       -0.3253
     28 C           9.4354    0.0567    0.2038 C.ar    1  UNL1       -0.0146
     29 C          10.7748    0.1594   -0.1872 C.ar    1  UNL1        0.0416
     30 N          11.5735   -1.0296   -0.2103 N.pl3   1  UNL1       -0.3403
     31 C          10.9685   -2.1793   -0.9438 C.3     1  UNL1        0.0208
     32 H          10.1076   -1.8327   -1.5317 H       1  UNL1        0.0497
     33 C          11.9799   -2.7435   -1.9397 C.3     1  UNL1       -0.0323
     34 C          13.1632   -3.3541   -1.1947 C.3     1  UNL1       -0.0252
     35 C          12.7064   -4.5957   -0.4390 C.3     1  UNL1        0.0554
     36 H          13.5358   -4.9974    0.1519 H       1  UNL1        0.0593
     37 O          12.3500   -5.6009   -1.3889 O.3     1  UNL1       -0.3918
     38 C          11.5140   -4.3302    0.4827 C.3     1  UNL1       -0.0252
     39 C          10.4799   -3.2986   -0.0012 C.3     1  UNL1       -0.0323
     40 H           0.2311   -4.2071    1.2007 H       1  UNL1        0.0624
     41 H          -2.1967   -4.1990    0.7411 H       1  UNL1        0.0618
     42 H          -3.2464   -2.2152   -0.3250 H       1  UNL1        0.0618
     43 H          -1.8762   -0.2120   -0.8171 H       1  UNL1        0.0639
     44 H           2.3262    1.1406    0.1627 H       1  UNL1        0.0836
     45 H           2.4346   -3.0395    1.0624 H       1  UNL1        0.0631
     46 H           3.8831   -2.3532    2.5451 H       1  UNL1        0.0624
     47 H           6.1651   -2.3631    3.3230 H       1  UNL1        0.0618
     48 H           7.8426   -0.8522    2.3440 H       1  UNL1        0.0639
     49 H           4.6610    2.3422   -2.2186 H       1  UNL1        0.0293
     50 H           3.5070    2.4079   -0.9095 H       1  UNL1        0.0293
     51 H           3.5980    0.9603   -1.9738 H       1  UNL1        0.0293
     52 H           8.3954    3.2387   -0.4277 H       1  UNL1        0.0639
     53 H          10.7561    3.5252   -0.9068 H       1  UNL1        0.0626
     54 H          12.8001    3.6893   -0.4687 H       1  UNL1        0.1453
     55 H          14.1959    3.0198   -1.2357 H       1  UNL1        0.1453
     56 H           9.0634   -0.9171    0.4879 H       1  UNL1        0.0657
     57 H          12.4786   -0.7656   -0.6369 H       1  UNL1        0.1464
     58 H          12.3221   -1.9634   -2.6281 H       1  UNL1        0.0284
     59 H          11.4860   -3.5084   -2.5538 H       1  UNL1        0.0284
     60 H          13.5990   -2.6363   -0.4912 H       1  UNL1        0.0291
     61 H          13.9438   -3.6107   -1.9177 H       1  UNL1        0.0291
     62 H          13.0946   -5.6878   -2.0102 H       1  UNL1        0.2098
     63 H          11.8898   -4.0024    1.4581 H       1  UNL1        0.0291
     64 H          10.9826   -5.2770    0.6594 H       1  UNL1        0.0291
     65 H           9.9753   -2.8843    0.8805 H       1  UNL1        0.0284
     66 H           9.7034   -3.8559   -0.5441 H       1  UNL1        0.0284
@<TRIPOS>BOND
     1     1     2   ar
     2     2     3   ar
     3     3     4   ar
     4     4     5   ar
     5     5     6   ar
     6     1     6   ar
     7     5     7   ar
     8     7     8   ar
     9     8     9   ar
    10     9    10   ar
    11     6    10   ar
    12     9    11    1
    13    11    12   ar
    14    12    13   ar
    15    13    14   ar
    16    14    15   ar
    17    15    16   ar
    18    11    16   ar
    19    15    17   ar
    20    17    18   ar
    21    18    19   ar
    22    16    19   ar
    23    19    20    1
    24    17    21    1
    25    21    22   ar
    26    22    23   ar
    27    23    24   ar
    28    24    25    1
    29    25    26    2
    30    25    27   am
    31    21    28   ar
    32    28    29   ar
    33    24    29   ar
    34    29    30    1
    35    30    31    1
    36    31    32    1
    37    31    33    1
    38    33    34    1
    39    34    35    1
    40    35    36    1
    41    35    37    1
    42    35    38    1
    43    38    39    1
    44    31    39    1
    45     1    40    1
    46     2    41    1
    47     3    42    1
    48     4    43    1
    49     8    44    1
    50    10    45    1
    51    12    46    1
    52    13    47    1
    53    14    48    1
    54    20    49    1
    55    20    50    1
    56    20    51    1
    57    22    52    1
    58    23    53    1
    59    27    54    1
    60    27    55    1
    61    28    56    1
    62    30    57    1
    63    33    58    1
    64    33    59    1
    65    34    60    1
    66    34    61    1
    67    37    62    1
    68    38    63    1
    69    38    64    1
    70    39    65    1
    71    39    66    1
@<TRIPOS>MOLECULE
*****
 61 64 0 0 0
SMALL
GASTEIGER

@<TRIPOS>ATOM
      1 O           0.3452   -3.3470    3.4032 O.2     1  UNL1       -0.2920
      2 C           0.9415   -4.4068    3.5784 C.2     1  UNL1        0.1656
      3 C           0.5672   -5.3494    4.7104 C.3     1  UNL1        0.0160
      4 C           1.8010   -6.0777    5.2922 C.3     1  UNL1       -0.0225
      5 C           2.7475   -5.0639    5.9733 C.3     1  UNL1       -0.0591
      6 C           1.3316   -7.0825    6.3595 C.3     1  UNL1       -0.0591
      7 C           2.5595   -6.8559    4.1784 C.3     1  UNL1       -0.0057
      8 C           2.7284   -6.0320    2.9387 C.ar    1  UNL1        0.0350
      9 C           2.0004   -4.8718    2.6878 C.ar    1  UNL1        0.0414
     10 N           3.6208   -6.2429    1.8869 N.ar    1  UNL1       -0.3191
     11 C           3.4945   -5.1302    1.0627 C.ar    1  UNL1        0.0137
     12 C           2.5266   -4.2686    1.5275 C.ar    1  UNL1       -0.0218
     13 C           2.1406   -2.9653    0.9282 C.3     1  UNL1       -0.0376
     14 C           4.5611   -7.3147    1.6597 C.ar    1  UNL1        0.0481
     15 C           4.6667   -8.4396    2.4744 C.ar    1  UNL1       -0.0370
     16 C           5.6865   -9.3782    2.2580 C.ar    1  UNL1       -0.0459
     17 C           6.6078   -9.2248    1.2094 C.ar    1  UNL1        0.0574
     18 C           7.7149  -10.2234    1.1480 C.2     1  UNL1        0.2433
     19 O           7.6021  -11.3473    1.6218 O.2     1  UNL1       -0.2704
     20 N           8.8991   -9.8125    0.5978 N.am    1  UNL1       -0.3253
     21 C           5.4479   -7.2234    0.5677 C.ar    1  UNL1       -0.0162
     22 C           6.4786   -8.1459    0.3167 C.ar    1  UNL1        0.0415
     23 N           7.3664   -7.9291   -0.7302 N.pl3   1  UNL1       -0.3403
     24 C           7.7753   -6.6109   -1.1974 C.3     1  UNL1        0.0208
     25 H           7.5996   -5.8580   -0.4169 H       1  UNL1        0.0497
     26 C           7.0092   -6.2095   -2.4644 C.3     1  UNL1       -0.0323
     27 C           7.5165   -4.8756   -3.0086 C.3     1  UNL1       -0.0252
     28 C           9.0143   -4.9363   -3.2964 C.3     1  UNL1        0.0554
     29 H           9.2015   -5.6667   -4.0919 H       1  UNL1        0.0593
     30 O           9.4702   -3.6761   -3.7688 O.3     1  UNL1       -0.3918
     31 C           9.7998   -5.3346   -2.0489 C.3     1  UNL1       -0.0252
     32 C           9.2902   -6.6455   -1.4621 C.3     1  UNL1       -0.0323
     33 H          -0.1540   -6.0712    4.3065 H       1  UNL1        0.0350
     34 H           0.0590   -4.7700    5.4901 H       1  UNL1        0.0350
     35 H           2.2271   -4.5102    6.7626 H       1  UNL1        0.0235
     36 H           3.1495   -4.3294    5.2679 H       1  UNL1        0.0235
     37 H           3.6026   -5.5729    6.4320 H       1  UNL1        0.0235
     38 H           0.8075   -6.5756    7.1773 H       1  UNL1        0.0235
     39 H           2.1812   -7.6244    6.7903 H       1  UNL1        0.0235
     40 H           0.6460   -7.8232    5.9331 H       1  UNL1        0.0235
     41 H           2.0016   -7.7639    3.9160 H       1  UNL1        0.0333
     42 H           3.5342   -7.1428    4.5850 H       1  UNL1        0.0333
     43 H           4.1026   -4.9942    0.1823 H       1  UNL1        0.0816
     44 H           2.7003   -2.7700    0.0069 H       1  UNL1        0.0278
     45 H           2.3550   -2.1502    1.6272 H       1  UNL1        0.0278
     46 H           1.0734   -2.9460    0.6840 H       1  UNL1        0.0278
     47 H           3.9931   -8.6538    3.2903 H       1  UNL1        0.0638
     48 H           5.7809  -10.2234    2.9401 H       1  UNL1        0.0626
     49 H           9.0535   -8.8294    0.4160 H       1  UNL1        0.1453
     50 H           9.6939  -10.4276    0.6880 H       1  UNL1        0.1453
     51 H           5.3403   -6.4262   -0.1530 H       1  UNL1        0.0657
     52 H           7.7294   -8.7556   -1.2027 H       1  UNL1        0.1464
     53 H           5.9354   -6.1275   -2.2637 H       1  UNL1        0.0284
     54 H           7.1194   -6.9851   -3.2328 H       1  UNL1        0.0284
     55 H           7.3073   -4.0735   -2.2875 H       1  UNL1        0.0291
     56 H           6.9711   -4.6032   -3.9201 H       1  UNL1        0.0291
     57 H           9.2432   -2.9972   -3.1110 H       1  UNL1        0.2098
     58 H           9.7341   -4.5380   -1.2962 H       1  UNL1        0.0291
     59 H          10.8650   -5.4238   -2.2936 H       1  UNL1        0.0291
     60 H           9.8265   -6.8563   -0.5286 H       1  UNL1        0.0284
     61 H           9.5287   -7.4670   -2.1496 H       1  UNL1        0.0284
@<TRIPOS>BOND
     1     1     2    2
     2     2     3    1
     3     3     4    1
     4     4     5    1
     5     4     6    1
     6     4     7    1
     7     7     8    1
     8     8     9   ar
     9     2     9    1
    10     8    10   ar
    11    10    11   ar
    12    11    12   ar
    13     9    12   ar
    14    12    13    1
    15    10    14    1
    16    14    15   ar
    17    15    16   ar
    18    16    17   ar
    19    17    18    1
    20    18    19    2
    21    18    20   am
    22    14    21   ar
    23    21    22   ar
    24    17    22   ar
    25    22    23    1
    26    24    26    1
    27    26    27    1
    28    27    28    1
    29    28    31    1
    30    31    32    1
    31    24    32    1
    32    24    25    1
    33    24    23    1
    34    28    30    1
    35    28    29    1
    36     3    33    1
    37     3    34    1
    38     5    35    1
    39     5    36    1
    40     5    37    1
    41     6    38    1
    42     6    39    1
    43     6    40    1
    44     7    41    1
    45     7    42    1
    46    11    43    1
    47    13    44    1
    48    13    45    1
    49    13    46    1
    50    15    47    1
    51    16    48    1
    52    20    49    1
    53    20    50    1
    54    21    51    1
    55    23    52    1
    56    26    53    1
    57    26    54    1
    58    27    55    1
    59    27    56    1
    60    30    57    1
    61    31    58    1
    62    31    59    1
    63    32    60    1
    64    32    61    1
@<TRIPOS>MOLECULE
*****
 59 62 0 0 0
SMALL
GASTEIGER

@<TRIPOS>ATOM
      1 O           1.2145   -0.0573    0.2373 O.2     1  UNL1       -0.2920
      2 C           2.3940    0.0502   -0.0928 C.2     1  UNL1        0.1656
      3 C           3.0055    1.4052   -0.4156 C.3     1  UNL1        0.0160
      4 C           4.0484    1.3173   -1.5519 C.3     1  UNL1       -0.0225
      5 C           3.3552    0.9338   -2.8776 C.3     1  UNL1       -0.0591
      6 C           4.7021    2.6986   -1.7423 C.3     1  UNL1       -0.0591
      7 C           5.1647    0.2924   -1.1974 C.3     1  UNL1       -0.0057
      8 C           4.6207   -0.9620   -0.5781 C.ar    1  UNL1        0.0350
      9 C           3.3119   -1.0829   -0.1255 C.ar    1  UNL1        0.0414
     10 N           5.2761   -2.1828   -0.3987 N.ar    1  UNL1       -0.3191
     11 C           4.2995   -3.0706    0.0394 C.ar    1  UNL1        0.0137
     12 C           3.0818   -2.4398    0.1778 C.ar    1  UNL1       -0.0218
     13 C           1.7845   -3.0692    0.5370 C.3     1  UNL1       -0.0376
     14 C           6.6388   -2.5562   -0.7046 C.ar    1  UNL1        0.0481
     15 C           7.5865   -1.6388   -1.1618 C.ar    1  UNL1       -0.0370
     16 C           8.8000   -2.0715   -1.7036 C.ar    1  UNL1       -0.0459
     17 C           9.0887   -3.4369   -1.7892 C.ar    1  UNL1        0.0574
     18 C          10.3121   -3.8798   -2.5235 C.2     1  UNL1        0.2433
     19 O          10.3575   -4.9443   -3.1256 O.2     1  UNL1       -0.2704
     20 N          11.3991   -3.0435   -2.5105 N.am    1  UNL1       -0.3253
     21 C           7.0217   -3.9110   -0.6401 C.ar    1  UNL1       -0.0162
     22 C           8.1943   -4.3872   -1.2476 C.ar    1  UNL1        0.0415
     23 N           8.5020   -5.7421   -1.3040 N.pl3   1  UNL1       -0.3403
     24 C           7.8096   -6.8366   -0.6374 C.3     1  UNL1        0.0214
     25 C           8.3462   -6.9823    0.7953 C.3     1  UNL1       -0.0279
     26 C           9.8257   -7.3634    0.8344 C.3     1  UNL1        0.0075
     27 C           8.0623   -8.1465   -1.4018 C.3     1  UNL1       -0.0279
     28 C           9.5453   -8.4908   -1.4711 C.3     1  UNL1        0.0075
     29 C          10.1263   -8.5326   -0.0781 C.2     1  UNL1        0.1335
     30 O          10.8999   -9.4273    0.2625 O.2     1  UNL1       -0.2974
     31 H           3.4685    1.7796    0.5065 H       1  UNL1        0.0350
     32 H           2.1982    2.0964   -0.6858 H       1  UNL1        0.0350
     33 H           2.5713    1.6567   -3.1312 H       1  UNL1        0.0235
     34 H           2.8884   -0.0552   -2.8330 H       1  UNL1        0.0235
     35 H           4.0710    0.9197   -3.7072 H       1  UNL1        0.0235
     36 H           3.9574    3.4580   -2.0040 H       1  UNL1        0.0235
     37 H           5.4507    2.6727   -2.5426 H       1  UNL1        0.0235
     38 H           5.2066    3.0285   -0.8270 H       1  UNL1        0.0235
     39 H           5.8606    0.7500   -0.4830 H       1  UNL1        0.0333
     40 H           5.7052    0.0583   -2.1216 H       1  UNL1        0.0333
     41 H           4.5103   -4.1160    0.1985 H       1  UNL1        0.0816
     42 H           1.8915   -4.1498    0.6762 H       1  UNL1        0.0278
     43 H           1.0565   -2.9113   -0.2665 H       1  UNL1        0.0278
     44 H           1.3845   -2.6405    1.4600 H       1  UNL1        0.0278
     45 H           7.4334   -0.5705   -1.1460 H       1  UNL1        0.0638
     46 H           9.4749   -1.3288   -2.1204 H       1  UNL1        0.0626
     47 H          11.4867   -2.2540   -1.8861 H       1  UNL1        0.1453
     48 H          12.2409   -3.3874   -2.9551 H       1  UNL1        0.1453
     49 H           6.3699   -4.6405   -0.1802 H       1  UNL1        0.0657
     50 H           8.9152   -5.9622   -2.2206 H       1  UNL1        0.1464
     51 H           6.7266   -6.6738   -0.6187 H       1  UNL1        0.0497
     52 H           7.7667   -7.7589    1.3113 H       1  UNL1        0.0287
     53 H           8.2004   -6.0543    1.3609 H       1  UNL1        0.0287
     54 H          10.1022   -7.6399    1.8574 H       1  UNL1        0.0342
     55 H          10.4580   -6.5227    0.5303 H       1  UNL1        0.0342
     56 H           7.6492   -8.0812   -2.4151 H       1  UNL1        0.0287
     57 H           7.5303   -8.9613   -0.8917 H       1  UNL1        0.0287
     58 H          10.1079   -7.7577   -2.0587 H       1  UNL1        0.0342
     59 H           9.6770   -9.4667   -1.9491 H       1  UNL1        0.0342
@<TRIPOS>BOND
     1     1     2    2
     2     2     3    1
     3     3     4    1
     4     4     5    1
     5     4     6    1
     6     4     7    1
     7     7     8    1
     8     8     9   ar
     9     2     9    1
    10     8    10   ar
    11    10    11   ar
    12    11    12   ar
    13     9    12   ar
    14    12    13    1
    15    10    14    1
    16    14    15   ar
    17    15    16   ar
    18    16    17   ar
    19    17    18    1
    20    18    19    2
    21    18    20   am
    22    14    21   ar
    23    21    22   ar
    24    17    22   ar
    25    22    23    1
    26    23    24    1
    27    24    25    1
    28    25    26    1
    29    24    27    1
    30    27    28    1
    31    28    29    1
    32    26    29    1
    33    29    30    2
    34     3    31    1
    35     3    32    1
    36     5    33    1
    37     5    34    1
    38     5    35    1
    39     6    36    1
    40     6    37    1
    41     6    38    1
    42     7    39    1
    43     7    40    1
    44    11    41    1
    45    13    42    1
    46    13    43    1
    47    13    44    1
    48    15    45    1
    49    16    46    1
    50    20    47    1
    51    20    48    1
    52    21    49    1
    53    23    50    1
    54    24    51    1
    55    25    52    1
    56    25    53    1
    57    26    54    1
    58    26    55    1
    59    27    56    1
    60    27    57    1
    61    28    58    1
    62    28    59    1
@<TRIPOS>MOLECULE
*****
 48 50 0 0 0
SMALL
GASTEIGER

@<TRIPOS>ATOM
      1 CL          5.5074   -1.4505   -0.7740 Cl      1  UNL1       -0.0814
      2 C           4.7537   -0.9962    0.7192 C.ar    1  UNL1        0.0649
      3 C           5.4466   -0.1187    1.5520 C.ar    1  UNL1       -0.0414
      4 C           4.8442    0.3556    2.7148 C.ar    1  UNL1       -0.0603
      5 C           3.5364   -0.0211    3.0274 C.ar    1  UNL1       -0.0597
      6 C           2.8332   -0.8972    2.1933 C.ar    1  UNL1       -0.0362
      7 C           3.4492   -1.4120    1.0440 C.ar    1  UNL1        0.0712
      8 N           2.8251   -2.4205    0.2929 N.ar    1  UNL1       -0.2422
      9 C           3.3428   -3.7060    0.2668 C.ar    1  UNL1        0.3490
     10 O           4.3583   -4.1495    0.7786 O.2     1  UNL1       -0.2446
     11 N           2.3974   -4.4668   -0.4072 N.ar    1  UNL1       -0.2260
     12 H           2.4593   -5.4640   -0.5656 H       1  UNL1        0.1937
     13 N           1.3097   -3.7162   -0.7260 N.ar    1  UNL1       -0.1507
     14 C           1.5971   -2.5083   -0.2979 C.ar    1  UNL1        0.1728
     15 C           0.6439   -1.3893   -0.5332 C.ar    1  UNL1        0.0631
     16 C          -0.7021   -1.7058   -0.7949 C.ar    1  UNL1        0.1311
     17 O          -1.1959   -2.9869   -0.8158 O.3     1  UNL1       -0.5059
     18 C          -1.6441   -0.7152   -1.0639 C.ar    1  UNL1        0.0240
     19 C          -1.2579    0.6221   -1.0893 C.ar    1  UNL1        0.1466
     20 O          -2.2060    1.5552   -1.3733 O.3     1  UNL1       -0.5047
     21 C           1.0283   -0.0388   -0.5821 C.ar    1  UNL1       -0.0175
     22 C           0.0758    0.9700   -0.8510 C.ar    1  UNL1        0.1475
     23 S           0.5939    2.6750   -0.6942 S.O2    1  UNL1        0.0643
     24 O          -0.5378    3.5629   -0.8537 O.2     1  UNL1       -0.1527
     25 O           1.3905    2.7204    0.5121 O.2     1  UNL1       -0.1527
     26 N           1.6654    3.0079   -2.0382 N.3     1  UNL1       -0.1770
     27 C           1.1124    2.5157   -3.3333 C.3     1  UNL1        0.0092
     28 C           2.0049    4.5064   -2.1347 C.3     1  UNL1        0.0259
     29 C           2.5934    5.0756   -0.8403 C.3     1  UNL1       -0.0481
     30 C           3.0174    4.7993   -3.2523 C.3     1  UNL1       -0.0481
     31 H           6.4556    0.1961    1.2984 H       1  UNL1        0.0633
     32 H           5.3935    1.0234    3.3739 H       1  UNL1        0.0618
     33 H           3.0746    0.3566    3.9378 H       1  UNL1        0.0618
     34 H           1.8351   -1.2124    2.4889 H       1  UNL1        0.0639
     35 H          -0.4401   -3.6103   -0.8227 H       1  UNL1        0.2922
     36 H          -2.6724   -1.0120   -1.2566 H       1  UNL1        0.0691
     37 H          -3.0901    1.1495   -1.3902 H       1  UNL1        0.2922
     38 H           2.0604    0.2620   -0.4264 H       1  UNL1        0.0646
     39 H           0.8635    1.4539   -3.2779 H       1  UNL1        0.0408
     40 H           1.8722    2.5772   -4.1177 H       1  UNL1        0.0408
     41 H           0.2330    3.0885   -3.6354 H       1  UNL1        0.0408
     42 H           1.0814    5.0501   -2.3732 H       1  UNL1        0.0474
     43 H           3.4675    4.5031   -0.5124 H       1  UNL1        0.0245
     44 H           1.8640    5.0951   -0.0269 H       1  UNL1        0.0245
     45 H           2.9075    6.1165   -0.9844 H       1  UNL1        0.0245
     46 H           3.9738    4.2983   -3.0654 H       1  UNL1        0.0245
     47 H           3.2082    5.8773   -3.3157 H       1  UNL1        0.0245
     48 H           2.6590    4.4984   -4.2377 H       1  UNL1        0.0245
@<TRIPOS>BOND
     1     1     2    1
     2     2     3   ar
     3     3     4   ar
     4     4     5   ar
     5     5     6   ar
     6     6     7   ar
     7     2     7   ar
     8     7     8    1
     9     8     9   ar
    10     9    10    2
    11     9    11   ar
    12    11    12    1
    13    11    13   ar
    14    13    14   ar
    15     8    14   ar
    16    14    15    1
    17    15    16   ar
    18    16    17    1
    19    16    18   ar
    20    18    19   ar
    21    19    20    1
    22    15    21   ar
    23    21    22   ar
    24    19    22   ar
    25    22    23    1
    26    23    24    2
    27    23    25    2
    28    23    26    1
    29    26    27    1
    30    26    28    1
    31    28    29    1
    32    28    30    1
    33     3    31    1
    34     4    32    1
    35     5    33    1
    36     6    34    1
    37    17    35    1
    38    18    36    1
    39    20    37    1
    40    21    38    1
    41    27    39    1
    42    27    40    1
    43    27    41    1
    44    28    42    1
    45    29    43    1
    46    29    44    1
    47    29    45    1
    48    30    46    1
    49    30    47    1
    50    30    48    1
@<TRIPOS>MOLECULE
*****
 50 52 0 0 0
SMALL
GASTEIGER

@<TRIPOS>ATOM
      1 C           2.4124    0.2307   -1.5540 C.3     1  UNL1       -0.0377
      2 C           3.3037   -0.1208   -0.3948 C.ar    1  UNL1       -0.0264
      3 C           4.2402    0.8753   -0.0310 C.ar    1  UNL1       -0.0569
      4 C           5.4661    0.5341    0.5240 C.ar    1  UNL1       -0.0614
      5 C           5.7458   -0.8008    0.7462 C.ar    1  UNL1       -0.0598
      6 C           4.7310   -1.7524    0.5823 C.ar    1  UNL1       -0.0374
      7 C           3.4413   -1.4315    0.0832 C.ar    1  UNL1        0.0558
      8 N           2.4225   -2.4405    0.0698 N.ar    1  UNL1       -0.2434
      9 C           2.7636   -3.7956    0.0269 C.ar    1  UNL1        0.3489
     10 O           3.8366   -4.3535   -0.1327 O.2     1  UNL1       -0.2446
     11 N           1.5788   -4.4963    0.1115 N.ar    1  UNL1       -0.2260
     12 H           1.5010   -5.4978   -0.0123 H       1  UNL1        0.1937
     13 N           0.5259   -3.6663    0.1087 N.ar    1  UNL1       -0.1507
     14 C           1.0285   -2.4471    0.0725 C.ar    1  UNL1        0.1727
     15 C           0.0138   -1.3353   -0.0238 C.ar    1  UNL1        0.0619
     16 C          -1.1710   -1.6254   -0.7445 C.ar    1  UNL1        0.1310
     17 O          -1.4951   -2.8705   -1.2282 O.3     1  UNL1       -0.5059
     18 C          -2.1057   -0.6453   -1.0581 C.ar    1  UNL1        0.0228
     19 C          -1.8572    0.6772   -0.7116 C.ar    1  UNL1        0.1325
     20 O          -2.7699    1.6159   -1.1127 O.3     1  UNL1       -0.5059
     21 C           0.1591   -0.0204    0.4648 C.ar    1  UNL1       -0.0319
     22 C          -0.7017    1.0330    0.0149 C.ar    1  UNL1        0.0791
     23 C          -0.1966    2.4696   -0.1460 C.2     1  UNL1        0.2499
     24 O          -0.4559    3.0376   -1.2181 O.2     1  UNL1       -0.2699
     25 N           0.6785    3.0946    0.7570 N.am    1  UNL1       -0.3005
     26 C           1.0423    2.5642    2.0538 C.3     1  UNL1        0.0035
     27 C           1.5018    4.2186    0.2673 C.3     1  UNL1        0.0144
     28 C           0.9094    5.6355    0.3328 C.3     1  UNL1       -0.0400
     29 C           0.6024    6.1590    1.7269 C.3     1  UNL1       -0.0639
     30 H           2.8678    1.0250   -2.1528 H       1  UNL1        0.0278
     31 H           1.4556    0.6259   -1.2686 H       1  UNL1        0.0278
     32 H           2.2767   -0.6339   -2.2076 H       1  UNL1        0.0278
     33 H           4.0630    1.9161   -0.2972 H       1  UNL1        0.0621
     34 H           6.2243    1.2912    0.7020 H       1  UNL1        0.0618
     35 H           6.7398   -1.1126    1.0576 H       1  UNL1        0.0618
     36 H           5.0089   -2.7679    0.8556 H       1  UNL1        0.0638
     37 H          -0.8882   -3.5252   -0.8194 H       1  UNL1        0.2922
     38 H          -2.9911   -0.9243   -1.6252 H       1  UNL1        0.0691
     39 H          -3.2435    1.2878   -1.8973 H       1  UNL1        0.2922
     40 H           1.0415    0.2058    1.0462 H       1  UNL1        0.0634
     41 H           0.2559    1.9227    2.4528 H       1  UNL1        0.0429
     42 H           1.2219    3.3857    2.7515 H       1  UNL1        0.0429
     43 H           1.9704    1.9968    1.9333 H       1  UNL1        0.0429
     44 H           1.7465    4.0192   -0.7839 H       1  UNL1        0.0464
     45 H           2.4587    4.2018    0.8027 H       1  UNL1        0.0464
     46 H           0.0131    5.7154   -0.2911 H       1  UNL1        0.0278
     47 H           1.6521    6.3163   -0.1083 H       1  UNL1        0.0278
     48 H          -0.2493    5.6363    2.1692 H       1  UNL1        0.0230
     49 H           0.3476    7.2253    1.6751 H       1  UNL1        0.0230
     50 H           1.4653    6.0622    2.3928 H       1  UNL1        0.0230
@<TRIPOS>BOND
     1     1     2    1
     2     2     3   ar
     3     3     4   ar
     4     4     5   ar
     5     5     6   ar
     6     6     7   ar
     7     2     7   ar
     8     7     8    1
     9     8     9   ar
    10     9    10    2
    11     9    11   ar
    12    11    12    1
    13    11    13   ar
    14    13    14   ar
    15     8    14   ar
    16    14    15    1
    17    15    16   ar
    18    16    17    1
    19    16    18   ar
    20    18    19   ar
    21    19    20    1
    22    15    21   ar
    23    21    22   ar
    24    19    22   ar
    25    22    23    1
    26    23    24    2
    27    23    25   am
    28    25    26    1
    29    25    27    1
    30    27    28    1
    31    28    29    1
    32     1    30    1
    33     1    31    1
    34     1    32    1
    35     3    33    1
    36     4    34    1
    37     5    35    1
    38     6    36    1
    39    17    37    1
    40    18    38    1
    41    20    39    1
    42    21    40    1
    43    26    41    1
    44    26    42    1
    45    26    43    1
    46    27    44    1
    47    27    45    1
    48    28    46    1
    49    28    47    1
    50    29    48    1
    51    29    49    1
    52    29    50    1
@<TRIPOS>MOLECULE
*****
 54 57 0 0 0
SMALL
GASTEIGER

@<TRIPOS>ATOM
      1 C           2.3753   -0.6782   -2.0871 C.3     1  UNL1       -0.0377
      2 C           3.2253   -0.5127   -0.8530 C.ar    1  UNL1       -0.0264
      3 C           4.1040    0.5809   -0.8135 C.ar    1  UNL1       -0.0569
      4 C           5.2476    0.5359   -0.0204 C.ar    1  UNL1       -0.0614
      5 C           5.4890   -0.5745    0.7772 C.ar    1  UNL1       -0.0598
      6 C           4.5167   -1.5705    0.8837 C.ar    1  UNL1       -0.0374
      7 C           3.3382   -1.5206    0.1176 C.ar    1  UNL1        0.0558
      8 N           2.3675   -2.5292    0.2834 N.ar    1  UNL1       -0.2434
      9 C           2.7263   -3.8733    0.3425 C.ar    1  UNL1        0.3489
     10 O           3.8269   -4.3938    0.3412 O.2     1  UNL1       -0.2446
     11 N           1.5371   -4.5780    0.2997 N.ar    1  UNL1       -0.2260
     12 H           1.4707   -5.5795    0.1690 H       1  UNL1        0.1937
     13 N           0.4832   -3.7352    0.1823 N.ar    1  UNL1       -0.1507
     14 C           0.9898   -2.5196    0.1752 C.ar    1  UNL1        0.1727
     15 C           0.0576   -1.3531    0.0521 C.ar    1  UNL1        0.0619
     16 C          -1.1631   -1.6007   -0.6211 C.ar    1  UNL1        0.1310
     17 O          -1.5491   -2.8295   -1.1009 O.3     1  UNL1       -0.5059
     18 C          -2.0663   -0.5826   -0.8994 C.ar    1  UNL1        0.0228
     19 C          -1.7594    0.7223   -0.5381 C.ar    1  UNL1        0.1325
     20 O          -2.6649    1.6912   -0.8773 O.3     1  UNL1       -0.5059
     21 C           0.3325   -0.0270    0.4649 C.ar    1  UNL1       -0.0319
     22 C          -0.5506    1.0336    0.1242 C.ar    1  UNL1        0.0791
     23 C          -0.0764    2.4575    0.0395 C.2     1  UNL1        0.2502
     24 O          -0.2458    2.9958   -1.0611 O.2     1  UNL1       -0.2699
     25 N           0.6059    3.1410    1.0543 N.am    1  UNL1       -0.2962
     26 C           1.1541    4.4525    0.7009 C.3     1  UNL1        0.0038
     27 C           0.7789    2.7303    2.4493 C.3     1  UNL1        0.0397
     28 C           0.1345    3.6311    3.4922 C.ar    1  UNL1       -0.0301
     29 C          -1.1466    4.1741    3.3166 C.ar    1  UNL1       -0.0571
     30 C          -1.7589    4.9125    4.3369 C.ar    1  UNL1       -0.0615
     31 C          -1.1057    5.1104    5.5520 C.ar    1  UNL1       -0.0617
     32 C           0.1700    4.5871    5.7423 C.ar    1  UNL1       -0.0615
     33 C           0.7859    3.8558    4.7204 C.ar    1  UNL1       -0.0571
     34 H           2.7831   -0.0836   -2.9111 H       1  UNL1        0.0278
     35 H           1.3422   -0.3741   -1.9518 H       1  UNL1        0.0278
     36 H           2.4139   -1.7223   -2.4199 H       1  UNL1        0.0278
     37 H           3.9484    1.4317   -1.4744 H       1  UNL1        0.0621
     38 H           5.9813    1.3351   -0.0811 H       1  UNL1        0.0618
     39 H           6.4269   -0.6675    1.3201 H       1  UNL1        0.0618
     40 H           4.7091   -2.3982    1.5646 H       1  UNL1        0.0638
     41 H          -0.9318   -3.5094   -0.7513 H       1  UNL1        0.2922
     42 H          -2.9764   -0.8205   -1.4424 H       1  UNL1        0.0691
     43 H          -3.1866    1.4008   -1.6397 H       1  UNL1        0.2922
     44 H           1.2703    0.2072    0.9557 H       1  UNL1        0.0634
     45 H           1.2076    4.6023   -0.3821 H       1  UNL1        0.0429
     46 H           2.1705    4.5403    1.0957 H       1  UNL1        0.0429
     47 H           0.5231    5.2407    1.1207 H       1  UNL1        0.0429
     48 H           1.8644    2.7204    2.6171 H       1  UNL1        0.0514
     49 H           0.4092    1.7164    2.6062 H       1  UNL1        0.0514
     50 H          -1.6827    4.0257    2.3813 H       1  UNL1        0.0621
     51 H          -2.7534    5.3241    4.1859 H       1  UNL1        0.0618
     52 H          -1.5920    5.6667    6.3500 H       1  UNL1        0.0618
     53 H           0.6804    4.7389    6.6908 H       1  UNL1        0.0618
     54 H           1.7803    3.4528    4.9006 H       1  UNL1        0.0621
@<TRIPOS>BOND
     1     1     2    1
     2     2     3   ar
     3     3     4   ar
     4     4     5   ar
     5     5     6   ar
     6     6     7   ar
     7     2     7   ar
     8     7     8    1
     9     8     9   ar
    10     9    10    2
    11     9    11   ar
    12    11    12    1
    13    11    13   ar
    14    13    14   ar
    15     8    14   ar
    16    14    15    1
    17    15    16   ar
    18    16    17    1
    19    16    18   ar
    20    18    19   ar
    21    19    20    1
    22    15    21   ar
    23    21    22   ar
    24    19    22   ar
    25    22    23    1
    26    23    24    2
    27    23    25   am
    28    25    26    1
    29    25    27    1
    30    27    28    1
    31    28    29   ar
    32    29    30   ar
    33    30    31   ar
    34    31    32   ar
    35    32    33   ar
    36    28    33   ar
    37     1    34    1
    38     1    35    1
    39     1    36    1
    40     3    37    1
    41     4    38    1
    42     5    39    1
    43     6    40    1
    44    17    41    1
    45    18    42    1
    46    20    43    1
    47    21    44    1
    48    26    45    1
    49    26    46    1
    50    26    47    1
    51    27    48    1
    52    27    49    1
    53    29    50    1
    54    30    51    1
    55    31    52    1
    56    32    53    1
    57    33    54    1
@<TRIPOS>MOLECULE
*****
 59 61 0 0 0
SMALL
GASTEIGER

@<TRIPOS>ATOM
      1 C           2.4974    0.2071   -1.7682 C.3     1  UNL1       -0.0377
      2 C           3.3829   -0.0300   -0.5790 C.ar    1  UNL1       -0.0250
      3 C           4.3200    0.9776   -0.2712 C.ar    1  UNL1       -0.0568
      4 C           5.4907    0.6876    0.4294 C.ar    1  UNL1       -0.0614
      5 C           5.7340   -0.6128    0.8414 C.ar    1  UNL1       -0.0597
      6 C           4.7362   -1.5757    0.6829 C.ar    1  UNL1       -0.0360
      7 C           3.5020   -1.2713    0.0398 C.ar    1  UNL1        0.0689
      8 N           2.5130   -2.3095    0.0207 N.ar    1  UNL1       -0.2318
      9 N           3.0191   -3.5861    0.0468 N.ar    1  UNL1       -0.1742
     10 C           1.9823   -4.3989    0.0862 C.ar    1  UNL1        0.0504
     11 C           0.7888   -3.6923    0.1455 C.ar    1  UNL1       -0.0158
     12 C           1.0912   -2.3303   -0.0154 C.ar    1  UNL1        0.0781
     13 C           0.0528   -1.2533   -0.1834 C.ar    1  UNL1        0.0428
     14 C          -1.1564   -1.5753   -0.8457 C.ar    1  UNL1        0.1295
     15 O          -1.4300   -2.7804   -1.4265 O.3     1  UNL1       -0.5060
     16 C          -2.1954   -0.6578   -0.9935 C.ar    1  UNL1        0.0227
     17 C          -2.0461    0.6682   -0.6106 C.ar    1  UNL1        0.1325
     18 O          -3.1537    1.4273   -0.7890 O.3     1  UNL1       -0.5059
     19 C           0.1229    0.0910    0.2878 C.ar    1  UNL1       -0.0334
     20 C          -0.8497    1.1212   -0.0360 C.ar    1  UNL1        0.0791
     21 C          -0.4184    2.5735    0.1770 C.2     1  UNL1        0.2499
     22 O           0.6374    2.7084    0.8109 O.2     1  UNL1       -0.2699
     23 N          -1.0439    3.7377   -0.3468 N.am    1  UNL1       -0.3005
     24 C          -2.2745    3.8273   -1.1104 C.3     1  UNL1        0.0035
     25 C          -0.4736    5.0613   -0.0188 C.3     1  UNL1        0.0147
     26 C          -1.2006    5.7773    1.1303 C.3     1  UNL1       -0.0371
     27 C          -0.8864    5.1418    2.4819 C.3     1  UNL1       -0.0516
     28 C          -1.5649    5.8666    3.6446 C.3     1  UNL1       -0.0533
     29 C          -1.2034    5.1922    4.9696 C.3     1  UNL1       -0.0559
     30 C          -1.8734    5.8631    6.1566 C.3     1  UNL1       -0.0653
     31 H           2.9582    0.9385   -2.4382 H       1  UNL1        0.0278
     32 H           1.5265    0.6077   -1.5158 H       1  UNL1        0.0278
     33 H           2.3864   -0.7163   -2.3460 H       1  UNL1        0.0278
     34 H           4.1797    1.9851   -0.6567 H       1  UNL1        0.0621
     35 H           6.2353    1.4627    0.5917 H       1  UNL1        0.0618
     36 H           6.6858   -0.8790    1.2949 H       1  UNL1        0.0618
     37 H           4.9435   -2.5769    1.0636 H       1  UNL1        0.0639
     38 H           2.1493   -5.4691    0.0763 H       1  UNL1        0.0848
     39 H          -0.1952   -4.1363    0.2188 H       1  UNL1        0.0655
     40 H          -0.5910   -3.1531   -1.7523 H       1  UNL1        0.2922
     41 H          -3.1169   -1.0005   -1.4483 H       1  UNL1        0.0691
     42 H          -3.5999    1.1268   -1.6018 H       1  UNL1        0.2922
     43 H           1.0107    0.3854    0.8526 H       1  UNL1        0.0634
     44 H          -2.2610    3.1133   -1.9326 H       1  UNL1        0.0429
     45 H          -2.3797    4.8147   -1.5759 H       1  UNL1        0.0429
     46 H          -3.1209    3.7069   -0.4287 H       1  UNL1        0.0429
     47 H          -0.5498    5.6867   -0.9197 H       1  UNL1        0.0464
     48 H           0.5971    4.9843    0.1951 H       1  UNL1        0.0464
     49 H          -2.2843    5.7820    0.9591 H       1  UNL1        0.0280
     50 H          -0.8815    6.8279    1.1454 H       1  UNL1        0.0280
     51 H           0.1997    5.1473    2.6350 H       1  UNL1        0.0266
     52 H          -1.2116    4.0960    2.4786 H       1  UNL1        0.0266
     53 H          -2.6525    5.8537    3.5055 H       1  UNL1        0.0265
     54 H          -1.2525    6.9178    3.6652 H       1  UNL1        0.0265
     55 H          -0.1166    5.2180    5.1113 H       1  UNL1        0.0263
     56 H          -1.4997    4.1365    4.9423 H       1  UNL1        0.0263
     57 H          -1.5692    6.9107    6.2400 H       1  UNL1        0.0230
     58 H          -1.5919    5.3531    7.0838 H       1  UNL1        0.0230
     59 H          -2.9635    5.8247    6.0661 H       1  UNL1        0.0230
@<TRIPOS>BOND
     1     1     2    1
     2     2     3   ar
     3     3     4   ar
     4     4     5   ar
     5     5     6   ar
     6     6     7   ar
     7     2     7   ar
     8     7     8    1
     9     8     9   ar
    10     9    10   ar
    11    10    11   ar
    12    11    12   ar
    13     8    12   ar
    14    12    13    1
    15    13    14   ar
    16    14    15    1
    17    14    16   ar
    18    16    17   ar
    19    17    18    1
    20    13    19   ar
    21    19    20   ar
    22    17    20   ar
    23    20    21    1
    24    21    22    2
    25    21    23   am
    26    23    24    1
    27    23    25    1
    28    25    26    1
    29    26    27    1
    30    27    28    1
    31    28    29    1
    32    29    30    1
    33     1    31    1
    34     1    32    1
    35     1    33    1
    36     3    34    1
    37     4    35    1
    38     5    36    1
    39     6    37    1
    40    10    38    1
    41    11    39    1
    42    15    40    1
    43    16    41    1
    44    18    42    1
    45    19    43    1
    46    24    44    1
    47    24    45    1
    48    24    46    1
    49    25    47    1
    50    25    48    1
    51    26    49    1
    52    26    50    1
    53    27    51    1
    54    27    52    1
    55    28    53    1
    56    28    54    1
    57    29    55    1
    58    29    56    1
    59    30    57    1
    60    30    58    1
    61    30    59    1
@<TRIPOS>MOLECULE
*****
 57 60 0 0 0
SMALL
GASTEIGER

@<TRIPOS>ATOM
      1 C           2.3701   -0.7140   -2.1258 C.3     1  UNL1       -0.0377
      2 C           3.3066   -0.5968   -0.9539 C.ar    1  UNL1       -0.0264
      3 C           4.3231    0.3761   -1.0423 C.ar    1  UNL1       -0.0569
      4 C           5.4113    0.3695   -0.1713 C.ar    1  UNL1       -0.0614
      5 C           5.4973   -0.6043    0.8122 C.ar    1  UNL1       -0.0598
      6 C           4.4610   -1.5277    0.9591 C.ar    1  UNL1       -0.0374
      7 C           3.3340   -1.5223    0.1081 C.ar    1  UNL1        0.0558
      8 N           2.3812   -2.5563    0.2721 N.ar    1  UNL1       -0.2434
      9 C           2.8016   -3.8791    0.2830 C.ar    1  UNL1        0.3489
     10 O           3.9336   -4.3525    0.2890 O.2     1  UNL1       -0.2446
     11 N           1.6522   -4.6428    0.1671 N.ar    1  UNL1       -0.2260
     12 H           1.6444   -5.6363   -0.0276 H       1  UNL1        0.1937
     13 N           0.5608   -3.8511    0.0444 N.ar    1  UNL1       -0.1507
     14 C           1.0156   -2.6211    0.1143 C.ar    1  UNL1        0.1727
     15 C           0.0419   -1.4872    0.0017 C.ar    1  UNL1        0.0619
     16 C          -1.1519   -1.7404   -0.7105 C.ar    1  UNL1        0.1310
     17 O          -1.5088   -2.9690   -1.2087 O.3     1  UNL1       -0.5059
     18 C          -2.0480   -0.7227   -1.0077 C.ar    1  UNL1        0.0228
     19 C          -1.7674    0.5793   -0.6054 C.ar    1  UNL1        0.1325
     20 O          -2.6585    1.5525   -0.9713 O.3     1  UNL1       -0.5059
     21 C           0.2895   -0.1712    0.4553 C.ar    1  UNL1       -0.0319
     22 C          -0.5856    0.8900    0.1064 C.ar    1  UNL1        0.0791
     23 C          -0.1154    2.3165    0.0827 C.2     1  UNL1        0.2502
     24 O          -0.3037    2.9125   -0.9837 O.2     1  UNL1       -0.2699
     25 N           0.5903    2.9423    1.1188 N.am    1  UNL1       -0.2962
     26 C           1.1769    4.2473    0.8135 C.3     1  UNL1        0.0038
     27 C           0.8236    2.4434    2.4725 C.3     1  UNL1        0.0397
     28 C           0.1308    3.1704    3.6113 C.ar    1  UNL1       -0.0299
     29 C           0.8156    3.3260    4.8318 C.ar    1  UNL1       -0.0571
     30 C           0.1579    3.7811    5.9757 C.ar    1  UNL1       -0.0612
     31 C          -1.1998    4.0796    5.9227 C.ar    1  UNL1       -0.0588
     32 C          -1.9003    3.9646    4.7156 C.ar    1  UNL1       -0.0501
     33 C          -1.2276    3.5198    3.5624 C.ar    1  UNL1       -0.0541
     34 C          -3.3844    4.1936    4.6994 C.3     1  UNL1       -0.0397
     35 H           2.6771   -0.0590   -2.9468 H       1  UNL1        0.0278
     36 H           1.3542   -0.4249   -1.8797 H       1  UNL1        0.0278
     37 H           2.3826   -1.7389   -2.5106 H       1  UNL1        0.0278
     38 H           4.3120    1.1068   -1.8498 H       1  UNL1        0.0621
     39 H           6.2167    1.0884   -0.3002 H       1  UNL1        0.0618
     40 H           6.3782   -0.6651    1.4469 H       1  UNL1        0.0618
     41 H           4.5676   -2.2893    1.7320 H       1  UNL1        0.0638
     42 H          -0.8906   -3.6417   -0.8476 H       1  UNL1        0.2922
     43 H          -2.9376   -0.9576   -1.5894 H       1  UNL1        0.0691
     44 H          -3.1381    1.2682   -1.7717 H       1  UNL1        0.2922
     45 H           1.2115    0.0456    0.9843 H       1  UNL1        0.0634
     46 H           1.1511    4.4789   -0.2568 H       1  UNL1        0.0429
     47 H           2.2281    4.2461    1.1172 H       1  UNL1        0.0429
     48 H           0.6347    5.0292    1.3502 H       1  UNL1        0.0429
     49 H           1.9098    2.4938    2.6240 H       1  UNL1        0.0514
     50 H           0.5332    1.3969    2.5576 H       1  UNL1        0.0514
     51 H           1.8656    3.0524    4.9138 H       1  UNL1        0.0621
     52 H           0.6937    3.8640    6.9184 H       1  UNL1        0.0618
     53 H          -1.7149    4.3831    6.8319 H       1  UNL1        0.0620
     54 H          -1.7797    3.4065    2.6306 H       1  UNL1        0.0623
     55 H          -3.6736    4.9491    5.4384 H       1  UNL1        0.0278
     56 H          -3.9005    3.2580    4.9400 H       1  UNL1        0.0278
     57 H          -3.7219    4.5443    3.7199 H       1  UNL1        0.0278
@<TRIPOS>BOND
     1     1     2    1
     2     2     3   ar
     3     3     4   ar
     4     4     5   ar
     5     5     6   ar
     6     6     7   ar
     7     2     7   ar
     8     7     8    1
     9     8     9   ar
    10     9    10    2
    11     9    11   ar
    12    11    12    1
    13    11    13   ar
    14    13    14   ar
    15     8    14   ar
    16    14    15    1
    17    15    16   ar
    18    16    17    1
    19    16    18   ar
    20    18    19   ar
    21    19    20    1
    22    15    21   ar
    23    21    22   ar
    24    19    22   ar
    25    22    23    1
    26    23    24    2
    27    23    25   am
    28    25    26    1
    29    25    27    1
    30    27    28    1
    31    28    29   ar
    32    29    30   ar
    33    30    31   ar
    34    31    32   ar
    35    32    33   ar
    36    28    33   ar
    37    32    34    1
    38     1    35    1
    39     1    36    1
    40     1    37    1
    41     3    38    1
    42     4    39    1
    43     5    40    1
    44     6    41    1
    45    17    42    1
    46    18    43    1
    47    20    44    1
    48    21    45    1
    49    26    46    1
    50    26    47    1
    51    26    48    1
    52    27    49    1
    53    27    50    1
    54    29    51    1
    55    30    52    1
    56    31    53    1
    57    33    54    1
    58    34    55    1
    59    34    56    1
    60    34    57    1
@<TRIPOS>MOLECULE
*****
 55 58 0 0 0
SMALL
GASTEIGER

@<TRIPOS>ATOM
      1 C           2.6511   -0.5001   -2.1508 C.3     1  UNL1       -0.0377
      2 C           3.4858   -0.3613   -0.9075 C.ar    1  UNL1       -0.0264
      3 C           4.4998    0.6132   -0.9076 C.ar    1  UNL1       -0.0569
      4 C           5.5027    0.6281    0.0650 C.ar    1  UNL1       -0.0614
      5 C           5.5042   -0.3433    1.0592 C.ar    1  UNL1       -0.0598
      6 C           4.4912   -1.2865    1.0984 C.ar    1  UNL1       -0.0374
      7 C           3.4408   -1.2847    0.1510 C.ar    1  UNL1        0.0558
      8 N           2.4958   -2.3238    0.2422 N.ar    1  UNL1       -0.2434
      9 C           2.9298   -3.6465    0.2826 C.ar    1  UNL1        0.3489
     10 O           4.0647   -4.1078    0.3081 O.2     1  UNL1       -0.2446
     11 N           1.7875   -4.4158    0.1708 N.ar    1  UNL1       -0.2260
     12 H           1.7818   -5.4155    0.0255 H       1  UNL1        0.1937
     13 N           0.6968   -3.6296    0.0159 N.ar    1  UNL1       -0.1507
     14 C           1.1359   -2.3883    0.0615 C.ar    1  UNL1        0.1727
     15 C           0.1350   -1.2661   -0.0934 C.ar    1  UNL1        0.0619
     16 C          -1.0941   -1.6150   -0.7025 C.ar    1  UNL1        0.1310
     17 O          -1.4120   -2.8732   -1.1514 O.3     1  UNL1       -0.5059
     18 C          -2.0993   -0.6800   -0.9252 C.ar    1  UNL1        0.0228
     19 C          -1.8898    0.6540   -0.6022 C.ar    1  UNL1        0.1325
     20 O          -2.9183    1.5317   -0.8079 O.3     1  UNL1       -0.5059
     21 C           0.3240    0.0999    0.2425 C.ar    1  UNL1       -0.0319
     22 C          -0.6475    1.0883   -0.1160 C.ar    1  UNL1        0.0791
     23 C          -0.3123    2.5693   -0.0388 C.2     1  UNL1        0.2500
     24 O           0.2049    2.9761    1.0075 O.2     1  UNL1       -0.2699
     25 N          -0.5263    3.4297   -1.1588 N.am    1  UNL1       -0.2980
     26 C          -1.1153    2.9699   -2.4085 C.3     1  UNL1        0.0036
     27 C          -0.4688    4.9205   -0.9903 C.3     1  UNL1        0.0409
     28 C          -0.2404    5.7476   -2.3005 C.3     1  UNL1        0.0744
     29 O          -1.3299    5.5830   -3.2388 O.3     1  UNL1       -0.3750
     30 C          -1.1909    6.6021   -4.2310 C.3     1  UNL1        0.0482
     31 C          -0.5898    7.7952   -3.5200 C.3     1  UNL1       -0.0271
     32 C          -0.1865    7.2654   -2.1475 C.3     1  UNL1       -0.0230
     33 H           2.8771    0.2920   -2.8719 H       1  UNL1        0.0278
     34 H           1.5861   -0.4335   -1.9599 H       1  UNL1        0.0278
     35 H           2.8680   -1.4595   -2.6305 H       1  UNL1        0.0278
     36 H           4.5549    1.3463   -1.7135 H       1  UNL1        0.0621
     37 H           6.2993    1.3662    0.0159 H       1  UNL1        0.0618
     38 H           6.3307   -0.3873    1.7717 H       1  UNL1        0.0618
     39 H           4.5321   -2.0483    1.8805 H       1  UNL1        0.0638
     40 H          -0.7369   -3.5026   -0.8139 H       1  UNL1        0.2922
     41 H          -3.0277   -1.0145   -1.3835 H       1  UNL1        0.0691
     42 H          -3.5707    1.1267   -1.4059 H       1  UNL1        0.2922
     43 H           1.2330    0.4280    0.7419 H       1  UNL1        0.0634
     44 H          -1.0876    1.8905   -2.5305 H       1  UNL1        0.0429
     45 H          -0.5361    3.3580   -3.2479 H       1  UNL1        0.0429
     46 H          -2.1499    3.3252   -2.4586 H       1  UNL1        0.0429
     47 H           0.3120    5.1612   -0.2601 H       1  UNL1        0.0490
     48 H          -1.4327    5.2094   -0.5524 H       1  UNL1        0.0490
     49 H           0.6773    5.3952   -2.7896 H       1  UNL1        0.0611
     50 H          -2.1662    6.8157   -4.6786 H       1  UNL1        0.0560
     51 H          -0.5255    6.2339   -5.0211 H       1  UNL1        0.0560
     52 H          -1.3234    8.6053   -3.4337 H       1  UNL1        0.0288
     53 H           0.2570    8.1965   -4.0878 H       1  UNL1        0.0288
     54 H          -0.9201    7.6115   -1.4107 H       1  UNL1        0.0291
     55 H           0.7982    7.6307   -1.8425 H       1  UNL1        0.0291
@<TRIPOS>BOND
     1     1     2    1
     2     2     3   ar
     3     3     4   ar
     4     4     5   ar
     5     5     6   ar
     6     6     7   ar
     7     2     7   ar
     8     7     8    1
     9     8     9   ar
    10     9    10    2
    11     9    11   ar
    12    11    12    1
    13    11    13   ar
    14    13    14   ar
    15     8    14   ar
    16    14    15    1
    17    15    16   ar
    18    16    17    1
    19    16    18   ar
    20    18    19   ar
    21    19    20    1
    22    15    21   ar
    23    21    22   ar
    24    19    22   ar
    25    22    23    1
    26    23    24    2
    27    23    25   am
    28    25    26    1
    29    25    27    1
    30    27    28    1
    31    28    29    1
    32    29    30    1
    33    30    31    1
    34    31    32    1
    35    28    32    1
    36     1    33    1
    37     1    34    1
    38     1    35    1
    39     3    36    1
    40     4    37    1
    41     5    38    1
    42     6    39    1
    43    17    40    1
    44    18    41    1
    45    20    42    1
    46    21    43    1
    47    26    44    1
    48    26    45    1
    49    26    46    1
    50    27    47    1
    51    27    48    1
    52    28    49    1
    53    30    50    1
    54    30    51    1
    55    31    52    1
    56    31    53    1
    57    32    54    1
    58    32    55    1
@<TRIPOS>MOLECULE
*****
 50 52 0 0 0
SMALL
GASTEIGER

@<TRIPOS>ATOM
      1 C          -0.6614    0.7490    0.6148 C.ar    1  UNL1       -0.0376
      2 C           0.7382    0.7228    0.5489 C.ar    1  UNL1       -0.0598
      3 C           1.3915   -0.3989    0.0558 C.ar    1  UNL1       -0.0616
      4 C           0.6436   -1.4979   -0.3476 C.ar    1  UNL1       -0.0598
      5 C          -0.7568   -1.4393   -0.3398 C.ar    1  UNL1       -0.0376
      6 C          -1.4418   -0.2867    0.0801 C.ar    1  UNL1        0.0530
      7 N          -2.8578   -0.1734   -0.0855 N.ar    1  UNL1       -0.2436
      8 C          -3.7166   -1.2590   -0.1231 C.ar    1  UNL1        0.3489
      9 O          -3.4897   -2.4603   -0.0794 O.2     1  UNL1       -0.2446
     10 N          -4.9969   -0.7288   -0.2191 N.ar    1  UNL1       -0.2260
     11 H          -5.8466   -1.2725   -0.3008 H       1  UNL1        0.1937
     12 N          -4.9643    0.6236   -0.3036 N.ar    1  UNL1       -0.1507
     13 C          -3.6891    0.9196   -0.2479 C.ar    1  UNL1        0.1727
     14 C          -3.2745    2.3334   -0.4375 C.ar    1  UNL1        0.0619
     15 C          -4.0794    3.3815    0.0093 C.ar    1  UNL1        0.1310
     16 O          -5.3185    3.1961    0.5584 O.3     1  UNL1       -0.5059
     17 C          -3.6304    4.6941   -0.0945 C.ar    1  UNL1        0.0228
     18 C          -2.3721    4.9626   -0.6563 C.ar    1  UNL1        0.1325
     19 O          -1.9700    6.2695   -0.7229 O.3     1  UNL1       -0.5059
     20 C          -2.0777    2.6372   -1.0984 C.ar    1  UNL1       -0.0319
     21 C          -1.5563    3.9297   -1.1646 C.ar    1  UNL1        0.0791
     22 C          -0.1124    4.1851   -1.5247 C.2     1  UNL1        0.2499
     23 O           0.4559    5.0768   -0.8847 O.2     1  UNL1       -0.2699
     24 N           0.6289    3.4503   -2.4780 N.am    1  UNL1       -0.3005
     25 C           0.2283    2.3179   -3.3043 C.3     1  UNL1        0.0035
     26 C           1.9527    3.9949   -2.8230 C.3     1  UNL1        0.0147
     27 C           3.0601    3.4588   -1.9111 C.3     1  UNL1       -0.0374
     28 C           4.4403    3.9653   -2.3378 C.3     1  UNL1       -0.0545
     29 C           5.5268    3.4709   -1.3937 C.3     1  UNL1       -0.0652
     30 H          -1.1164    1.6261    1.0675 H       1  UNL1        0.0638
     31 H           1.3135    1.5874    0.8758 H       1  UNL1        0.0618
     32 H           2.4771   -0.4235    0.0048 H       1  UNL1        0.0618
     33 H           1.1448   -2.4004   -0.6910 H       1  UNL1        0.0618
     34 H          -1.2843   -2.3114   -0.7179 H       1  UNL1        0.0638
     35 H          -5.6080    2.2781    0.3613 H       1  UNL1        0.2922
     36 H          -4.2616    5.4947    0.2823 H       1  UNL1        0.0691
     37 H          -2.6025    6.8396   -0.2562 H       1  UNL1        0.2922
     38 H          -1.5150    1.8051   -1.4659 H       1  UNL1        0.0634
     39 H          -0.3743    1.5812   -2.7942 H       1  UNL1        0.0429
     40 H           1.1231    1.7684   -3.6185 H       1  UNL1        0.0429
     41 H          -0.3036    2.6897   -4.1814 H       1  UNL1        0.0429
     42 H           1.9220    5.0895   -2.7738 H       1  UNL1        0.0464
     43 H           2.1686    3.7437   -3.8694 H       1  UNL1        0.0464
     44 H           3.0554    2.3621   -1.9260 H       1  UNL1        0.0280
     45 H           2.8632    3.7595   -0.8754 H       1  UNL1        0.0280
     46 H           4.4514    5.0616   -2.3541 H       1  UNL1        0.0263
     47 H           4.6663    3.6249   -3.3555 H       1  UNL1        0.0263
     48 H           5.3502    3.8298   -0.3747 H       1  UNL1        0.0230
     49 H           6.5078    3.8344   -1.7157 H       1  UNL1        0.0230
     50 H           5.5624    2.3769   -1.3703 H       1  UNL1        0.0230
@<TRIPOS>BOND
     1     1     2   ar
     2     2     3   ar
     3     3     4   ar
     4     4     5   ar
     5     5     6   ar
     6     1     6   ar
     7     6     7    1
     8     7     8   ar
     9     8     9    2
    10     8    10   ar
    11    10    11    1
    12    10    12   ar
    13    12    13   ar
    14     7    13   ar
    15    13    14    1
    16    14    15   ar
    17    15    16    1
    18    15    17   ar
    19    17    18   ar
    20    18    19    1
    21    14    20   ar
    22    20    21   ar
    23    18    21   ar
    24    21    22    1
    25    22    23    2
    26    22    24   am
    27    24    25    1
    28    24    26    1
    29    26    27    1
    30    27    28    1
    31    28    29    1
    32     1    30    1
    33     2    31    1
    34     3    32    1
    35     4    33    1
    36     5    34    1
    37    16    35    1
    38    17    36    1
    39    19    37    1
    40    20    38    1
    41    25    39    1
    42    25    40    1
    43    25    41    1
    44    26    42    1
    45    26    43    1
    46    27    44    1
    47    27    45    1
    48    28    46    1
    49    28    47    1
    50    29    48    1
    51    29    49    1
    52    29    50    1
@<TRIPOS>MOLECULE
*****
 51 54 0 0 0
SMALL
GASTEIGER

@<TRIPOS>ATOM
      1 C           5.1927   -2.6553    1.4241 C.3     1  UNL1       -0.0377
      2 C           4.7879   -1.4968    0.5408 C.ar    1  UNL1       -0.0250
      3 C           5.7798   -0.5258    0.3030 C.ar    1  UNL1       -0.0568
      4 C           5.5112    0.6027   -0.4627 C.ar    1  UNL1       -0.0614
      5 C           4.2469    0.7762   -1.0102 C.ar    1  UNL1       -0.0597
      6 C           3.2570   -0.1955   -0.8284 C.ar    1  UNL1       -0.0360
      7 C           3.5000   -1.3385   -0.0529 C.ar    1  UNL1        0.0689
      8 N           2.5080   -2.3803    0.0368 N.ar    1  UNL1       -0.2318
      9 N           2.9940   -3.6520    0.1211 N.ar    1  UNL1       -0.1742
     10 C           1.9486   -4.4552    0.1028 C.ar    1  UNL1        0.0504
     11 C           0.7586   -3.7464    0.0588 C.ar    1  UNL1       -0.0158
     12 C           1.0892   -2.3946   -0.0704 C.ar    1  UNL1        0.0781
     13 C           0.1129   -1.2756   -0.2473 C.ar    1  UNL1        0.0428
     14 C          -1.1115   -1.4691   -0.9244 C.ar    1  UNL1        0.1295
     15 O          -1.5082   -2.6614   -1.4804 O.3     1  UNL1       -0.5060
     16 C          -2.0243   -0.4344   -1.1224 C.ar    1  UNL1        0.0227
     17 C          -1.7027    0.8585   -0.7274 C.ar    1  UNL1        0.1325
     18 O          -2.6068    1.8495   -1.0088 O.3     1  UNL1       -0.5059
     19 C           0.3529    0.0334    0.2386 C.ar    1  UNL1       -0.0334
     20 C          -0.4947    1.1290   -0.0550 C.ar    1  UNL1        0.0791
     21 C          -0.0031    2.5567    0.0178 C.2     1  UNL1        0.2503
     22 O          -0.3010    3.2896   -0.9303 O.2     1  UNL1       -0.2699
     23 N           0.8559    3.0256    1.0194 N.am    1  UNL1       -0.2932
     24 C           1.2699    2.3078    2.2118 C.3     1  UNL1        0.0039
     25 C           1.5282    4.3098    0.7812 C.3     1  UNL1        0.0726
     26 C           0.9088    5.4332    1.5425 C.ar    1  UNL1        0.1220
     27 O           1.6936    6.0275    2.4945 O.2     1  UNL1       -0.4662
     28 C           0.9942    7.0825    2.9900 C.ar    1  UNL1        0.0921
     29 C          -0.2363    7.1739    2.3796 C.ar    1  UNL1       -0.0236
     30 C          -0.2910    6.1085    1.4451 C.ar    1  UNL1       -0.0191
     31 H           6.1379   -2.4519    1.9417 H       1  UNL1        0.0278
     32 H           5.3545   -3.5612    0.8323 H       1  UNL1        0.0278
     33 H           4.4476   -2.8305    2.2070 H       1  UNL1        0.0278
     34 H           6.7810   -0.6549    0.7124 H       1  UNL1        0.0621
     35 H           6.2964    1.3308   -0.6466 H       1  UNL1        0.0618
     36 H           4.0402    1.6534   -1.6185 H       1  UNL1        0.0618
     37 H           2.3264   -0.0511   -1.3664 H       1  UNL1        0.0639
     38 H           2.1151   -5.5241    0.1212 H       1  UNL1        0.0848
     39 H          -0.2311   -4.1827    0.0695 H       1  UNL1        0.0655
     40 H          -0.7136   -3.1369   -1.7739 H       1  UNL1        0.2922
     41 H          -2.9552   -0.6488   -1.6434 H       1  UNL1        0.0691
     42 H          -3.1942    1.5658   -1.7314 H       1  UNL1        0.2922
     43 H           1.2658    0.2039    0.7969 H       1  UNL1        0.0634
     44 H           0.5267    1.5675    2.5089 H       1  UNL1        0.0429
     45 H           1.4179    3.0088    3.0383 H       1  UNL1        0.0429
     46 H           2.2262    1.8202    1.9957 H       1  UNL1        0.0429
     47 H           1.5184    4.5637   -0.2846 H       1  UNL1        0.0545
     48 H           2.5825    4.1950    1.0582 H       1  UNL1        0.0545
     49 H           1.5008    7.6691    3.7434 H       1  UNL1        0.1029
     50 H          -0.9875    7.9275    2.5705 H       1  UNL1        0.0649
     51 H          -1.0913    5.8794    0.7538 H       1  UNL1        0.0652
@<TRIPOS>BOND
     1     1     2    1
     2     2     3   ar
     3     3     4   ar
     4     4     5   ar
     5     5     6   ar
     6     6     7   ar
     7     2     7   ar
     8     7     8    1
     9     8     9   ar
    10     9    10   ar
    11    10    11   ar
    12    11    12   ar
    13     8    12   ar
    14    12    13    1
    15    13    14   ar
    16    14    15    1
    17    14    16   ar
    18    16    17   ar
    19    17    18    1
    20    13    19   ar
    21    19    20   ar
    22    17    20   ar
    23    20    21    1
    24    21    22    2
    25    21    23   am
    26    23    24    1
    27    23    25    1
    28    25    26    1
    29    26    27   ar
    30    27    28   ar
    31    28    29   ar
    32    29    30   ar
    33    26    30   ar
    34     1    31    1
    35     1    32    1
    36     1    33    1
    37     3    34    1
    38     4    35    1
    39     5    36    1
    40     6    37    1
    41    10    38    1
    42    11    39    1
    43    15    40    1
    44    16    41    1
    45    18    42    1
    46    19    43    1
    47    24    44    1
    48    24    45    1
    49    24    46    1
    50    25    47    1
    51    25    48    1
    52    28    49    1
    53    29    50    1
    54    30    51    1
@<TRIPOS>MOLECULE
*****
 34 36 0 0 0
SMALL
GASTEIGER

@<TRIPOS>ATOM
      1 O           1.1175    0.0552    0.5199 O.3     1  UNL1       -0.5066
      2 C           2.4713    0.1246    0.3850 C.ar    1  UNL1        0.1204
      3 C           3.0944    1.2700   -0.0880 C.ar    1  UNL1        0.0220
      4 C           4.4764    1.2539   -0.3103 C.ar    1  UNL1        0.1310
      5 O           5.0408    2.3921   -0.8197 O.3     1  UNL1       -0.5059
      6 C           5.2483    0.1021   -0.0593 C.ar    1  UNL1        0.0612
      7 C           4.6077   -0.9850    0.5521 C.ar    1  UNL1       -0.0441
      8 C           3.2187   -0.9916    0.7308 C.ar    1  UNL1       -0.0193
      9 C           6.6902    0.0541   -0.4645 C.ar    1  UNL1        0.1727
     10 N           7.4279    1.1364   -0.4811 N.ar    1  UNL1       -0.1507
     11 N           8.6477    0.7286   -0.9158 N.ar    1  UNL1       -0.2260
     12 H           9.3828    1.3773   -1.1617 H       1  UNL1        0.1937
     13 C           8.6384   -0.6244   -1.2210 C.ar    1  UNL1        0.3489
     14 O           9.5622   -1.2155   -1.7631 O.2     1  UNL1       -0.2446
     15 N           7.3889   -1.0798   -0.8387 N.ar    1  UNL1       -0.2434
     16 C           6.9832   -2.4303   -0.9614 C.ar    1  UNL1        0.0558
     17 C           7.7386   -3.4844   -0.3903 C.ar    1  UNL1       -0.0264
     18 C           9.0941   -3.3068    0.2442 C.3     1  UNL1       -0.0377
     19 C           7.2152   -4.7910   -0.4124 C.ar    1  UNL1       -0.0569
     20 C           5.9735   -5.0605   -0.9809 C.ar    1  UNL1       -0.0614
     21 C           5.2589   -4.0374   -1.5916 C.ar    1  UNL1       -0.0598
     22 C           5.7688   -2.7377   -1.5977 C.ar    1  UNL1       -0.0374
     23 H           0.7177    0.8475    0.1233 H       1  UNL1        0.2921
     24 H           2.5141    2.1570   -0.3181 H       1  UNL1        0.0691
     25 H           4.5212    3.1636   -0.5399 H       1  UNL1        0.2922
     26 H           5.1613   -1.8647    0.8664 H       1  UNL1        0.0627
     27 H           2.7223   -1.8780    1.1184 H       1  UNL1        0.0654
     28 H           9.2066   -2.3279    0.7163 H       1  UNL1        0.0278
     29 H           9.8765   -3.4454   -0.5077 H       1  UNL1        0.0278
     30 H           9.2536   -4.0471    1.0369 H       1  UNL1        0.0278
     31 H           7.7740   -5.6084    0.0417 H       1  UNL1        0.0621
     32 H           5.5716   -6.0699   -0.9525 H       1  UNL1        0.0618
     33 H           4.2987   -4.2479   -2.0555 H       1  UNL1        0.0618
     34 H           5.1938   -1.9595   -2.0943 H       1  UNL1        0.0638
@<TRIPOS>BOND
     1     1     2    1
     2     2     3   ar
     3     3     4   ar
     4     4     5    1
     5     4     6   ar
     6     6     7   ar
     7     7     8   ar
     8     2     8   ar
     9     6     9    1
    10     9    10   ar
    11    10    11   ar
    12    11    12    1
    13    11    13   ar
    14    13    14    2
    15    13    15   ar
    16     9    15   ar
    17    15    16    1
    18    16    17   ar
    19    17    18    1
    20    17    19   ar
    21    19    20   ar
    22    20    21   ar
    23    21    22   ar
    24    16    22   ar
    25     1    23    1
    26     3    24    1
    27     5    25    1
    28     7    26    1
    29     8    27    1
    30    18    28    1
    31    18    29    1
    32    18    30    1
    33    19    31    1
    34    20    32    1
    35    21    33    1
    36    22    34    1
@<TRIPOS>MOLECULE
*****
 31 33 0 0 0
SMALL
GASTEIGER

@<TRIPOS>ATOM
      1 O           0.9651    0.0807    0.4123 O.3     1  UNL1       -0.5066
      2 C           2.3207    0.1527    0.2990 C.ar    1  UNL1        0.1204
      3 C           2.9505    1.2984   -0.1661 C.ar    1  UNL1        0.0220
      4 C           4.3368    1.2859   -0.3592 C.ar    1  UNL1        0.1310
      5 O           4.9111    2.4187   -0.8674 O.3     1  UNL1       -0.5059
      6 C           5.1052    0.1382   -0.0830 C.ar    1  UNL1        0.0612
      7 C           4.4533   -0.9511    0.5143 C.ar    1  UNL1       -0.0441
      8 C           3.0618   -0.9624    0.6611 C.ar    1  UNL1       -0.0193
      9 C           6.5587    0.0943   -0.4344 C.ar    1  UNL1        0.1727
     10 N           7.3031    1.1700   -0.4393 N.ar    1  UNL1       -0.1507
     11 N           8.5406    0.7477   -0.8180 N.ar    1  UNL1       -0.2260
     12 H           9.2827    1.3921   -1.0588 H       1  UNL1        0.1937
     13 C           8.5308   -0.6074   -1.1164 C.ar    1  UNL1        0.3490
     14 O           9.4414   -1.2098   -1.6594 O.2     1  UNL1       -0.2446
     15 N           7.2612   -1.0473   -0.7703 N.ar    1  UNL1       -0.2422
     16 C           6.8537   -2.3890   -0.9274 C.ar    1  UNL1        0.0712
     17 C           7.5595   -3.4450   -0.3114 C.ar    1  UNL1        0.0649
     18 CL          8.9495   -3.1968    0.6923 Cl      1  UNL1       -0.0814
     19 C           7.0652   -4.7543   -0.3658 C.ar    1  UNL1       -0.0414
     20 C           5.8707   -5.0286   -1.0277 C.ar    1  UNL1       -0.0603
     21 C           5.1865   -4.0033   -1.6742 C.ar    1  UNL1       -0.0597
     22 C           5.6852   -2.6963   -1.6421 C.ar    1  UNL1       -0.0362
     23 H           0.5707    0.8855    0.0366 H       1  UNL1        0.2921
     24 H           2.3727    2.1827   -0.4126 H       1  UNL1        0.0691
     25 H           4.3818    3.1927   -0.6144 H       1  UNL1        0.2922
     26 H           5.0019   -1.8263    0.8486 H       1  UNL1        0.0627
     27 H           2.5595   -1.8481    1.0419 H       1  UNL1        0.0654
     28 H           7.5932   -5.5591    0.1409 H       1  UNL1        0.0633
     29 H           5.4733   -6.0410   -1.0314 H       1  UNL1        0.0618
     30 H           4.2546   -4.2170   -2.1931 H       1  UNL1        0.0618
     31 H           5.1341   -1.9179   -2.1665 H       1  UNL1        0.0639
@<TRIPOS>BOND
     1     1     2    1
     2     2     3   ar
     3     3     4   ar
     4     4     5    1
     5     4     6   ar
     6     6     7   ar
     7     7     8   ar
     8     2     8   ar
     9     6     9    1
    10     9    10   ar
    11    10    11   ar
    12    11    12    1
    13    11    13   ar
    14    13    14    2
    15    13    15   ar
    16     9    15   ar
    17    15    16    1
    18    16    17   ar
    19    17    18    1
    20    17    19   ar
    21    19    20   ar
    22    20    21   ar
    23    21    22   ar
    24    16    22   ar
    25     1    23    1
    26     3    24    1
    27     5    25    1
    28     7    26    1
    29     8    27    1
    30    19    28    1
    31    20    29    1
    32    21    30    1
    33    22    31    1
@<TRIPOS>MOLECULE
*****
 37 39 0 0 0
SMALL
GASTEIGER

@<TRIPOS>ATOM
      1 O           1.1149    0.1596    0.3997 O.3     1  UNL1       -0.5066
      2 C           2.4692    0.2184    0.2616 C.ar    1  UNL1        0.1204
      3 C           3.1064    1.3744   -0.1643 C.ar    1  UNL1        0.0220
      4 C           4.4939    1.3582   -0.3677 C.ar    1  UNL1        0.1310
      5 O           5.0740    2.5156   -0.8151 O.3     1  UNL1       -0.5059
      6 C           5.2590    0.1969   -0.1499 C.ar    1  UNL1        0.0612
      7 C           4.5907   -0.9231    0.3702 C.ar    1  UNL1       -0.0441
      8 C           3.2017   -0.9211    0.5516 C.ar    1  UNL1       -0.0193
      9 C           6.7259    0.1773   -0.4616 C.ar    1  UNL1        0.1727
     10 N           7.4519    1.2625   -0.4886 N.ar    1  UNL1       -0.1507
     11 N           8.6949    0.8462   -0.8606 N.ar    1  UNL1       -0.2260
     12 H           9.4264    1.4945   -1.1196 H       1  UNL1        0.1937
     13 C           8.7001   -0.5174   -1.1154 C.ar    1  UNL1        0.3489
     14 O           9.6274   -1.1346   -1.6210 O.2     1  UNL1       -0.2446
     15 N           7.4490   -0.9600   -0.7463 N.ar    1  UNL1       -0.2433
     16 C           7.0146   -2.2708   -0.9864 C.ar    1  UNL1        0.0561
     17 C           7.3051   -3.2995   -0.0651 C.ar    1  UNL1       -0.0236
     18 C           8.2893   -3.1410    1.0718 C.3     1  UNL1       -0.0286
     19 C           7.7025   -2.5360    2.3362 C.3     1  UNL1       -0.0612
     20 C           6.6470   -4.5323   -0.2141 C.ar    1  UNL1       -0.0566
     21 C           5.8156   -4.7729   -1.3091 C.ar    1  UNL1       -0.0614
     22 C           5.6384   -3.7904   -2.2795 C.ar    1  UNL1       -0.0598
     23 C           6.2182   -2.5338   -2.1096 C.ar    1  UNL1       -0.0374
     24 H           0.7232    0.9690    0.0306 H       1  UNL1        0.2921
     25 H           2.5348    2.2743   -0.3641 H       1  UNL1        0.0691
     26 H           4.5175    3.2757   -0.5831 H       1  UNL1        0.2922
     27 H           5.1152   -1.8295    0.6480 H       1  UNL1        0.0627
     28 H           2.6961   -1.8168    0.9047 H       1  UNL1        0.0654
     29 H           9.1490   -2.5479    0.7416 H       1  UNL1        0.0311
     30 H           8.7071   -4.1263    1.3156 H       1  UNL1        0.0311
     31 H           7.3747   -1.5049    2.1760 H       1  UNL1        0.0233
     32 H           8.4616   -2.5251    3.1265 H       1  UNL1        0.0233
     33 H           6.8474   -3.1151    2.6987 H       1  UNL1        0.0233
     34 H           6.7884   -5.3209    0.5228 H       1  UNL1        0.0621
     35 H           5.3249   -5.7373   -1.4148 H       1  UNL1        0.0618
     36 H           5.0369   -3.9987   -3.1606 H       1  UNL1        0.0618
     37 H           6.0576   -1.7657   -2.8625 H       1  UNL1        0.0638
@<TRIPOS>BOND
     1     1     2    1
     2     2     3   ar
     3     3     4   ar
     4     4     5    1
     5     4     6   ar
     6     6     7   ar
     7     7     8   ar
     8     2     8   ar
     9     6     9    1
    10     9    10   ar
    11    10    11   ar
    12    11    12    1
    13    11    13   ar
    14    13    14    2
    15    13    15   ar
    16     9    15   ar
    17    15    16    1
    18    16    17   ar
    19    17    18    1
    20    18    19    1
    21    17    20   ar
    22    20    21   ar
    23    21    22   ar
    24    22    23   ar
    25    16    23   ar
    26     1    24    1
    27     3    25    1
    28     5    26    1
    29     7    27    1
    30     8    28    1
    31    18    29    1
    32    18    30    1
    33    19    31    1
    34    19    32    1
    35    19    33    1
    36    20    34    1
    37    21    35    1
    38    22    36    1
    39    23    37    1
@<TRIPOS>MOLECULE
*****
 47 49 0 0 0
SMALL
GASTEIGER

@<TRIPOS>ATOM
      1 F           2.0517    0.0270   -1.8551 F       1  UNL1       -0.2033
      2 C           3.1751   -0.1997   -1.1653 C.ar    1  UNL1        0.1473
      3 C           4.1287    0.8224   -1.1694 C.ar    1  UNL1       -0.0244
      4 C           5.4073    0.5877   -0.6790 C.ar    1  UNL1       -0.0589
      5 C           5.7181   -0.6733   -0.1961 C.ar    1  UNL1       -0.0596
      6 C           4.7219   -1.6559   -0.1107 C.ar    1  UNL1       -0.0348
      7 C           3.3992   -1.4272   -0.5525 C.ar    1  UNL1        0.0881
      8 N           2.3917   -2.4294   -0.3509 N.ar    1  UNL1       -0.2408
      9 C           2.7214   -3.7763   -0.1961 C.ar    1  UNL1        0.3490
     10 O           3.7991   -4.3525   -0.2225 O.2     1  UNL1       -0.2446
     11 N           1.5270   -4.4491   -0.0434 N.ar    1  UNL1       -0.2260
     12 H           1.4349   -5.4534    0.0482 H       1  UNL1        0.1937
     13 N           0.4817   -3.6083   -0.1336 N.ar    1  UNL1       -0.1507
     14 C           1.0024   -2.4142   -0.3162 C.ar    1  UNL1        0.1728
     15 C           0.0228   -1.2816   -0.4523 C.ar    1  UNL1        0.0619
     16 C          -1.2481   -1.5813   -0.9885 C.ar    1  UNL1        0.1310
     17 O          -1.6493   -2.8424   -1.3579 O.3     1  UNL1       -0.5059
     18 C          -2.2102   -0.5932   -1.1873 C.ar    1  UNL1        0.0228
     19 C          -1.9087    0.7372   -0.8934 C.ar    1  UNL1        0.1325
     20 O          -2.8769    1.6658   -1.1235 O.3     1  UNL1       -0.5059
     21 C           0.2652    0.0504   -0.0702 C.ar    1  UNL1       -0.0319
     22 C          -0.6544    1.0904   -0.3587 C.ar    1  UNL1        0.0791
     23 C          -0.2184    2.5422   -0.4332 C.2     1  UNL1        0.2499
     24 O          -0.5992    3.1748   -1.4209 O.2     1  UNL1       -0.2699
     25 N           0.6764    3.1315    0.4829 N.am    1  UNL1       -0.3005
     26 C           1.1923    2.4574    1.6615 C.3     1  UNL1        0.0035
     27 C           1.4806    4.2824    0.0288 C.3     1  UNL1        0.0144
     28 C           0.7868    5.5669   -0.4507 C.3     1  UNL1       -0.0400
     29 C          -0.0186    6.2972    0.6101 C.3     1  UNL1       -0.0639
     30 H           3.8684    1.7902   -1.5893 H       1  UNL1        0.0647
     31 H           6.1631    1.3674   -0.7089 H       1  UNL1        0.0618
     32 H           6.7317   -0.9031    0.1269 H       1  UNL1        0.0618
     33 H           5.0328   -2.6023    0.3275 H       1  UNL1        0.0639
     34 H          -1.0009   -3.4854   -0.9956 H       1  UNL1        0.2922
     35 H          -3.1750   -0.8776   -1.5985 H       1  UNL1        0.0691
     36 H          -3.5116    1.3278   -1.7808 H       1  UNL1        0.2922
     37 H           1.2196    0.2874    0.3710 H       1  UNL1        0.0634
     38 H           0.4805    1.7283    2.0510 H       1  UNL1        0.0429
     39 H           1.3999    3.1912    2.4452 H       1  UNL1        0.0429
     40 H           2.1322    1.9646    1.3891 H       1  UNL1        0.0429
     41 H           2.1111    3.9095   -0.7878 H       1  UNL1        0.0464
     42 H           2.1597    4.5655    0.8432 H       1  UNL1        0.0464
     43 H           0.1594    5.3929   -1.3284 H       1  UNL1        0.0278
     44 H           1.5771    6.2522   -0.7880 H       1  UNL1        0.0278
     45 H          -0.8821    5.7106    0.9330 H       1  UNL1        0.0230
     46 H          -0.3892    7.2456    0.2017 H       1  UNL1        0.0230
     47 H           0.5968    6.5355    1.4831 H       1  UNL1        0.0230
@<TRIPOS>BOND
     1     1     2    1
     2     2     3   ar
     3     3     4   ar
     4     4     5   ar
     5     5     6   ar
     6     6     7   ar
     7     2     7   ar
     8     7     8    1
     9     8     9   ar
    10     9    10    2
    11     9    11   ar
    12    11    12    1
    13    11    13   ar
    14    13    14   ar
    15     8    14   ar
    16    14    15    1
    17    15    16   ar
    18    16    17    1
    19    16    18   ar
    20    18    19   ar
    21    19    20    1
    22    15    21   ar
    23    21    22   ar
    24    19    22   ar
    25    22    23    1
    26    23    24    2
    27    23    25   am
    28    25    26    1
    29    25    27    1
    30    27    28    1
    31    28    29    1
    32     3    30    1
    33     4    31    1
    34     5    32    1
    35     6    33    1
    36    17    34    1
    37    18    35    1
    38    20    36    1
    39    21    37    1
    40    26    38    1
    41    26    39    1
    42    26    40    1
    43    27    41    1
    44    27    42    1
    45    28    43    1
    46    28    44    1
    47    29    45    1
    48    29    46    1
    49    29    47    1
@<TRIPOS>MOLECULE
*****
 52 56 0 0 0
SMALL
GASTEIGER

@<TRIPOS>ATOM
      1 O          -1.3571    1.8640   -0.2589 O.3     1  UNL1       -0.4526
      2 C          -0.8151    3.0739    0.3093 C.3     1  UNL1        0.2332
      3 O           0.6135    3.0227    0.5042 O.3     1  UNL1       -0.4525
      4 C           0.8858    1.7540    0.0947 C.ar    1  UNL1        0.1680
      5 C          -0.2378    1.0977   -0.3424 C.ar    1  UNL1        0.1663
      6 C           2.1430    1.1598    0.0765 C.ar    1  UNL1        0.0053
      7 C           2.2750   -0.1551   -0.4005 C.ar    1  UNL1        0.0400
      8 C           1.0877   -0.8150   -0.8326 C.ar    1  UNL1       -0.0366
      9 C          -0.1698   -0.1892   -0.8121 C.ar    1  UNL1       -0.0144
     10 N           3.5751   -0.8050   -0.5148 N.am    1  UNL1       -0.2703
     11 C           3.6783   -1.8846   -1.4974 C.3     1  UNL1        0.0086
     12 C           4.6720   -0.4200    0.3013 C.2     1  UNL1        0.2541
     13 O           4.5784    0.3716    1.2465 O.2     1  UNL1       -0.2695
     14 C           6.0746   -0.9193    0.0721 C.ar    1  UNL1        0.0793
     15 C           7.1013    0.0611    0.1318 C.ar    1  UNL1       -0.0351
     16 C           6.4518   -2.2609   -0.0094 C.ar    1  UNL1        0.1310
     17 O           5.5315   -3.2668    0.0598 O.3     1  UNL1       -0.5059
     18 C           7.7919   -2.6610   -0.1315 C.ar    1  UNL1        0.0060
     19 C           8.7647   -1.6626   -0.1146 C.ar    1  UNL1        0.0695
     20 C           8.4611   -0.3102    0.0072 C.ar    1  UNL1        0.0239
     21 N          10.1299   -1.7265   -0.1764 N.ar    1  UNL1       -0.2766
     22 H          10.7086   -2.5549   -0.2493 H       1  UNL1        0.1889
     23 N          10.7420   -0.5385   -0.1068 N.ar    1  UNL1       -0.1774
     24 C           9.7315    0.3458   -0.0373 C.ar    1  UNL1        0.0748
     25 C          10.0445    1.8046    0.0257 C.3     1  UNL1        0.0171
     26 C           9.9666    2.3452   -1.3867 C.ar    1  UNL1       -0.0413
     27 C           8.8711    3.1279   -1.7755 C.ar    1  UNL1       -0.0582
     28 C           8.8332    3.7163   -3.0378 C.ar    1  UNL1       -0.0612
     29 C           9.8703    3.5061   -3.9416 C.ar    1  UNL1       -0.0588
     30 C          10.9505    2.6822   -3.6017 C.ar    1  UNL1       -0.0502
     31 C          10.9992    2.1185   -2.3178 C.ar    1  UNL1       -0.0553
     32 C          12.0155    2.3701   -4.6133 C.3     1  UNL1       -0.0397
     33 H          -1.2945    3.2527    1.2790 H       1  UNL1        0.1166
     34 H          -1.0507    3.9126   -0.3569 H       1  UNL1        0.1166
     35 H           2.9893    1.7535    0.3958 H       1  UNL1        0.0674
     36 H           1.1113   -1.8449   -1.1774 H       1  UNL1        0.0637
     37 H          -1.0623   -0.7032   -1.1550 H       1  UNL1        0.0656
     38 H           2.9453   -1.7827   -2.3026 H       1  UNL1        0.0433
     39 H           3.4986   -2.8372   -0.9896 H       1  UNL1        0.0433
     40 H           4.6571   -1.8778   -1.9794 H       1  UNL1        0.0433
     41 H           6.8413    1.1053    0.2937 H       1  UNL1        0.0633
     42 H           5.6884   -3.7221    0.9035 H       1  UNL1        0.2922
     43 H           8.0620   -3.7086   -0.2304 H       1  UNL1        0.0675
     44 H          11.0489    1.9833    0.4313 H       1  UNL1        0.0377
     45 H           9.3431    2.3260    0.6868 H       1  UNL1        0.0377
     46 H           8.0438    3.2943   -1.0894 H       1  UNL1        0.0620
     47 H           7.9888    4.3429   -3.3178 H       1  UNL1        0.0618
     48 H           9.8325    3.9859   -4.9171 H       1  UNL1        0.0620
     49 H          11.8446    1.4909   -2.0378 H       1  UNL1        0.0623
     50 H          11.8738    2.9428   -5.5325 H       1  UNL1        0.0278
     51 H          11.9776    1.3070   -4.8745 H       1  UNL1        0.0278
     52 H          13.0095    2.6120   -4.2225 H       1  UNL1        0.0278
@<TRIPOS>BOND
     1     1     2    1
     2     2     3    1
     3     3     4    1
     4     4     5   ar
     5     1     5    1
     6     4     6   ar
     7     6     7   ar
     8     7     8   ar
     9     8     9   ar
    10     5     9   ar
    11     7    10    1
    12    10    11    1
    13    10    12   am
    14    12    13    2
    15    12    14    1
    16    14    15   ar
    17    14    16   ar
    18    16    17    1
    19    16    18   ar
    20    18    19   ar
    21    19    20   ar
    22    15    20   ar
    23    19    21   ar
    24    21    22    1
    25    21    23   ar
    26    23    24   ar
    27    20    24   ar
    28    24    25    1
    29    25    26    1
    30    26    27   ar
    31    27    28   ar
    32    28    29   ar
    33    29    30   ar
    34    30    31   ar
    35    26    31   ar
    36    30    32    1
    37     2    33    1
    38     2    34    1
    39     6    35    1
    40     8    36    1
    41     9    37    1
    42    11    38    1
    43    11    39    1
    44    11    40    1
    45    15    41    1
    46    17    42    1
    47    18    43    1
    48    25    44    1
    49    25    45    1
    50    27    46    1
    51    28    47    1
    52    29    48    1
    53    31    49    1
    54    32    50    1
    55    32    51    1
    56    32    52    1
@<TRIPOS>MOLECULE
*****
 70 73 0 0 0
SMALL
GASTEIGER

@<TRIPOS>ATOM
      1 C           2.1829    5.0424    8.6823 C.3     1  UNL1       -0.0055
      2 C           3.0055    3.7999    9.0257 C.3     1  UNL1       -0.0316
      3 N           2.7041    3.3027   10.4177 N.4     1  UNL1        0.2331
      4 H           3.0584    2.3362   10.4134 H       1  UNL1        0.2030
      5 C           3.4872    3.9910   11.4966 C.3     1  UNL1       -0.0431
      6 C           1.2322    3.1876   10.7231 C.3     1  UNL1       -0.0316
      7 C           0.4742    4.4500   10.3467 C.3     1  UNL1       -0.0055
      8 C           0.6637    4.8045    8.8486 C.3     1  UNL1       -0.0063
      9 H           0.1371    5.7455    8.6396 H       1  UNL1        0.0352
     10 C           0.0870    3.7495    7.8954 C.ar    1  UNL1       -0.0438
     11 C          -0.9852    2.9263    8.2841 C.ar    1  UNL1       -0.0565
     12 C          -1.2681    1.7453    7.5973 C.ar    1  UNL1       -0.0400
     13 C           0.6463    3.5169    6.6283 C.ar    1  UNL1       -0.0565
     14 C           0.3269    2.3615    5.9068 C.ar    1  UNL1       -0.0400
     15 C          -0.5402    1.4146    6.4623 C.ar    1  UNL1        0.0363
     16 N          -0.5680    0.1042    5.9321 N.am    1  UNL1       -0.2704
     17 C          -0.9242   -0.0157    4.5176 C.3     1  UNL1        0.0086
     18 C          -0.3848   -1.0903    6.6550 C.2     1  UNL1        0.2541
     19 O          -0.5574   -2.1882    6.1166 O.2     1  UNL1       -0.2695
     20 C           0.0606   -1.1304    8.0928 C.ar    1  UNL1        0.0793
     21 C           1.0281   -0.3053    8.6867 C.ar    1  UNL1        0.1310
     22 C           1.3383   -0.3853   10.0531 C.ar    1  UNL1        0.0060
     23 O           1.8071    0.5985    8.0110 O.3     1  UNL1       -0.5059
     24 C          -0.4948   -2.1723    8.8735 C.ar    1  UNL1       -0.0351
     25 C          -0.1574   -2.3017   10.2379 C.ar    1  UNL1        0.0236
     26 C           0.7165   -1.3807   10.7995 C.ar    1  UNL1        0.0695
     27 C          -0.4553   -3.1976   11.3035 C.ar    1  UNL1        0.0705
     28 N           0.1222   -2.8160   12.4495 N.ar    1  UNL1       -0.1777
     29 N           0.8173   -1.7247   12.1172 N.ar    1  UNL1       -0.2766
     30 H           1.3496   -1.2667   12.8459 H       1  UNL1        0.1889
     31 C          -1.2994   -4.4316   11.2857 C.3     1  UNL1       -0.0076
     32 C          -0.7162   -5.5338   10.3906 C.3     1  UNL1       -0.0426
     33 C          -1.5475   -6.8428   10.3244 C.3     1  UNL1       -0.0374
     34 C          -2.9584   -6.5736    9.7755 C.3     1  UNL1       -0.0601
     35 C          -0.8313   -7.8204    9.3725 C.3     1  UNL1       -0.0601
     36 C          -1.6583   -7.5040   11.7080 C.3     1  UNL1       -0.0601
     37 H           2.4291    5.3768    7.6703 H       1  UNL1        0.0323
     38 H           2.4916    5.8633    9.3421 H       1  UNL1        0.0323
     39 H           4.0803    4.0053    8.9707 H       1  UNL1        0.0814
     40 H           2.7986    2.9705    8.3456 H       1  UNL1        0.0814
     41 H           3.1699    5.0331   11.5579 H       1  UNL1        0.0777
     42 H           4.5483    3.9126   11.2468 H       1  UNL1        0.0777
     43 H           3.2962    3.4649   12.4362 H       1  UNL1        0.0777
     44 H           1.1256    2.9528   11.7858 H       1  UNL1        0.0814
     45 H           0.8696    2.3244   10.1624 H       1  UNL1        0.0814
     46 H           0.8299    5.2893   10.9638 H       1  UNL1        0.0323
     47 H          -0.5841    4.3411   10.5994 H       1  UNL1        0.0323
     48 H          -1.5748    3.1341    9.1720 H       1  UNL1        0.0621
     49 H          -2.0380    1.0750    7.9734 H       1  UNL1        0.0636
     50 H           1.4001    4.1773    6.2059 H       1  UNL1        0.0621
     51 H           0.8610    2.1544    4.9819 H       1  UNL1        0.0636
     52 H          -1.3515    0.9151    4.1314 H       1  UNL1        0.0433
     53 H          -1.6724   -0.8065    4.3925 H       1  UNL1        0.0433
     54 H          -0.0300   -0.2822    3.9463 H       1  UNL1        0.0433
     55 H           2.0742    0.2631   10.5028 H       1  UNL1        0.0675
     56 H           1.6617    0.4482    7.0575 H       1  UNL1        0.2922
     57 H          -1.1667   -2.8983    8.4171 H       1  UNL1        0.0633
     58 H          -2.3025   -4.1479   10.9541 H       1  UNL1        0.0329
     59 H          -1.3946   -4.8055   12.3111 H       1  UNL1        0.0329
     60 H           0.3009   -5.7697   10.7347 H       1  UNL1        0.0274
     61 H          -0.5991   -5.1439    9.3707 H       1  UNL1        0.0274
     62 H          -2.9136   -6.0976    8.7895 H       1  UNL1        0.0235
     63 H          -3.5368   -5.9223   10.4382 H       1  UNL1        0.0235
     64 H          -3.5241   -7.5064    9.6696 H       1  UNL1        0.0235
     65 H          -0.7473   -7.4004    8.3637 H       1  UNL1        0.0235
     66 H          -1.3754   -8.7683    9.2934 H       1  UNL1        0.0235
     67 H           0.1814   -8.0463    9.7253 H       1  UNL1        0.0235
     68 H          -2.2111   -6.8788   12.4163 H       1  UNL1        0.0235
     69 H          -0.6675   -7.7005   12.1323 H       1  UNL1        0.0235
     70 H          -2.1883   -8.4613   11.6443 H       1  UNL1        0.0235
@<TRIPOS>BOND
     1     1     2    1
     2     2     3    1
     3     3     6    1
     4     6     7    1
     5     7     8    1
     6     8     9    1
     7     1     8    1
     8     8    10    1
     9    10    11   ar
    10    11    12   ar
    11    10    13   ar
    12    13    14   ar
    13    14    15   ar
    14    12    15   ar
    15    15    16    1
    16    16    17    1
    17    16    18   am
    18    18    19    2
    19    18    20    1
    20    20    21   ar
    21    21    22   ar
    22    21    23    1
    23    20    24   ar
    24    24    25   ar
    25    25    26   ar
    26    22    26   ar
    27    25    27   ar
    28    27    28   ar
    29    28    29   ar
    30    29    30    1
    31    26    29   ar
    32    27    31    1
    33    31    32    1
    34    32    33    1
    35    33    34    1
    36    33    35    1
    37    33    36    1
    38     3     5    1
    39     3     4    1
    40     1    37    1
    41     1    38    1
    42     2    39    1
    43     2    40    1
    44     5    41    1
    45     5    42    1
    46     5    43    1
    47     6    44    1
    48     6    45    1
    49     7    46    1
    50     7    47    1
    51    11    48    1
    52    12    49    1
    53    13    50    1
    54    14    51    1
    55    17    52    1
    56    17    53    1
    57    17    54    1
    58    22    55    1
    59    23    56    1
    60    24    57    1
    61    31    58    1
    62    31    59    1
    63    32    60    1
    64    32    61    1
    65    34    62    1
    66    34    63    1
    67    34    64    1
    68    35    65    1
    69    35    66    1
    70    35    67    1
    71    36    68    1
    72    36    69    1
    73    36    70    1
@<TRIPOS>MOLECULE
*****
 65 68 0 0 0
SMALL
GASTEIGER

@<TRIPOS>ATOM
      1 C           4.4914    3.7141   -1.8105 C.3     1  UNL1       -0.0652
      2 C           4.9280    2.2597   -1.8816 C.3     1  UNL1       -0.0545
      3 C           6.1243    1.9955   -0.9671 C.3     1  UNL1       -0.0374
      4 C           6.5936    0.5386   -1.0094 C.3     1  UNL1        0.0147
      5 N           7.0431    0.0908   -2.3275 N.am    1  UNL1       -0.2993
      6 C           8.1624    0.7895   -2.9406 C.3     1  UNL1        0.0035
      7 C           6.6429   -1.1818   -2.7743 C.2     1  UNL1        0.2671
      8 O           6.0049   -1.9268   -2.0275 O.2     1  UNL1       -0.2682
      9 C           7.0229   -1.6309   -4.1377 C.ar    1  UNL1        0.1547
     10 N           7.3649   -0.8003   -5.1456 N.ar    1  UNL1       -0.1681
     11 N           7.6229   -1.6136   -6.1814 N.ar    1  UNL1       -0.2761
     12 H           7.9219   -1.1960   -7.0558 H       1  UNL1        0.1889
     13 C           7.0453   -2.9868   -4.5873 C.ar    1  UNL1        0.0328
     14 C           7.4516   -2.9405   -5.9126 C.ar    1  UNL1        0.0700
     15 C           6.7797   -4.2401   -4.0074 C.ar    1  UNL1       -0.0347
     16 C           6.8276   -5.4039   -4.7889 C.ar    1  UNL1        0.0793
     17 C           7.3423   -5.3156   -6.0919 C.ar    1  UNL1        0.1310
     18 C           7.6408   -4.0849   -6.6909 C.ar    1  UNL1        0.0060
     19 O           7.6275   -6.4239   -6.8473 O.3     1  UNL1       -0.5059
     20 C           6.3811   -6.7287   -4.2282 C.2     1  UNL1        0.2541
     21 O           7.0293   -7.7131   -4.5942 O.2     1  UNL1       -0.2695
     22 N           5.2960   -6.7971   -3.3338 N.am    1  UNL1       -0.2704
     23 C           4.9692   -8.0545   -2.6792 C.3     1  UNL1        0.0086
     24 C           4.3690   -5.7451   -3.1385 C.ar    1  UNL1        0.0364
     25 C           3.6280   -5.2605   -4.2121 C.ar    1  UNL1       -0.0385
     26 C           2.8825   -4.0855   -4.0730 C.ar    1  UNL1       -0.0389
     27 C           2.8746   -3.3501   -2.8784 C.ar    1  UNL1        0.0299
     28 C           3.5683   -3.9095   -1.7921 C.ar    1  UNL1       -0.0389
     29 C           4.2833   -5.1089   -1.9009 C.ar    1  UNL1       -0.0385
     30 N           2.1987   -2.1561   -2.7543 N.pl3   1  UNL1       -0.3255
     31 C           1.1025   -1.7550   -3.6427 C.3     1  UNL1        0.0357
     32 C          -0.0044   -1.1449   -2.7688 C.3     1  UNL1        0.0634
     33 O           0.4779   -0.0096   -2.0270 O.3     1  UNL1       -0.3767
     34 C           1.5707   -0.3968   -1.1672 C.3     1  UNL1        0.0634
     35 C           2.7263   -1.0311   -1.9611 C.3     1  UNL1        0.0357
     36 H           3.6391    3.8884   -2.4745 H       1  UNL1        0.0230
     37 H           5.3035    4.3817   -2.1158 H       1  UNL1        0.0230
     38 H           4.1902    3.9815   -0.7928 H       1  UNL1        0.0230
     39 H           5.1774    2.0141   -2.9200 H       1  UNL1        0.0263
     40 H           4.0897    1.6214   -1.5863 H       1  UNL1        0.0263
     41 H           5.8481    2.2373    0.0672 H       1  UNL1        0.0280
     42 H           6.9448    2.6693   -1.2349 H       1  UNL1        0.0280
     43 H           5.7787   -0.0973   -0.6456 H       1  UNL1        0.0464
     44 H           7.4332    0.3991   -0.3182 H       1  UNL1        0.0464
     45 H           8.5669    1.5444   -2.2636 H       1  UNL1        0.0429
     46 H           7.8241    1.2848   -3.8538 H       1  UNL1        0.0429
     47 H           8.9620    0.0757   -3.1634 H       1  UNL1        0.0429
     48 H           6.5152   -4.2770   -2.9586 H       1  UNL1        0.0633
     49 H           8.0137   -4.0351   -7.7086 H       1  UNL1        0.0675
     50 H           7.6965   -7.1842   -6.2265 H       1  UNL1        0.2922
     51 H           5.3316   -8.9023   -3.2649 H       1  UNL1        0.0433
     52 H           3.8820   -8.1543   -2.5704 H       1  UNL1        0.0433
     53 H           5.4344   -8.0764   -1.6899 H       1  UNL1        0.0433
     54 H           3.6410   -5.7761   -5.1677 H       1  UNL1        0.0637
     55 H           2.3569   -3.7248   -4.9509 H       1  UNL1        0.0637
     56 H           3.5906   -3.3973   -0.8337 H       1  UNL1        0.0637
     57 H           4.8624   -5.4559   -1.0502 H       1  UNL1        0.0637
     58 H           0.6755   -2.5955   -4.1982 H       1  UNL1        0.0486
     59 H           1.4704   -1.0131   -4.3626 H       1  UNL1        0.0486
     60 H          -0.3894   -1.8925   -2.0643 H       1  UNL1        0.0575
     61 H          -0.8361   -0.8112   -3.3952 H       1  UNL1        0.0575
     62 H           1.1921   -1.0967   -0.4136 H       1  UNL1        0.0575
     63 H           1.9160    0.5015   -0.6510 H       1  UNL1        0.0575
     64 H           3.5246   -1.3068   -1.2689 H       1  UNL1        0.0486
     65 H           3.1419   -0.2883   -2.6545 H       1  UNL1        0.0486
@<TRIPOS>BOND
     1     1     2    1
     2     2     3    1
     3     3     4    1
     4     4     5    1
     5     5     6    1
     6     5     7   am
     7     7     8    2
     8     7     9    1
     9     9    10   ar
    10    10    11   ar
    11    11    12    1
    12     9    13   ar
    13    13    14   ar
    14    11    14   ar
    15    13    15   ar
    16    15    16   ar
    17    16    17   ar
    18    17    18   ar
    19    14    18   ar
    20    17    19    1
    21    16    20    1
    22    20    21    2
    23    20    22   am
    24    22    23    1
    25    22    24    1
    26    24    25   ar
    27    25    26   ar
    28    26    27   ar
    29    27    28   ar
    30    28    29   ar
    31    24    29   ar
    32    27    30    1
    33    30    31    1
    34    31    32    1
    35    32    33    1
    36    33    34    1
    37    34    35    1
    38    30    35    1
    39     1    36    1
    40     1    37    1
    41     1    38    1
    42     2    39    1
    43     2    40    1
    44     3    41    1
    45     3    42    1
    46     4    43    1
    47     4    44    1
    48     6    45    1
    49     6    46    1
    50     6    47    1
    51    15    48    1
    52    18    49    1
    53    19    50    1
    54    23    51    1
    55    23    52    1
    56    23    53    1
    57    25    54    1
    58    26    55    1
    59    28    56    1
    60    29    57    1
    61    31    58    1
    62    31    59    1
    63    32    60    1
    64    32    61    1
    65    34    62    1
    66    34    63    1
    67    35    64    1
    68    35    65    1
@<TRIPOS>MOLECULE
*****
 49 52 0 0 0
SMALL
GASTEIGER

@<TRIPOS>ATOM
      1 C          -0.0999    3.3944    0.2227 C.ar    1  UNL1       -0.0557
      2 C           0.7823    3.8816   -0.7442 C.ar    1  UNL1       -0.0431
      3 C           0.5522    3.6079   -2.0904 C.ar    1  UNL1        0.0410
      4 CL          1.5614    4.3220   -3.2888 Cl      1  UNL1       -0.0835
      5 C          -0.5121    2.7956   -2.4741 C.ar    1  UNL1       -0.0431
      6 C          -1.3940    2.3030   -1.5042 C.ar    1  UNL1       -0.0557
      7 C          -1.2260    2.6387   -0.1432 C.ar    1  UNL1       -0.0300
      8 C          -2.2889    2.3812    0.9273 C.3     1  UNL1        0.0397
      9 N          -3.3364    1.4256    0.5682 N.am    1  UNL1       -0.2962
     10 C          -3.0291    0.0264    0.8438 C.3     1  UNL1        0.0038
     11 C          -4.6352    1.6907    0.1003 C.2     1  UNL1        0.2502
     12 O          -5.3690    0.7475   -0.2267 O.2     1  UNL1       -0.2699
     13 C          -5.2782    3.0540    0.0433 C.ar    1  UNL1        0.0790
     14 C          -6.6862    3.0848    0.2566 C.ar    1  UNL1       -0.0351
     15 C          -4.6630    4.2613   -0.2920 C.ar    1  UNL1        0.1310
     16 O          -3.4039    4.3466   -0.8003 O.3     1  UNL1       -0.5059
     17 C          -5.3196    5.4968   -0.2348 C.ar    1  UNL1        0.0060
     18 C          -6.6898    5.4756   -0.0023 C.ar    1  UNL1        0.0695
     19 C          -7.4072    4.3023    0.1826 C.ar    1  UNL1        0.0239
     20 N          -7.6107    6.4841    0.0291 N.ar    1  UNL1       -0.2766
     21 H          -7.4376    7.4794   -0.0553 H       1  UNL1        0.1889
     22 N          -8.8794    6.0611    0.0682 N.ar    1  UNL1       -0.1774
     23 C          -8.7761    4.7216    0.1445 C.ar    1  UNL1        0.0748
     24 C          -9.9965    3.8845   -0.0510 C.3     1  UNL1        0.0171
     25 C         -10.6940    3.6976    1.2705 C.ar    1  UNL1       -0.0415
     26 C         -11.6769    4.6055    1.6976 C.ar    1  UNL1       -0.0582
     27 C         -12.4188    4.3570    2.8538 C.ar    1  UNL1       -0.0615
     28 C         -12.1789    3.2058    3.6013 C.ar    1  UNL1       -0.0617
     29 C         -11.1834    2.3141    3.2058 C.ar    1  UNL1       -0.0615
     30 C         -10.4416    2.5595    2.0493 C.ar    1  UNL1       -0.0582
     31 H           0.0694    3.6514    1.2667 H       1  UNL1        0.0621
     32 H           1.6194    4.5064   -0.4436 H       1  UNL1        0.0632
     33 H          -0.6887    2.5801   -3.5229 H       1  UNL1        0.0632
     34 H          -2.2498    1.7125   -1.8229 H       1  UNL1        0.0621
     35 H          -2.7411    3.3270    1.2283 H       1  UNL1        0.0514
     36 H          -1.7874    2.0037    1.8296 H       1  UNL1        0.0514
     37 H          -2.0378   -0.0855    1.2951 H       1  UNL1        0.0429
     38 H          -3.0743   -0.5549   -0.0801 H       1  UNL1        0.0429
     39 H          -3.7723   -0.3631    1.5495 H       1  UNL1        0.0429
     40 H          -7.2271    2.1583    0.4407 H       1  UNL1        0.0633
     41 H          -3.4908    4.2764   -1.7691 H       1  UNL1        0.2922
     42 H          -4.7899    6.4189   -0.4490 H       1  UNL1        0.0675
     43 H          -9.7411    2.9148   -0.4929 H       1  UNL1        0.0377
     44 H         -10.6774    4.3690   -0.7637 H       1  UNL1        0.0377
     45 H         -11.8834    5.5015    1.1147 H       1  UNL1        0.0620
     46 H         -13.1939    5.0539    3.1621 H       1  UNL1        0.0618
     47 H         -12.7703    3.0006    4.4892 H       1  UNL1        0.0618
     48 H         -10.9950    1.4165    3.7886 H       1  UNL1        0.0618
     49 H          -9.6864    1.8402    1.7414 H       1  UNL1        0.0620
@<TRIPOS>BOND
     1     1     2   ar
     2     2     3   ar
     3     3     4    1
     4     3     5   ar
     5     5     6   ar
     6     6     7   ar
     7     1     7   ar
     8     7     8    1
     9     8     9    1
    10     9    10    1
    11     9    11   am
    12    11    12    2
    13    11    13    1
    14    13    14   ar
    15    13    15   ar
    16    15    16    1
    17    15    17   ar
    18    17    18   ar
    19    18    19   ar
    20    14    19   ar
    21    18    20   ar
    22    20    21    1
    23    20    22   ar
    24    22    23   ar
    25    19    23   ar
    26    23    24    1
    27    24    25    1
    28    25    26   ar
    29    26    27   ar
    30    27    28   ar
    31    28    29   ar
    32    29    30   ar
    33    25    30   ar
    34     1    31    1
    35     2    32    1
    36     5    33    1
    37     6    34    1
    38     8    35    1
    39     8    36    1
    40    10    37    1
    41    10    38    1
    42    10    39    1
    43    14    40    1
    44    16    41    1
    45    17    42    1
    46    24    43    1
    47    24    44    1
    48    26    45    1
    49    27    46    1
    50    28    47    1
    51    29    48    1
    52    30    49    1
@<TRIPOS>MOLECULE
*****
 53 56 0 0 0
SMALL
GASTEIGER

@<TRIPOS>ATOM
      1 C          -4.8498   -2.9674    1.4049 C.ar    1  UNL1       -0.0571
      2 C          -4.9759   -4.3036    1.0021 C.ar    1  UNL1       -0.0615
      3 C          -4.7063   -4.6694   -0.3152 C.ar    1  UNL1       -0.0617
      4 C          -4.3548   -3.6902   -1.2411 C.ar    1  UNL1       -0.0615
      5 C          -4.2265   -2.3531   -0.8404 C.ar    1  UNL1       -0.0571
      6 C          -4.4289   -1.9780    0.4994 C.ar    1  UNL1       -0.0301
      7 C          -3.9956   -0.6098    0.9860 C.3     1  UNL1        0.0394
      8 N          -4.9627    0.4958    0.8849 N.am    1  UNL1       -0.2994
      9 C          -5.9380    0.6028    1.9646 C.3     1  UNL1        0.0035
     10 C          -4.7873    1.4655   -0.1066 C.2     1  UNL1        0.2299
     11 O          -3.8401    1.4293   -0.8958 O.2     1  UNL1       -0.2745
     12 C          -5.8418    2.6091   -0.2246 C.3     1  UNL1        0.1120
     13 C          -5.3501    3.8739    0.4872 C.2     1  UNL1       -0.0496
     14 C          -6.2055    2.8749   -1.6956 C.2     1  UNL1        0.1160
     15 O          -6.6166    1.7995   -2.4666 O.2     1  UNL1       -0.5097
     16 C          -6.2135    4.0838   -2.2793 C.2     1  UNL1        0.0508
     17 C          -5.8301    5.2275   -1.4655 C.2     1  UNL1        0.2435
     18 C          -5.3916    5.0774   -0.0941 C.2     1  UNL1        0.0729
     19 N          -5.8121    6.4720   -1.7740 N.2     1  UNL1       -0.0973
     20 H          -6.0907    6.8799   -2.6665 H       1  UNL1        0.4896
     21 N          -5.3632    7.3436   -0.6954 N.2     1  UNL1       -0.0026
     22 C          -5.1292    6.4800    0.2710 C.2     1  UNL1        0.1251
     23 C          -4.7062    6.9186    1.6564 C.3     1  UNL1        0.0213
     24 C          -5.9083    7.1381    2.5390 C.ar    1  UNL1       -0.0411
     25 C          -6.3724    6.1109    3.3695 C.ar    1  UNL1       -0.0582
     26 C          -7.5324    6.2819    4.1236 C.ar    1  UNL1       -0.0612
     27 C          -8.2426    7.4794    4.0563 C.ar    1  UNL1       -0.0588
     28 C          -7.7927    8.5235    3.2424 C.ar    1  UNL1       -0.0502
     29 C          -6.6173    8.3504    2.4963 C.ar    1  UNL1       -0.0553
     30 C          -8.5534    9.8167    3.1689 C.3     1  UNL1       -0.0397
     31 H          -5.0158   -2.7303    2.4522 H       1  UNL1        0.0621
     32 H          -5.2378   -5.0744    1.7257 H       1  UNL1        0.0618
     33 H          -4.7494   -5.7161   -0.6141 H       1  UNL1        0.0618
     34 H          -4.1337   -3.9778   -2.2670 H       1  UNL1        0.0618
     35 H          -3.8875   -1.6203   -1.5695 H       1  UNL1        0.0621
     36 H          -3.0773   -0.3459    0.4494 H       1  UNL1        0.0514
     37 H          -3.6882   -0.6882    2.0364 H       1  UNL1        0.0514
     38 H          -5.5251    0.1859    2.8880 H       1  UNL1        0.0429
     39 H          -6.8469    0.0650    1.6871 H       1  UNL1        0.0429
     40 H          -6.1793    1.6481    2.1721 H       1  UNL1        0.0429
     41 H          -6.7764    2.2940    0.2496 H       1  UNL1        0.0517
     42 H          -5.0068    3.7667    1.5123 H       1  UNL1        0.0592
     43 H          -6.2876    0.9586   -2.0941 H       1  UNL1        0.2917
     44 H          -6.5035    4.2069   -3.3178 H       1  UNL1        0.0718
     45 H          -4.1283    7.8479    1.5730 H       1  UNL1        0.0379
     46 H          -4.0333    6.1713    2.0896 H       1  UNL1        0.0379
     47 H          -5.8343    5.1703    3.4496 H       1  UNL1        0.0620
     48 H          -7.8869    5.4825    4.7702 H       1  UNL1        0.0618
     49 H          -9.1476    7.5938    4.6505 H       1  UNL1        0.0620
     50 H          -6.2595    9.1744    1.8797 H       1  UNL1        0.0623
     51 H          -9.4948    9.7608    3.7263 H       1  UNL1        0.0278
     52 H          -8.8013   10.0468    2.1275 H       1  UNL1        0.0278
     53 H          -7.9589   10.6342    3.5881 H       1  UNL1        0.0278
@<TRIPOS>BOND
     1     1     2   ar
     2     2     3   ar
     3     3     4   ar
     4     4     5   ar
     5     5     6   ar
     6     1     6   ar
     7     6     7    1
     8     7     8    1
     9     8     9    1
    10     8    10   am
    11    10    11    2
    12    10    12    1
    13    12    13    1
    14    12    14    1
    15    14    15    1
    16    14    16    2
    17    16    17    1
    18    17    18    1
    19    13    18    2
    20    17    19    2
    21    19    20    1
    22    19    21    1
    23    21    22    2
    24    18    22    1
    25    22    23    1
    26    23    24    1
    27    24    25   ar
    28    25    26   ar
    29    26    27   ar
    30    27    28   ar
    31    28    29   ar
    32    24    29   ar
    33    28    30    1
    34     1    31    1
    35     2    32    1
    36     3    33    1
    37     4    34    1
    38     5    35    1
    39     7    36    1
    40     7    37    1
    41     9    38    1
    42     9    39    1
    43     9    40    1
    44    12    41    1
    45    13    42    1
    46    15    43    1
    47    16    44    1
    48    23    45    1
    49    23    46    1
    50    25    47    1
    51    26    48    1
    52    27    49    1
    53    29    50    1
    54    30    51    1
    55    30    52    1
    56    30    53    1
@<TRIPOS>MOLECULE
*****
 52 55 0 0 0
SMALL
GASTEIGER

@<TRIPOS>ATOM
      1 C          -1.4253   -1.3507    2.1226 C.ar    1  UNL1       -0.0557
      2 C          -1.2553   -2.1276    3.2775 C.ar    1  UNL1       -0.0431
      3 C          -2.3106   -2.2710    4.1741 C.ar    1  UNL1        0.0410
      4 CL         -2.1430   -3.3155    5.5334 Cl      1  UNL1       -0.0835
      5 C          -3.5107   -1.6004    3.9551 C.ar    1  UNL1       -0.0431
      6 C          -3.6794   -0.8215    2.8042 C.ar    1  UNL1       -0.0557
      7 C          -2.6494   -0.7077    1.8586 C.ar    1  UNL1       -0.0300
      8 C          -2.9056   -0.0653    0.5016 C.3     1  UNL1        0.0397
      9 N          -3.3295    1.3428    0.5325 N.am    1  UNL1       -0.2962
     10 C          -2.2428    2.2967    0.6429 C.3     1  UNL1        0.0038
     11 C          -4.6701    1.6432    0.2161 C.2     1  UNL1        0.2502
     12 O          -5.4606    0.7128    0.0224 O.2     1  UNL1       -0.2699
     13 C          -5.2827    3.0306    0.1310 C.ar    1  UNL1        0.0790
     14 C          -6.6979    3.0789    0.3002 C.ar    1  UNL1       -0.0351
     15 C          -4.6588    4.2366   -0.2076 C.ar    1  UNL1        0.1310
     16 O          -3.3900    4.3043   -0.7071 O.3     1  UNL1       -0.5059
     17 C          -5.3221    5.4766   -0.1915 C.ar    1  UNL1        0.0060
     18 C          -6.7012    5.4636    0.0103 C.ar    1  UNL1        0.0695
     19 C          -7.4208    4.2938    0.1956 C.ar    1  UNL1        0.0239
     20 N          -7.6248    6.4719    0.0139 N.ar    1  UNL1       -0.2766
     21 H          -7.4563    7.4668   -0.0676 H       1  UNL1        0.1889
     22 N          -8.8880    6.0468    0.0343 N.ar    1  UNL1       -0.1774
     23 C          -8.7908    4.7105    0.1359 C.ar    1  UNL1        0.0748
     24 C         -10.0138    3.8663   -0.0233 C.3     1  UNL1        0.0171
     25 C         -10.6803    3.7138    1.3191 C.ar    1  UNL1       -0.0413
     26 C         -11.7111    4.5791    1.7151 C.ar    1  UNL1       -0.0582
     27 C         -12.4053    4.3575    2.9061 C.ar    1  UNL1       -0.0612
     28 C         -12.0577    3.2858    3.7283 C.ar    1  UNL1       -0.0588
     29 C         -11.0018    2.4398    3.3745 C.ar    1  UNL1       -0.0502
     30 C         -10.3265    2.6543    2.1661 C.ar    1  UNL1       -0.0553
     31 C         -10.5661    1.3221    4.2728 C.3     1  UNL1       -0.0397
     32 H          -0.6015   -1.2822    1.4173 H       1  UNL1        0.0621
     33 H          -0.3164   -2.6403    3.4444 H       1  UNL1        0.0632
     34 H          -4.3361   -1.7074    4.6562 H       1  UNL1        0.0632
     35 H          -4.6410   -0.3445    2.6196 H       1  UNL1        0.0621
     36 H          -3.6426   -0.6892   -0.0163 H       1  UNL1        0.0514
     37 H          -1.9963   -0.1184   -0.1100 H       1  UNL1        0.0514
     38 H          -1.3517    1.8261    1.0698 H       1  UNL1        0.0429
     39 H          -2.5281    3.1393    1.2742 H       1  UNL1        0.0429
     40 H          -1.9701    2.6089   -0.3688 H       1  UNL1        0.0429
     41 H          -7.2547    2.1595    0.4730 H       1  UNL1        0.0633
     42 H          -3.4845    4.5358   -1.6495 H       1  UNL1        0.2922
     43 H          -4.7940    6.4003   -0.4034 H       1  UNL1        0.0675
     44 H          -9.7644    2.8835   -0.4419 H       1  UNL1        0.0377
     45 H         -10.7084    4.3351   -0.7334 H       1  UNL1        0.0377
     46 H         -11.9897    5.4241    1.0877 H       1  UNL1        0.0620
     47 H         -13.2192    5.0191    3.1924 H       1  UNL1        0.0618
     48 H         -12.6128    3.1202    4.6486 H       1  UNL1        0.0620
     49 H          -9.5250    1.9781    1.8758 H       1  UNL1        0.0623
     50 H         -11.2078    1.2403    5.1556 H       1  UNL1        0.0278
     51 H          -9.5418    1.5039    4.6149 H       1  UNL1        0.0278
     52 H         -10.6021    0.3675    3.7382 H       1  UNL1        0.0278
@<TRIPOS>BOND
     1     1     2   ar
     2     2     3   ar
     3     3     4    1
     4     3     5   ar
     5     5     6   ar
     6     6     7   ar
     7     1     7   ar
     8     7     8    1
     9     8     9    1
    10     9    10    1
    11     9    11   am
    12    11    12    2
    13    11    13    1
    14    13    14   ar
    15    13    15   ar
    16    15    16    1
    17    15    17   ar
    18    17    18   ar
    19    18    19   ar
    20    14    19   ar
    21    18    20   ar
    22    20    21    1
    23    20    22   ar
    24    22    23   ar
    25    19    23   ar
    26    23    24    1
    27    24    25    1
    28    25    26   ar
    29    26    27   ar
    30    27    28   ar
    31    28    29   ar
    32    29    30   ar
    33    25    30   ar
    34    29    31    1
    35     1    32    1
    36     2    33    1
    37     5    34    1
    38     6    35    1
    39     8    36    1
    40     8    37    1
    41    10    38    1
    42    10    39    1
    43    10    40    1
    44    14    41    1
    45    16    42    1
    46    17    43    1
    47    24    44    1
    48    24    45    1
    49    26    46    1
    50    27    47    1
    51    28    48    1
    52    30    49    1
    53    31    50    1
    54    31    51    1
    55    31    52    1
@<TRIPOS>MOLECULE
*****
 46 50 0 0 0
SMALL
GASTEIGER

@<TRIPOS>ATOM
      1 C          -4.5621   -1.1125   -2.0327 C.ar    1  UNL1       -0.0582
      2 C          -4.6821   -2.0084   -3.0984 C.ar    1  UNL1       -0.0615
      3 C          -3.5499   -2.6399   -3.6093 C.ar    1  UNL1       -0.0617
      4 C          -2.2958   -2.3528   -3.0780 C.ar    1  UNL1       -0.0615
      5 C          -2.1736   -1.4542   -2.0150 C.ar    1  UNL1       -0.0582
      6 C          -3.3082   -0.8382   -1.4605 C.ar    1  UNL1       -0.0415
      7 C          -3.1784   -0.0607   -0.1686 C.3     1  UNL1        0.0171
      8 C          -3.5972    1.3576   -0.3685 C.ar    1  UNL1        0.0748
      9 N          -4.8909    1.7009   -0.2342 N.ar    1  UNL1       -0.1774
     10 N          -4.8876    3.0372   -0.3190 N.ar    1  UNL1       -0.2766
     11 H          -5.7684    3.5260   -0.2204 H       1  UNL1        0.1889
     12 C          -2.7624    2.5090   -0.5185 C.ar    1  UNL1        0.0238
     13 C          -3.6418    3.5840   -0.4734 C.ar    1  UNL1        0.0695
     14 C          -1.3708    2.7738   -0.6226 C.ar    1  UNL1       -0.0381
     15 C          -0.8861    4.0995   -0.7185 C.ar    1  UNL1        0.0426
     16 C          -1.8444    5.1319   -0.6532 C.ar    1  UNL1        0.1280
     17 C          -3.2255    4.9092   -0.5330 C.ar    1  UNL1        0.0059
     18 O          -1.4869    6.4567   -0.6392 O.3     1  UNL1       -0.5060
     19 C           0.5769    4.3925   -0.7276 C.ar    1  UNL1        0.0781
     20 C           1.2056    5.4717   -0.1052 C.ar    1  UNL1       -0.0158
     21 C           2.5735    5.2238   -0.1456 C.ar    1  UNL1        0.0504
     22 N           2.8446    4.0896   -0.7636 N.ar    1  UNL1       -0.1742
     23 N           1.6510    3.6591   -1.2831 N.ar    1  UNL1       -0.2320
     24 C           1.7286    2.6140   -2.2633 C.ar    1  UNL1        0.0660
     25 C           2.9810    1.9898   -2.4709 C.ar    1  UNL1       -0.0362
     26 C           3.1382    0.9673   -3.4087 C.ar    1  UNL1       -0.0598
     27 C           2.0415    0.5497   -4.1527 C.ar    1  UNL1       -0.0616
     28 C           0.8102    1.1757   -3.9838 C.ar    1  UNL1       -0.0598
     29 C           0.6549    2.2216   -3.0600 C.ar    1  UNL1       -0.0362
     30 H          -5.4611   -0.6558   -1.6219 H       1  UNL1        0.0620
     31 H          -5.6615   -2.2325   -3.5092 H       1  UNL1        0.0618
     32 H          -3.6486   -3.3664   -4.4130 H       1  UNL1        0.0618
     33 H          -1.4125   -2.8503   -3.4710 H       1  UNL1        0.0618
     34 H          -1.1871   -1.2740   -1.5935 H       1  UNL1        0.0620
     35 H          -2.1469   -0.0951    0.2017 H       1  UNL1        0.0377
     36 H          -3.7987   -0.5416    0.5968 H       1  UNL1        0.0377
     37 H          -0.6845    1.9328   -0.6043 H       1  UNL1        0.0632
     38 H          -3.9249    5.7361   -0.4603 H       1  UNL1        0.0675
     39 H          -1.3159    6.6639    0.2970 H       1  UNL1        0.2922
     40 H           0.7488    6.3088    0.3938 H       1  UNL1        0.0655
     41 H           3.3841    5.8042    0.2785 H       1  UNL1        0.0848
     42 H           3.8628    2.2965   -1.9081 H       1  UNL1        0.0639
     43 H           4.1149    0.5119   -3.5528 H       1  UNL1        0.0618
     44 H           2.1584   -0.2543   -4.8790 H       1  UNL1        0.0618
     45 H          -0.0405    0.8602   -4.5869 H       1  UNL1        0.0618
     46 H          -0.3093    2.7193   -3.0202 H       1  UNL1        0.0639
@<TRIPOS>BOND
     1     1     2   ar
     2     2     3   ar
     3     3     4   ar
     4     4     5   ar
     5     5     6   ar
     6     1     6   ar
     7     6     7    1
     8     7     8    1
     9     8     9   ar
    10     9    10   ar
    11    10    11    1
    12     8    12   ar
    13    12    13   ar
    14    10    13   ar
    15    12    14   ar
    16    14    15   ar
    17    15    16   ar
    18    16    17   ar
    19    13    17   ar
    20    16    18    1
    21    15    19    1
    22    19    20   ar
    23    20    21   ar
    24    21    22   ar
    25    22    23   ar
    26    19    23   ar
    27    23    24    1
    28    24    25   ar
    29    25    26   ar
    30    26    27   ar
    31    27    28   ar
    32    28    29   ar
    33    24    29   ar
    34     1    30    1
    35     2    31    1
    36     3    32    1
    37     4    33    1
    38     5    34    1
    39     7    35    1
    40     7    36    1
    41    14    37    1
    42    17    38    1
    43    18    39    1
    44    20    40    1
    45    21    41    1
    46    25    42    1
    47    26    43    1
    48    27    44    1
    49    28    45    1
    50    29    46    1
@<TRIPOS>MOLECULE
*****
 52 55 0 0 0
SMALL
GASTEIGER

@<TRIPOS>ATOM
      1 C          -0.4085   -0.5143   -0.8122 C.ar    1  UNL1       -0.0400
      2 C           0.9466   -0.5658   -0.4723 C.ar    1  UNL1       -0.0571
      3 C           1.4930    0.3899    0.3707 C.ar    1  UNL1       -0.0503
      4 C           2.9111    0.2639    0.8360 C.3     1  UNL1       -0.0397
      5 C           0.6807    1.4498    0.7770 C.ar    1  UNL1       -0.0571
      6 C          -0.6896    1.4844    0.4443 C.ar    1  UNL1       -0.0400
      7 C          -1.2897    0.4612   -0.3023 C.ar    1  UNL1        0.0363
      8 N          -2.7343    0.3403   -0.4987 N.am    1  UNL1       -0.2704
      9 C          -3.2160   -0.9782   -0.9172 C.3     1  UNL1        0.0086
     10 C          -3.6562    1.3762   -0.1566 C.2     1  UNL1        0.2541
     11 O          -3.3196    2.5310    0.1303 O.2     1  UNL1       -0.2695
     12 C          -5.1624    1.1754   -0.2355 C.ar    1  UNL1        0.0793
     13 C          -5.8017   -0.0671   -0.0269 C.ar    1  UNL1       -0.0351
     14 C          -5.9806    2.2797   -0.5549 C.ar    1  UNL1        0.1310
     15 O          -5.5017    3.5644   -0.6738 O.3     1  UNL1       -0.5059
     16 C          -7.3608    2.1513   -0.7700 C.ar    1  UNL1        0.0060
     17 C          -7.8971    0.8610   -0.7325 C.ar    1  UNL1        0.0695
     18 C          -7.1509   -0.2601   -0.4028 C.ar    1  UNL1        0.0239
     19 N          -9.1553    0.3898   -0.9634 N.ar    1  UNL1       -0.2766
     20 H          -9.9840    0.9368   -1.1884 H       1  UNL1        0.1889
     21 N          -9.2650   -0.9438   -0.9226 N.ar    1  UNL1       -0.1774
     22 C          -8.0298   -1.3767   -0.6056 C.ar    1  UNL1        0.0748
     23 C          -7.7830   -2.8718   -0.5305 C.3     1  UNL1        0.0171
     24 C          -6.8884   -3.3609   -1.6699 C.ar    1  UNL1       -0.0413
     25 C          -6.7486   -2.6651   -2.8789 C.ar    1  UNL1       -0.0582
     26 C          -5.8945   -3.1222   -3.8844 C.ar    1  UNL1       -0.0612
     27 C          -5.2499   -4.3472   -3.7576 C.ar    1  UNL1       -0.0588
     28 C          -5.4826   -5.1488   -2.6380 C.ar    1  UNL1       -0.0502
     29 C          -6.2602   -4.6305   -1.5794 C.ar    1  UNL1       -0.0553
     30 C          -4.9035   -6.5383   -2.6140 C.3     1  UNL1       -0.0397
     31 H          -0.7198   -1.2874   -1.5021 H       1  UNL1        0.0636
     32 H           1.5542   -1.3808   -0.8594 H       1  UNL1        0.0621
     33 H           3.3488   -0.6890    0.5151 H       1  UNL1        0.0278
     34 H           2.9469    0.2794    1.9303 H       1  UNL1        0.0278
     35 H           3.5259    1.0734    0.4351 H       1  UNL1        0.0278
     36 H           1.0945    2.2471    1.3915 H       1  UNL1        0.0621
     37 H          -1.2563    2.3198    0.8405 H       1  UNL1        0.0636
     38 H          -2.5287   -1.5765   -1.5042 H       1  UNL1        0.0433
     39 H          -4.0925   -0.8793   -1.5575 H       1  UNL1        0.0433
     40 H          -3.4303   -1.5458   -0.0054 H       1  UNL1        0.0433
     41 H          -5.2809   -0.9248    0.3705 H       1  UNL1        0.0633
     42 H          -4.5640    3.5660   -0.3738 H       1  UNL1        0.2922
     43 H          -7.9687    3.0260   -1.0020 H       1  UNL1        0.0675
     44 H          -8.7397   -3.4061   -0.6082 H       1  UNL1        0.0377
     45 H          -7.3359   -3.1191    0.4383 H       1  UNL1        0.0377
     46 H          -7.3139   -1.7559   -3.0670 H       1  UNL1        0.0620
     47 H          -5.7569   -2.5310   -4.7852 H       1  UNL1        0.0618
     48 H          -4.6045   -4.6948   -4.5615 H       1  UNL1        0.0620
     49 H          -6.4103   -5.2455   -0.6915 H       1  UNL1        0.0623
     50 H          -4.7142   -6.8922   -3.6368 H       1  UNL1        0.0278
     51 H          -5.6053   -7.2512   -2.1691 H       1  UNL1        0.0278
     52 H          -3.9561   -6.5634   -2.0690 H       1  UNL1        0.0278
@<TRIPOS>BOND
     1     1     2   ar
     2     2     3   ar
     3     3     4    1
     4     3     5   ar
     5     5     6   ar
     6     6     7   ar
     7     1     7   ar
     8     7     8    1
     9     8     9    1
    10     8    10   am
    11    10    11    2
    12    10    12    1
    13    12    13   ar
    14    12    14   ar
    15    14    15    1
    16    14    16   ar
    17    16    17   ar
    18    17    18   ar
    19    13    18   ar
    20    17    19   ar
    21    19    20    1
    22    19    21   ar
    23    21    22   ar
    24    18    22   ar
    25    22    23    1
    26    23    24    1
    27    24    25   ar
    28    25    26   ar
    29    26    27   ar
    30    27    28   ar
    31    28    29   ar
    32    24    29   ar
    33    28    30    1
    34     1    31    1
    35     2    32    1
    36     4    33    1
    37     4    34    1
    38     4    35    1
    39     5    36    1
    40     6    37    1
    41     9    38    1
    42     9    39    1
    43     9    40    1
    44    13    41    1
    45    15    42    1
    46    16    43    1
    47    23    44    1
    48    23    45    1
    49    25    46    1
    50    26    47    1
    51    27    48    1
    52    29    49    1
    53    30    50    1
    54    30    51    1
    55    30    52    1
@<TRIPOS>MOLECULE
*****
 62 66 0 0 0
SMALL
GASTEIGER

@<TRIPOS>ATOM
      1 C           0.9179    0.4277   -1.0112 C.3     1  UNL1        0.0357
      2 C          -0.5734    0.0658   -0.8614 C.3     1  UNL1        0.0634
      3 O          -0.9043   -1.1684   -1.5246 O.3     1  UNL1       -0.3767
      4 C          -0.0959   -2.2474   -1.0184 C.3     1  UNL1        0.0634
      5 C           1.3963   -1.9597   -1.2271 C.3     1  UNL1        0.0357
      6 N           1.7249   -0.7060   -0.5292 N.pl3   1  UNL1       -0.3255
      7 C           2.8126   -0.5916    0.3064 C.ar    1  UNL1        0.0299
      8 C           3.4823    0.6097    0.5030 C.ar    1  UNL1       -0.0389
      9 C           4.6313    0.6978    1.3100 C.ar    1  UNL1       -0.0385
     10 C           3.3050   -1.6744    1.0489 C.ar    1  UNL1       -0.0389
     11 C           4.4740   -1.5978    1.8399 C.ar    1  UNL1       -0.0385
     12 C           5.2153   -0.4251    1.9331 C.ar    1  UNL1        0.0364
     13 N           6.5259   -0.3236    2.5702 N.am    1  UNL1       -0.2704
     14 C           7.2613    0.9218    2.2916 C.3     1  UNL1        0.0086
     15 C           7.1311   -1.3921    3.2973 C.2     1  UNL1        0.2541
     16 O           6.6268   -2.4948    3.4731 O.2     1  UNL1       -0.2695
     17 C           8.5346   -1.2644    3.8747 C.ar    1  UNL1        0.0793
     18 C           9.0796   -0.0413    4.3216 C.ar    1  UNL1       -0.0351
     19 C           9.3520   -2.4104    3.9420 C.ar    1  UNL1        0.1310
     20 O           8.9094   -3.6721    3.6231 O.3     1  UNL1       -0.5059
     21 C          10.6935   -2.3521    4.3459 C.ar    1  UNL1        0.0060
     22 C          11.2220   -1.0832    4.6001 C.ar    1  UNL1        0.0695
     23 C          10.4638    0.0844    4.5572 C.ar    1  UNL1        0.0239
     24 N          12.4809   -0.6746    4.9394 N.ar    1  UNL1       -0.2766
     25 H          13.2893   -1.2577    5.1227 H       1  UNL1        0.1889
     26 N          12.6319    0.6584    4.9905 N.ar    1  UNL1       -0.1774
     27 C          11.4049    1.1488    4.7319 C.ar    1  UNL1        0.0748
     28 C          11.2197    2.6456    4.6592 C.3     1  UNL1        0.0171
     29 C          10.9676    3.1269    3.2302 C.ar    1  UNL1       -0.0413
     30 C          11.3840    2.4127    2.0973 C.ar    1  UNL1       -0.0582
     31 C          11.1382    2.8905    0.8069 C.ar    1  UNL1       -0.0612
     32 C          10.5503    4.1381    0.6173 C.ar    1  UNL1       -0.0588
     33 C          10.2354    4.9391    1.7165 C.ar    1  UNL1       -0.0502
     34 C          10.4099    4.4124    3.0142 C.ar    1  UNL1       -0.0553
     35 C           9.7278    6.3336    1.4754 C.3     1  UNL1       -0.0397
     36 H           1.0988    1.3563   -0.4622 H       1  UNL1        0.0486
     37 H           1.1506    0.6061   -2.0686 H       1  UNL1        0.0486
     38 H          -1.1939    0.8532   -1.3005 H       1  UNL1        0.0575
     39 H          -0.8423   -0.0209    0.1983 H       1  UNL1        0.0575
     40 H          -0.3809   -3.1569   -1.5548 H       1  UNL1        0.0575
     41 H          -0.3202   -2.3948    0.0452 H       1  UNL1        0.0575
     42 H           1.5935   -1.8187   -2.2982 H       1  UNL1        0.0486
     43 H           1.9944   -2.8174   -0.9089 H       1  UNL1        0.0486
     44 H           3.1652    1.5167   -0.0013 H       1  UNL1        0.0637
     45 H           5.0458    1.6949    1.4067 H       1  UNL1        0.0637
     46 H           2.7778   -2.6252    1.0430 H       1  UNL1        0.0637
     47 H           4.7705   -2.5148    2.3379 H       1  UNL1        0.0637
     48 H           6.9872    1.3916    1.3467 H       1  UNL1        0.0433
     49 H           8.3272    0.7294    2.1737 H       1  UNL1        0.0433
     50 H           7.0612    1.6177    3.1128 H       1  UNL1        0.0433
     51 H           8.4732    0.8476    4.4261 H       1  UNL1        0.0633
     52 H           7.9340   -3.6263    3.4995 H       1  UNL1        0.2922
     53 H          11.3018   -3.2495    4.4007 H       1  UNL1        0.0675
     54 H          12.1254    3.1497    5.0241 H       1  UNL1        0.0377
     55 H          10.3858    2.9385    5.3103 H       1  UNL1        0.0377
     56 H          11.9239    1.4739    2.1960 H       1  UNL1        0.0620
     57 H          11.4352    2.2995   -0.0542 H       1  UNL1        0.0618
     58 H          10.3831    4.4989   -0.3954 H       1  UNL1        0.0620
     59 H          10.1422    5.0342    3.8698 H       1  UNL1        0.0623
     60 H          10.0776    6.7083    0.5028 H       1  UNL1        0.0278
     61 H          10.1100    7.0313    2.2288 H       1  UNL1        0.0278
     62 H           8.6347    6.3596    1.4744 H       1  UNL1        0.0278
@<TRIPOS>BOND
     1     1     2    1
     2     2     3    1
     3     3     4    1
     4     4     5    1
     5     5     6    1
     6     1     6    1
     7     6     7    1
     8     7     8   ar
     9     8     9   ar
    10     7    10   ar
    11    10    11   ar
    12    11    12   ar
    13     9    12   ar
    14    12    13    1
    15    13    14    1
    16    13    15   am
    17    15    16    2
    18    15    17    1
    19    17    18   ar
    20    17    19   ar
    21    19    20    1
    22    19    21   ar
    23    21    22   ar
    24    22    23   ar
    25    18    23   ar
    26    22    24   ar
    27    24    25    1
    28    24    26   ar
    29    26    27   ar
    30    23    27   ar
    31    27    28    1
    32    28    29    1
    33    29    30   ar
    34    30    31   ar
    35    31    32   ar
    36    32    33   ar
    37    33    34   ar
    38    29    34   ar
    39    33    35    1
    40     1    36    1
    41     1    37    1
    42     2    38    1
    43     2    39    1
    44     4    40    1
    45     4    41    1
    46     5    42    1
    47     5    43    1
    48     8    44    1
    49     9    45    1
    50    10    46    1
    51    11    47    1
    52    14    48    1
    53    14    49    1
    54    14    50    1
    55    18    51    1
    56    20    52    1
    57    21    53    1
    58    28    54    1
    59    28    55    1
    60    30    56    1
    61    31    57    1
    62    32    58    1
    63    34    59    1
    64    35    60    1
    65    35    61    1
    66    35    62    1
@<TRIPOS>MOLECULE
*****
 49 52 0 0 0
SMALL
GASTEIGER

@<TRIPOS>ATOM
      1 C          -0.4693   -0.7047   -0.3275 C.ar    1  UNL1       -0.0403
      2 C           0.9149   -0.6532   -0.1188 C.ar    1  UNL1       -0.0600
      3 C           1.5185    0.5442    0.2278 C.ar    1  UNL1       -0.0616
      4 C           0.7360    1.6864    0.3432 C.ar    1  UNL1       -0.0600
      5 C          -0.6513    1.6316    0.1209 C.ar    1  UNL1       -0.0403
      6 C          -1.2987    0.4328   -0.2120 C.ar    1  UNL1        0.0363
      7 N          -2.7380    0.3238   -0.4320 N.am    1  UNL1       -0.2704
      8 C          -3.1937   -0.9265   -1.0524 C.3     1  UNL1        0.0086
      9 C          -3.6558    1.3570   -0.0769 C.2     1  UNL1        0.2541
     10 O          -3.3385    2.4838    0.3193 O.2     1  UNL1       -0.2695
     11 C          -5.1502    1.1566   -0.2148 C.ar    1  UNL1        0.0793
     12 C          -5.7818   -0.0885   -0.0067 C.ar    1  UNL1       -0.0351
     13 C          -5.9546    2.2626   -0.5527 C.ar    1  UNL1        0.1310
     14 O          -5.4612    3.5390   -0.6841 O.3     1  UNL1       -0.5059
     15 C          -7.3308    2.1424   -0.7813 C.ar    1  UNL1        0.0060
     16 C          -7.8705    0.8561   -0.7301 C.ar    1  UNL1        0.0695
     17 C          -7.1294   -0.2695   -0.3845 C.ar    1  UNL1        0.0239
     18 N          -9.1342    0.3931   -0.9627 N.ar    1  UNL1       -0.2766
     19 H          -9.9572    0.9383   -1.1922 H       1  UNL1        0.1889
     20 N          -9.2504   -0.9433   -0.9112 N.ar    1  UNL1       -0.1774
     21 C          -8.0203   -1.3759   -0.5848 C.ar    1  UNL1        0.0748
     22 C          -7.7722   -2.8624   -0.5077 C.3     1  UNL1        0.0171
     23 C          -6.8696   -3.3432   -1.6415 C.ar    1  UNL1       -0.0413
     24 C          -6.6967   -2.6428   -2.8445 C.ar    1  UNL1       -0.0582
     25 C          -5.8480   -3.1216   -3.8452 C.ar    1  UNL1       -0.0612
     26 C          -5.2198   -4.3548   -3.7058 C.ar    1  UNL1       -0.0588
     27 C          -5.4698   -5.1448   -2.5820 C.ar    1  UNL1       -0.0502
     28 C          -6.2606   -4.6185   -1.5396 C.ar    1  UNL1       -0.0553
     29 C          -4.8948   -6.5332   -2.5260 C.3     1  UNL1       -0.0397
     30 H          -0.8684   -1.6864   -0.5616 H       1  UNL1        0.0636
     31 H           1.5104   -1.5568   -0.2197 H       1  UNL1        0.0618
     32 H           2.5892    0.5870    0.4079 H       1  UNL1        0.0618
     33 H           1.2015    2.6335    0.6068 H       1  UNL1        0.0618
     34 H          -1.1816    2.5731    0.2021 H       1  UNL1        0.0636
     35 H          -2.4736   -1.3210   -1.7715 H       1  UNL1        0.0433
     36 H          -4.1018   -0.7752   -1.6364 H       1  UNL1        0.0433
     37 H          -3.3591   -1.6597   -0.2554 H       1  UNL1        0.0433
     38 H          -5.2410   -0.9396    0.3832 H       1  UNL1        0.0633
     39 H          -4.5447    3.5447   -0.3245 H       1  UNL1        0.2922
     40 H          -7.9317    3.0114   -1.0320 H       1  UNL1        0.0675
     41 H          -8.7250   -3.4022   -0.5863 H       1  UNL1        0.0377
     42 H          -7.3242   -3.1038    0.4625 H       1  UNL1        0.0377
     43 H          -7.2302   -1.7144   -3.0341 H       1  UNL1        0.0620
     44 H          -5.7025   -2.5414   -4.7527 H       1  UNL1        0.0618
     45 H          -4.5710   -4.7150   -4.5010 H       1  UNL1        0.0620
     46 H          -6.4358   -5.2293   -0.6546 H       1  UNL1        0.0623
     47 H          -4.7163   -6.9144   -3.5400 H       1  UNL1        0.0278
     48 H          -5.5943   -7.2300   -2.0521 H       1  UNL1        0.0278
     49 H          -3.9442   -6.5435   -1.9852 H       1  UNL1        0.0278
@<TRIPOS>BOND
     1     1     2   ar
     2     2     3   ar
     3     3     4   ar
     4     4     5   ar
     5     5     6   ar
     6     1     6   ar
     7     6     7    1
     8     7     8    1
     9     7     9   am
    10     9    10    2
    11     9    11    1
    12    11    12   ar
    13    11    13   ar
    14    13    14    1
    15    13    15   ar
    16    15    16   ar
    17    16    17   ar
    18    12    17   ar
    19    16    18   ar
    20    18    19    1
    21    18    20   ar
    22    20    21   ar
    23    17    21   ar
    24    21    22    1
    25    22    23    1
    26    23    24   ar
    27    24    25   ar
    28    25    26   ar
    29    26    27   ar
    30    27    28   ar
    31    23    28   ar
    32    27    29    1
    33     1    30    1
    34     2    31    1
    35     3    32    1
    36     4    33    1
    37     5    34    1
    38     8    35    1
    39     8    36    1
    40     8    37    1
    41    12    38    1
    42    14    39    1
    43    15    40    1
    44    22    41    1
    45    22    42    1
    46    24    43    1
    47    25    44    1
    48    26    45    1
    49    28    46    1
    50    29    47    1
    51    29    48    1
    52    29    49    1
@<TRIPOS>MOLECULE
*****
 64 68 0 0 0
SMALL
GASTEIGER

@<TRIPOS>ATOM
      1 C           1.0907    0.0136   -1.2891 C.3     1  UNL1        0.0122
      2 C          -0.4314    0.0694   -1.1317 C.3     1  UNL1       -0.0372
      3 C          -1.0718   -1.3143   -1.2466 C.3     1  UNL1       -0.0502
      4 C          -0.3838   -2.3267   -0.3304 C.3     1  UNL1       -0.0372
      5 C           1.1231   -2.3318   -0.5689 C.3     1  UNL1        0.0122
      6 N           1.6202   -0.9702   -0.3368 N.pl3   1  UNL1       -0.3299
      7 C           2.7892   -0.7783    0.3778 C.ar    1  UNL1        0.0298
      8 C           3.6790    0.2533    0.1019 C.ar    1  UNL1       -0.0389
      9 C           4.8832    0.4088    0.8085 C.ar    1  UNL1       -0.0385
     10 C           3.1398   -1.5903    1.4651 C.ar    1  UNL1       -0.0389
     11 C           4.3523   -1.4440    2.1737 C.ar    1  UNL1       -0.0385
     12 C           5.2798   -0.4572    1.8393 C.ar    1  UNL1        0.0364
     13 N           6.5736   -0.3216    2.4943 N.am    1  UNL1       -0.2704
     14 C           7.2806    0.9476    2.3056 C.3     1  UNL1        0.0086
     15 C           7.1549   -1.3890    3.2549 C.2     1  UNL1        0.2541
     16 O           6.6525   -2.5081    3.3865 O.2     1  UNL1       -0.2695
     17 C           8.5408   -1.2650    3.8593 C.ar    1  UNL1        0.0793
     18 C           9.0755   -0.0438    4.3238 C.ar    1  UNL1       -0.0351
     19 C           9.3571   -2.4121    3.9303 C.ar    1  UNL1        0.1310
     20 O           8.9226   -3.6731    3.5988 O.3     1  UNL1       -0.5059
     21 C          10.6945   -2.3507    4.3467 C.ar    1  UNL1        0.0060
     22 C          11.2194   -1.0825    4.6076 C.ar    1  UNL1        0.0695
     23 C          10.4575    0.0805    4.5687 C.ar    1  UNL1        0.0239
     24 N          12.4741   -0.6705    4.9528 N.ar    1  UNL1       -0.2766
     25 H          13.2849   -1.2520    5.1297 H       1  UNL1        0.1889
     26 N          12.6197    0.6638    5.0197 N.ar    1  UNL1       -0.1774
     27 C          11.3951    1.1515    4.7563 C.ar    1  UNL1        0.0748
     28 C          11.2080    2.6517    4.6878 C.3     1  UNL1        0.0171
     29 C          10.9746    3.1348    3.2554 C.ar    1  UNL1       -0.0413
     30 C          11.3981    2.4203    2.1262 C.ar    1  UNL1       -0.0582
     31 C          11.1681    2.8998    0.8352 C.ar    1  UNL1       -0.0612
     32 C          10.5884    4.1515    0.6400 C.ar    1  UNL1       -0.0588
     33 C          10.2677    4.9516    1.7450 C.ar    1  UNL1       -0.0502
     34 C          10.4265    4.4237    3.0406 C.ar    1  UNL1       -0.0553
     35 C           9.7701    6.3523    1.4919 C.3     1  UNL1       -0.0397
     36 H           1.4686    1.0268   -1.1224 H       1  UNL1        0.0464
     37 H           1.3595   -0.2741   -2.3142 H       1  UNL1        0.0464
     38 H          -0.8604    0.7426   -1.8822 H       1  UNL1        0.0280
     39 H          -0.6692    0.4917   -0.1469 H       1  UNL1        0.0280
     40 H          -1.0033   -1.6601   -2.2849 H       1  UNL1        0.0266
     41 H          -2.1360   -1.2512   -0.9955 H       1  UNL1        0.0266
     42 H          -0.7944   -3.3270   -0.5021 H       1  UNL1        0.0280
     43 H          -0.5842   -2.0647    0.7164 H       1  UNL1        0.0280
     44 H           1.3424   -2.6286   -1.6035 H       1  UNL1        0.0464
     45 H           1.5860   -3.0932    0.0646 H       1  UNL1        0.0464
     46 H           3.4949    0.9581   -0.7023 H       1  UNL1        0.0637
     47 H           5.4934    1.2245    0.4459 H       1  UNL1        0.0637
     48 H           2.4561   -2.3594    1.8158 H       1  UNL1        0.0637
     49 H           4.5091   -2.1234    3.0052 H       1  UNL1        0.0637
     50 H           6.9794    1.5445    1.4532 H       1  UNL1        0.0433
     51 H           8.3451    0.7701    2.1456 H       1  UNL1        0.0433
     52 H           7.0916    1.5611    3.1906 H       1  UNL1        0.0433
     53 H           8.4689    0.8387    4.4409 H       1  UNL1        0.0633
     54 H           7.9511   -3.6287    3.4477 H       1  UNL1        0.2922
     55 H          11.3015   -3.2479    4.4043 H       1  UNL1        0.0675
     56 H          12.1107    3.1518    5.0633 H       1  UNL1        0.0377
     57 H          10.3688    2.9423    5.3287 H       1  UNL1        0.0377
     58 H          11.9347    1.4802    2.2295 H       1  UNL1        0.0620
     59 H          11.4747    2.3086   -0.0235 H       1  UNL1        0.0618
     60 H          10.4327    4.5127   -0.3708 H       1  UNL1        0.0620
     61 H          10.1554    5.0464    3.8917 H       1  UNL1        0.0623
     62 H          10.1472    6.7282    0.5312 H       1  UNL1        0.0278
     63 H          10.1359    7.0422    2.2577 H       1  UNL1        0.0278
     64 H           8.6785    6.3792    1.4617 H       1  UNL1        0.0278
@<TRIPOS>BOND
     1     1     2    1
     2     2     3    1
     3     3     4    1
     4     4     5    1
     5     5     6    1
     6     1     6    1
     7     6     7    1
     8     7     8   ar
     9     8     9   ar
    10     7    10   ar
    11    10    11   ar
    12    11    12   ar
    13     9    12   ar
    14    12    13    1
    15    13    14    1
    16    13    15   am
    17    15    16    2
    18    15    17    1
    19    17    18   ar
    20    17    19   ar
    21    19    20    1
    22    19    21   ar
    23    21    22   ar
    24    22    23   ar
    25    18    23   ar
    26    22    24   ar
    27    24    25    1
    28    24    26   ar
    29    26    27   ar
    30    23    27   ar
    31    27    28    1
    32    28    29    1
    33    29    30   ar
    34    30    31   ar
    35    31    32   ar
    36    32    33   ar
    37    33    34   ar
    38    29    34   ar
    39    33    35    1
    40     1    36    1
    41     1    37    1
    42     2    38    1
    43     2    39    1
    44     3    40    1
    45     3    41    1
    46     4    42    1
    47     4    43    1
    48     5    44    1
    49     5    45    1
    50     8    46    1
    51     9    47    1
    52    10    48    1
    53    11    49    1
    54    14    50    1
    55    14    51    1
    56    14    52    1
    57    18    53    1
    58    20    54    1
    59    21    55    1
    60    28    56    1
    61    28    57    1
    62    30    58    1
    63    31    59    1
    64    32    60    1
    65    34    61    1
    66    35    62    1
    67    35    63    1
    68    35    64    1
@<TRIPOS>MOLECULE
*****
 57 60 0 0 0
SMALL
GASTEIGER

@<TRIPOS>ATOM
      1 C          -0.4427   -0.5003   -0.8246 C.ar    1  UNL1       -0.0385
      2 C           0.9282   -0.5334   -0.5266 C.ar    1  UNL1       -0.0389
      3 C           1.5273    0.3947    0.3217 C.ar    1  UNL1        0.0293
      4 N           2.8566    0.2743    0.6924 N.pl3   1  UNL1       -0.3360
      5 C           3.6600    1.4141    1.1129 C.3     1  UNL1        0.0004
      6 C           3.5696   -0.9996    0.6283 C.3     1  UNL1        0.0004
      7 C           0.6852    1.4170    0.7628 C.ar    1  UNL1       -0.0389
      8 C          -0.7043    1.4533    0.4682 C.ar    1  UNL1       -0.0385
      9 C          -1.3194    0.4513   -0.2848 C.ar    1  UNL1        0.0364
     10 N          -2.7628    0.3355   -0.4726 N.am    1  UNL1       -0.2704
     11 C          -3.2498   -0.9674   -0.9400 C.3     1  UNL1        0.0086
     12 C          -3.6815    1.3645   -0.1087 C.2     1  UNL1        0.2541
     13 O          -3.3470    2.5140    0.2072 O.2     1  UNL1       -0.2695
     14 C          -5.1831    1.1651   -0.2001 C.ar    1  UNL1        0.0793
     15 C          -5.8256   -0.0774    0.0170 C.ar    1  UNL1       -0.0351
     16 C          -5.9992    2.2649   -0.5386 C.ar    1  UNL1        0.1310
     17 O          -5.5186    3.5456   -0.6782 O.3     1  UNL1       -0.5059
     18 C          -7.3801    2.1340   -0.7608 C.ar    1  UNL1        0.0060
     19 C          -7.9157    0.8458   -0.7094 C.ar    1  UNL1        0.0695
     20 C          -7.1656   -0.2720   -0.3668 C.ar    1  UNL1        0.0239
     21 N          -9.1761    0.3722   -0.9437 N.ar    1  UNL1       -0.2766
     22 H         -10.0029    0.9127   -1.1620 H       1  UNL1        0.1889
     23 N          -9.2802   -0.9658   -0.8997 N.ar    1  UNL1       -0.1774
     24 C          -8.0457   -1.3925   -0.5756 C.ar    1  UNL1        0.0748
     25 C          -7.7904   -2.8841   -0.5119 C.3     1  UNL1        0.0171
     26 C          -6.8890   -3.3636   -1.6509 C.ar    1  UNL1       -0.0413
     27 C          -6.7237   -2.6563   -2.8486 C.ar    1  UNL1       -0.0582
     28 C          -5.8688   -3.1186   -3.8515 C.ar    1  UNL1       -0.0612
     29 C          -5.2363   -4.3494   -3.7280 C.ar    1  UNL1       -0.0588
     30 C          -5.4867   -5.1568   -2.6147 C.ar    1  UNL1       -0.0502
     31 C          -6.2753   -4.6413   -1.5651 C.ar    1  UNL1       -0.0553
     32 C          -4.9148   -6.5483   -2.5855 C.3     1  UNL1       -0.0397
     33 H          -0.7551   -1.2692   -1.5184 H       1  UNL1        0.0637
     34 H           1.5111   -1.3189   -0.9990 H       1  UNL1        0.0637
     35 H           3.1432    2.3749    1.0627 H       1  UNL1        0.0428
     36 H           4.5377    1.4970    0.4620 H       1  UNL1        0.0428
     37 H           4.0137    1.2657    2.1385 H       1  UNL1        0.0428
     38 H           2.9305   -1.8675    0.4389 H       1  UNL1        0.0428
     39 H           4.0631   -1.1970    1.5866 H       1  UNL1        0.0428
     40 H           4.3379   -0.9615   -0.1507 H       1  UNL1        0.0428
     41 H           1.0631    2.2043    1.4101 H       1  UNL1        0.0637
     42 H          -1.2650    2.2750    0.9030 H       1  UNL1        0.0637
     43 H          -2.5672   -1.5331   -1.5641 H       1  UNL1        0.0433
     44 H          -4.1343   -0.8465   -1.5652 H       1  UNL1        0.0433
     45 H          -3.4523   -1.5753   -0.0523 H       1  UNL1        0.0433
     46 H          -5.2920   -0.9295    0.4155 H       1  UNL1        0.0633
     47 H          -4.5854    3.5519   -0.3637 H       1  UNL1        0.2922
     48 H          -7.9844    3.0005   -1.0069 H       1  UNL1        0.0675
     49 H          -8.7429   -3.4248   -0.5940 H       1  UNL1        0.0377
     50 H          -7.3429   -3.1340    0.4563 H       1  UNL1        0.0377
     51 H          -7.2670   -1.7322   -3.0308 H       1  UNL1        0.0620
     52 H          -5.7203   -2.5247   -4.7497 H       1  UNL1        0.0618
     53 H          -4.5844   -4.6965   -4.5252 H       1  UNL1        0.0620
     54 H          -6.4446   -5.2623   -0.6855 H       1  UNL1        0.0623
     55 H          -4.7102   -6.9009   -3.6054 H       1  UNL1        0.0278
     56 H          -5.6277   -7.2566   -2.1527 H       1  UNL1        0.0278
     57 H          -3.9778   -6.5787   -2.0227 H       1  UNL1        0.0278
@<TRIPOS>BOND
     1     1     2   ar
     2     2     3   ar
     3     3     4    1
     4     4     5    1
     5     4     6    1
     6     3     7   ar
     7     7     8   ar
     8     8     9   ar
     9     1     9   ar
    10     9    10    1
    11    10    11    1
    12    10    12   am
    13    12    13    2
    14    12    14    1
    15    14    15   ar
    16    14    16   ar
    17    16    17    1
    18    16    18   ar
    19    18    19   ar
    20    19    20   ar
    21    15    20   ar
    22    19    21   ar
    23    21    22    1
    24    21    23   ar
    25    23    24   ar
    26    20    24   ar
    27    24    25    1
    28    25    26    1
    29    26    27   ar
    30    27    28   ar
    31    28    29   ar
    32    29    30   ar
    33    30    31   ar
    34    26    31   ar
    35    30    32    1
    36     1    33    1
    37     2    34    1
    38     5    35    1
    39     5    36    1
    40     5    37    1
    41     6    38    1
    42     6    39    1
    43     6    40    1
    44     7    41    1
    45     8    42    1
    46    11    43    1
    47    11    44    1
    48    11    45    1
    49    15    46    1
    50    17    47    1
    51    18    48    1
    52    25    49    1
    53    25    50    1
    54    27    51    1
    55    28    52    1
    56    29    53    1
    57    31    54    1
    58    32    55    1
    59    32    56    1
    60    32    57    1
@<TRIPOS>MOLECULE
*****
 64 68 0 0 0
SMALL
GASTEIGER

@<TRIPOS>ATOM
      1 C           0.9708    0.4669   -1.0634 C.3     1  UNL1        0.0524
      2 C          -0.5433    0.1886   -0.9336 C.3     1  UNL1       -0.0175
      3 N          -0.9106   -1.1372   -1.5649 N.4     1  UNL1        0.2292
      4 H          -0.8016   -1.0693   -2.5846 H       1  UNL1        0.2015
      5 H          -1.9014   -1.3376   -1.3819 H       1  UNL1        0.2015
      6 C          -0.0671   -2.2861   -1.0511 C.3     1  UNL1       -0.0175
      7 C           1.4255   -1.9619   -1.2322 C.3     1  UNL1        0.0524
      8 N           1.7158   -0.6923   -0.5422 N.pl3   1  UNL1       -0.3198
      9 C           2.8275   -0.5749    0.2738 C.ar    1  UNL1        0.0301
     10 C           3.5175    0.6188    0.4444 C.ar    1  UNL1       -0.0389
     11 C           4.6770    0.7003    1.2431 C.ar    1  UNL1       -0.0385
     12 C           3.3127   -1.6535    1.0255 C.ar    1  UNL1       -0.0389
     13 C           4.4966   -1.5868    1.8006 C.ar    1  UNL1       -0.0385
     14 C           5.2474   -0.4155    1.8749 C.ar    1  UNL1        0.0364
     15 N           6.5659   -0.3304    2.4970 N.am    1  UNL1       -0.2704
     16 C           7.3058    0.9076    2.2221 C.3     1  UNL1        0.0086
     17 C           7.1746   -1.4045    3.2178 C.2     1  UNL1        0.2541
     18 O           6.6635   -2.5203    3.3632 O.2     1  UNL1       -0.2695
     19 C           8.5613   -1.2781    3.8080 C.ar    1  UNL1        0.0793
     20 C           9.0909   -0.0558    4.2827 C.ar    1  UNL1       -0.0351
     21 C           9.3890   -2.4214    3.8703 C.ar    1  UNL1        0.1310
     22 O           8.9551   -3.6811    3.5241 O.3     1  UNL1       -0.5059
     23 C          10.7221   -2.3562    4.2877 C.ar    1  UNL1        0.0060
     24 C          11.2344   -1.0872    4.5642 C.ar    1  UNL1        0.0695
     25 C          10.4702    0.0726    4.5344 C.ar    1  UNL1        0.0239
     26 N          12.4888   -0.6738    4.9257 N.ar    1  UNL1       -0.2766
     27 H          13.3000   -1.2540    5.1107 H       1  UNL1        0.1889
     28 N          12.6270    0.6597    5.0051 N.ar    1  UNL1       -0.1774
     29 C          11.3991    1.1439    4.7456 C.ar    1  UNL1        0.0748
     30 C          11.2014    2.6425    4.7200 C.3     1  UNL1        0.0171
     31 C          10.9739    3.1696    3.3036 C.ar    1  UNL1       -0.0413
     32 C          11.4130    2.4995    2.1530 C.ar    1  UNL1       -0.0582
     33 C          11.1853    3.0248    0.8784 C.ar    1  UNL1       -0.0612
     34 C          10.5974    4.2755    0.7234 C.ar    1  UNL1       -0.0588
     35 C          10.2669    5.0367    1.8461 C.ar    1  UNL1       -0.0502
     36 C          10.4174    4.4618    3.1263 C.ar    1  UNL1       -0.0553
     37 C           9.7791    6.4463    1.6494 C.3     1  UNL1       -0.0397
     38 H           1.1772    1.3958   -0.5244 H       1  UNL1        0.0516
     39 H           1.2335    0.6275   -2.1181 H       1  UNL1        0.0516
     40 H          -1.1397    0.9554   -1.4364 H       1  UNL1        0.0829
     41 H          -0.8408    0.1232    0.1187 H       1  UNL1        0.0829
     42 H          -0.3615   -3.1740   -1.6160 H       1  UNL1        0.0829
     43 H          -0.3232   -2.4145    0.0060 H       1  UNL1        0.0829
     44 H           1.6512   -1.8446   -2.3010 H       1  UNL1        0.0516
     45 H           2.0242   -2.8086   -0.8877 H       1  UNL1        0.0516
     46 H           3.2167    1.5335   -0.0620 H       1  UNL1        0.0637
     47 H           5.1124    1.6914    1.3182 H       1  UNL1        0.0637
     48 H           2.7831   -2.6021    1.0509 H       1  UNL1        0.0637
     49 H           4.7843   -2.4984    2.3069 H       1  UNL1        0.0637
     50 H           7.0524    1.3651    1.2640 H       1  UNL1        0.0433
     51 H           8.3773    0.7225    2.1299 H       1  UNL1        0.0433
     52 H           7.0896    1.6180    3.0298 H       1  UNL1        0.0433
     53 H           8.4715    0.8234    4.3913 H       1  UNL1        0.0633
     54 H           7.9805   -3.6450    3.4074 H       1  UNL1        0.2922
     55 H          11.3340   -3.2508    4.3407 H       1  UNL1        0.0675
     56 H          12.0949    3.1394    5.1205 H       1  UNL1        0.0377
     57 H          10.3528    2.9037    5.3616 H       1  UNL1        0.0377
     58 H          11.9616    1.5635    2.2277 H       1  UNL1        0.0620
     59 H          11.5052    2.4690    0.0002 H       1  UNL1        0.0618
     60 H          10.4493    4.6758   -0.2775 H       1  UNL1        0.0620
     61 H          10.1404    5.0529    3.9998 H       1  UNL1        0.0623
     62 H          10.1727    6.8596    0.7110 H       1  UNL1        0.0278
     63 H          10.1352    7.1041    2.4488 H       1  UNL1        0.0278
     64 H           8.6871    6.4825    1.6050 H       1  UNL1        0.0278
@<TRIPOS>BOND
     1     1     2    1
     2     2     3    1
     3     3     4    1
     4     3     5    1
     5     3     6    1
     6     6     7    1
     7     7     8    1
     8     1     8    1
     9     8     9    1
    10     9    10   ar
    11    10    11   ar
    12     9    12   ar
    13    12    13   ar
    14    13    14   ar
    15    11    14   ar
    16    14    15    1
    17    15    16    1
    18    15    17   am
    19    17    18    2
    20    17    19    1
    21    19    20   ar
    22    19    21   ar
    23    21    22    1
    24    21    23   ar
    25    23    24   ar
    26    24    25   ar
    27    20    25   ar
    28    24    26   ar
    29    26    27    1
    30    26    28   ar
    31    28    29   ar
    32    25    29   ar
    33    29    30    1
    34    30    31    1
    35    31    32   ar
    36    32    33   ar
    37    33    34   ar
    38    34    35   ar
    39    35    36   ar
    40    31    36   ar
    41    35    37    1
    42     1    38    1
    43     1    39    1
    44     2    40    1
    45     2    41    1
    46     6    42    1
    47     6    43    1
    48     7    44    1
    49     7    45    1
    50    10    46    1
    51    11    47    1
    52    12    48    1
    53    13    49    1
    54    16    50    1
    55    16    51    1
    56    16    52    1
    57    20    53    1
    58    22    54    1
    59    23    55    1
    60    30    56    1
    61    30    57    1
    62    32    58    1
    63    33    59    1
    64    34    60    1
    65    36    61    1
    66    37    62    1
    67    37    63    1
    68    37    64    1
@<TRIPOS>MOLECULE
*****
 67 71 0 0 0
SMALL
GASTEIGER

@<TRIPOS>ATOM
      1 C          -0.1796    1.4474    0.3750 C.3     1  UNL1        0.0525
      2 C          -0.3525    2.5758   -0.6651 C.3     1  UNL1       -0.0160
      3 N          -0.4285    2.0042   -2.0864 N.4     1  UNL1        0.2353
      4 H           0.4683    1.5365   -2.2696 H       1  UNL1        0.2032
      5 C          -0.6008    3.0795   -3.1163 C.3     1  UNL1       -0.0430
      6 C          -1.5181    0.9360   -2.1904 C.3     1  UNL1       -0.0160
      7 C          -1.2913   -0.1683   -1.1352 C.3     1  UNL1        0.0525
      8 N          -1.2174    0.4134    0.2261 N.pl3   1  UNL1       -0.3198
      9 C          -2.3763    0.4176    0.9982 C.ar    1  UNL1        0.0301
     10 C          -3.1868   -0.7161    1.0489 C.ar    1  UNL1       -0.0389
     11 C          -4.4035   -0.7414    1.7498 C.ar    1  UNL1       -0.0385
     12 C          -2.7990    1.4807    1.8044 C.ar    1  UNL1       -0.0389
     13 C          -4.0447    1.4680    2.4916 C.ar    1  UNL1       -0.0385
     14 C          -4.9186    0.3803    2.4170 C.ar    1  UNL1        0.0364
     15 N          -6.2892    0.3661    2.9331 N.am    1  UNL1       -0.2704
     16 C          -7.1089   -0.7736    2.5067 C.3     1  UNL1        0.0086
     17 C          -6.8560    1.4364    3.6933 C.2     1  UNL1        0.2541
     18 O          -6.2608    2.4753    3.9764 O.2     1  UNL1       -0.2695
     19 C          -8.3060    1.4047    4.1549 C.ar    1  UNL1        0.0793
     20 C          -9.0044    0.2128    4.4490 C.ar    1  UNL1       -0.0351
     21 C          -9.0203    2.6208    4.2596 C.ar    1  UNL1        0.1310
     22 O          -8.4310    3.8522    4.0905 O.3     1  UNL1       -0.5059
     23 C         -10.3919    2.6620    4.5396 C.ar    1  UNL1        0.0060
     24 C         -11.0609    1.4371    4.6315 C.ar    1  UNL1        0.0695
     25 C         -10.4171    0.2115    4.5597 C.ar    1  UNL1        0.0239
     26 N         -12.3797    1.1325    4.8249 N.ar    1  UNL1       -0.2766
     27 H         -13.1423    1.7837    4.9824 H       1  UNL1        0.1889
     28 N         -12.6585   -0.1776    4.7496 N.ar    1  UNL1       -0.1774
     29 C         -11.4680   -0.7705    4.5728 C.ar    1  UNL1        0.0748
     30 C         -11.4271   -2.2760    4.4132 C.3     1  UNL1        0.0171
     31 C         -11.1149   -2.6985    2.9774 C.ar    1  UNL1       -0.0413
     32 C         -11.3571   -1.8866    1.8625 C.ar    1  UNL1       -0.0582
     33 C         -11.0661   -2.3222    0.5665 C.ar    1  UNL1       -0.0612
     34 C         -10.6117   -3.6180    0.3436 C.ar    1  UNL1       -0.0588
     35 C         -10.4827   -4.5073    1.4137 C.ar    1  UNL1       -0.0502
     36 C         -10.6926   -4.0327    2.7247 C.ar    1  UNL1       -0.0553
     37 C         -10.1387   -5.9446    1.1220 C.3     1  UNL1       -0.0397
     38 H          -0.1352    1.8552    1.3879 H       1  UNL1        0.0516
     39 H           0.7945    0.9679    0.2062 H       1  UNL1        0.0516
     40 H           0.5087    3.2516   -0.6454 H       1  UNL1        0.0830
     41 H          -1.2753    3.1406   -0.4994 H       1  UNL1        0.0830
     42 H           0.2569    3.7530   -3.0481 H       1  UNL1        0.0778
     43 H          -1.5355    3.6107   -2.9164 H       1  UNL1        0.0778
     44 H          -0.6251    2.6065   -4.1022 H       1  UNL1        0.0778
     45 H          -1.4629    0.5200   -3.2025 H       1  UNL1        0.0830
     46 H          -2.4799    1.4406   -2.0476 H       1  UNL1        0.0830
     47 H          -0.3403   -0.6746   -1.3435 H       1  UNL1        0.0516
     48 H          -2.0709   -0.9267   -1.2527 H       1  UNL1        0.0516
     49 H          -2.8827   -1.6406    0.5638 H       1  UNL1        0.0637
     50 H          -4.9204   -1.6962    1.7410 H       1  UNL1        0.0637
     51 H          -2.2010    2.3797    1.9178 H       1  UNL1        0.0637
     52 H          -4.2843    2.3565    3.0654 H       1  UNL1        0.0637
     53 H          -6.8129   -1.1856    1.5419 H       1  UNL1        0.0433
     54 H          -8.1430   -0.4766    2.3379 H       1  UNL1        0.0433
     55 H          -7.0302   -1.5510    3.2748 H       1  UNL1        0.0433
     56 H          -8.5050   -0.7411    4.5314 H       1  UNL1        0.0633
     57 H          -7.4582    3.7183    4.0646 H       1  UNL1        0.2922
     58 H         -10.9138    3.6111    4.6332 H       1  UNL1        0.0675
     59 H         -12.4093   -2.6946    4.6734 H       1  UNL1        0.0377
     60 H         -10.6877   -2.6917    5.1028 H       1  UNL1        0.0377
     61 H         -11.8062   -0.9030    1.9801 H       1  UNL1        0.0620
     62 H         -11.2359   -1.6573   -0.2759 H       1  UNL1        0.0618
     63 H         -10.4118   -3.9456   -0.6744 H       1  UNL1        0.0620
     64 H         -10.5730   -4.7260    3.5570 H       1  UNL1        0.0623
     65 H         -10.4944   -6.2300    0.1237 H       1  UNL1        0.0278
     66 H         -10.6306   -6.6198    1.8294 H       1  UNL1        0.0278
     67 H          -9.0573   -6.1042    1.1558 H       1  UNL1        0.0278
@<TRIPOS>BOND
     1     1     2    1
     2     2     3    1
     3     3     4    1
     4     3     5    1
     5     3     6    1
     6     6     7    1
     7     7     8    1
     8     1     8    1
     9     8     9    1
    10     9    10   ar
    11    10    11   ar
    12     9    12   ar
    13    12    13   ar
    14    13    14   ar
    15    11    14   ar
    16    14    15    1
    17    15    16    1
    18    15    17   am
    19    17    18    2
    20    17    19    1
    21    19    20   ar
    22    19    21   ar
    23    21    22    1
    24    21    23   ar
    25    23    24   ar
    26    24    25   ar
    27    20    25   ar
    28    24    26   ar
    29    26    27    1
    30    26    28   ar
    31    28    29   ar
    32    25    29   ar
    33    29    30    1
    34    30    31    1
    35    31    32   ar
    36    32    33   ar
    37    33    34   ar
    38    34    35   ar
    39    35    36   ar
    40    31    36   ar
    41    35    37    1
    42     1    38    1
    43     1    39    1
    44     2    40    1
    45     2    41    1
    46     5    42    1
    47     5    43    1
    48     5    44    1
    49     6    45    1
    50     6    46    1
    51     7    47    1
    52     7    48    1
    53    10    49    1
    54    11    50    1
    55    12    51    1
    56    13    52    1
    57    16    53    1
    58    16    54    1
    59    16    55    1
    60    20    56    1
    61    22    57    1
    62    23    58    1
    63    30    59    1
    64    30    60    1
    65    32    61    1
    66    33    62    1
    67    34    63    1
    68    36    64    1
    69    37    65    1
    70    37    66    1
    71    37    67    1
@<TRIPOS>MOLECULE
*****
 64 68 0 0 0
SMALL
GASTEIGER

@<TRIPOS>ATOM
      1 C           2.0503    0.6092   -1.4733 C.3     1  UNL1        0.0369
      2 O           1.5673    0.3006   -0.1776 O.3     1  UNL1       -0.3782
      3 C           2.3835    0.8033    0.8836 C.3     1  UNL1        0.0754
      4 H           3.3769    0.3461    0.8261 H       1  UNL1        0.0612
      5 C           1.7227    0.4401    2.2194 C.3     1  UNL1        0.0413
      6 C           2.4899    2.3289    0.9033 C.3     1  UNL1       -0.0093
      7 C           2.4417    2.7163    2.3748 C.3     1  UNL1        0.0175
      8 N           1.7217    1.6460    3.0326 N.am    1  UNL1       -0.2937
      9 C           1.0675    1.8234    4.2543 C.2     1  UNL1        0.2674
     10 O           1.0093    2.9391    4.7762 O.2     1  UNL1       -0.2682
     11 C           0.4343    0.6442    4.9071 C.ar    1  UNL1        0.1547
     12 N           0.8033   -0.6262    4.6448 N.ar    1  UNL1       -0.1681
     13 N           0.0333   -1.3802    5.4332 N.ar    1  UNL1       -0.2761
     14 H           0.1528   -2.3860    5.4000 H       1  UNL1        0.1889
     15 C          -0.6058    0.6589    5.9036 C.ar    1  UNL1        0.0328
     16 C          -0.8341   -0.6770    6.2125 C.ar    1  UNL1        0.0700
     17 C          -1.3718    1.6374    6.5708 C.ar    1  UNL1       -0.0347
     18 C          -2.3837    1.2550    7.4746 C.ar    1  UNL1        0.0793
     19 C          -2.5063   -0.1047    7.8093 C.ar    1  UNL1        0.1310
     20 C          -1.7635   -1.0984    7.1644 C.ar    1  UNL1        0.0060
     21 O          -3.3188   -0.5582    8.8186 O.3     1  UNL1       -0.5059
     22 C          -3.2925    2.2622    8.1190 C.2     1  UNL1        0.2541
     23 O          -3.6618    1.9995    9.2696 O.2     1  UNL1       -0.2695
     24 N          -3.6661    3.4471    7.4520 N.am    1  UNL1       -0.2704
     25 C          -4.4341    4.4585    8.1693 C.3     1  UNL1        0.0086
     26 C          -3.5101    3.6735    6.0608 C.ar    1  UNL1        0.0364
     27 C          -4.0596    2.7882    5.1373 C.ar    1  UNL1       -0.0385
     28 C          -3.7794    2.9438    3.7780 C.ar    1  UNL1       -0.0389
     29 C          -2.9274    3.9528    3.2927 C.ar    1  UNL1        0.0299
     30 C          -2.4534    4.8771    4.2319 C.ar    1  UNL1       -0.0389
     31 C          -2.7618    4.7594    5.5991 C.ar    1  UNL1       -0.0385
     32 N          -2.6062    3.9913    1.9483 N.pl3   1  UNL1       -0.3255
     33 C          -2.1378    5.1939    1.2372 C.3     1  UNL1        0.0357
     34 C          -0.6780    5.0495    0.7845 C.3     1  UNL1        0.0634
     35 O          -0.5020    3.8522    0.0104 O.3     1  UNL1       -0.3767
     36 C          -0.8431    2.7109    0.8123 C.3     1  UNL1        0.0634
     37 C          -2.3038    2.7241    1.2515 C.3     1  UNL1        0.0357
     38 H           1.5194   -0.0364   -2.1922 H       1  UNL1        0.0524
     39 H           3.1183    0.4168   -1.5615 H       1  UNL1        0.0524
     40 H           1.8174    1.6454   -1.7300 H       1  UNL1        0.0524
     41 H           2.3217   -0.3273    2.7185 H       1  UNL1        0.0490
     42 H           0.6955    0.0813    2.0930 H       1  UNL1        0.0490
     43 H           1.6729    2.7852    0.3459 H       1  UNL1        0.0306
     44 H           3.4048    2.6841    0.4188 H       1  UNL1        0.0306
     45 H           1.9529    3.6861    2.5334 H       1  UNL1        0.0465
     46 H           3.4455    2.7571    2.8007 H       1  UNL1        0.0465
     47 H          -1.1662    2.6787    6.3621 H       1  UNL1        0.0633
     48 H          -1.8919   -2.1463    7.4194 H       1  UNL1        0.0675
     49 H          -3.5065    0.2092    9.4048 H       1  UNL1        0.2922
     50 H          -4.9658    4.0192    9.0181 H       1  UNL1        0.0433
     51 H          -5.1791    4.9137    7.5058 H       1  UNL1        0.0433
     52 H          -3.7508    5.2282    8.5368 H       1  UNL1        0.0433
     53 H          -4.7083    1.9781    5.4574 H       1  UNL1        0.0637
     54 H          -4.2460    2.2509    3.0823 H       1  UNL1        0.0637
     55 H          -1.7755    5.6727    3.9353 H       1  UNL1        0.0637
     56 H          -2.3220    5.4623    6.3015 H       1  UNL1        0.0637
     57 H          -2.2724    6.1146    1.8118 H       1  UNL1        0.0486
     58 H          -2.7583    5.2896    0.3377 H       1  UNL1        0.0486
     59 H           0.0124    5.0350    1.6361 H       1  UNL1        0.0575
     60 H          -0.3958    5.8925    0.1451 H       1  UNL1        0.0575
     61 H          -0.2102    2.7085    1.7004 H       1  UNL1        0.0575
     62 H          -0.6275    1.8093    0.2332 H       1  UNL1        0.0575
     63 H          -2.4589    1.8370    1.8760 H       1  UNL1        0.0486
     64 H          -2.9548    2.6414    0.3764 H       1  UNL1        0.0486
@<TRIPOS>BOND
     1     1     2    1
     2     2     3    1
     3     3     4    1
     4     3     5    1
     5     3     6    1
     6     6     7    1
     7     7     8    1
     8     5     8    1
     9     8     9   am
    10     9    10    2
    11     9    11    1
    12    11    12   ar
    13    12    13   ar
    14    13    14    1
    15    11    15   ar
    16    15    16   ar
    17    13    16   ar
    18    15    17   ar
    19    17    18   ar
    20    18    19   ar
    21    19    20   ar
    22    16    20   ar
    23    19    21    1
    24    18    22    1
    25    22    23    2
    26    22    24   am
    27    24    25    1
    28    24    26    1
    29    26    27   ar
    30    27    28   ar
    31    28    29   ar
    32    29    30   ar
    33    30    31   ar
    34    26    31   ar
    35    29    32    1
    36    32    33    1
    37    33    34    1
    38    34    35    1
    39    35    36    1
    40    36    37    1
    41    32    37    1
    42     1    38    1
    43     1    39    1
    44     1    40    1
    45     5    41    1
    46     5    42    1
    47     6    43    1
    48     6    44    1
    49     7    45    1
    50     7    46    1
    51    17    47    1
    52    20    48    1
    53    21    49    1
    54    25    50    1
    55    25    51    1
    56    25    52    1
    57    27    53    1
    58    28    54    1
    59    30    55    1
    60    31    56    1
    61    33    57    1
    62    33    58    1
    63    34    59    1
    64    34    60    1
    65    36    61    1
    66    36    62    1
    67    37    63    1
    68    37    64    1
@<TRIPOS>MOLECULE
*****
 67 71 0 0 0
SMALL
GASTEIGER

@<TRIPOS>ATOM
      1 C           0.2193   -1.2668    0.3298 C.3     1  UNL1        0.0357
      2 C           0.0130   -2.0327   -0.9875 C.3     1  UNL1        0.0634
      3 O          -0.2342   -1.1386   -2.0873 O.3     1  UNL1       -0.3767
      4 C           0.8728   -0.2374   -2.2516 C.3     1  UNL1        0.0634
      5 C           1.1132    0.6078   -0.9870 C.3     1  UNL1        0.0357
      6 N           1.2985   -0.2771    0.1816 N.pl3   1  UNL1       -0.3255
      7 C           2.4684   -0.2887    0.9123 C.ar    1  UNL1        0.0299
      8 C           3.2125    0.8755    1.1034 C.ar    1  UNL1       -0.0389
      9 C           4.4343    0.8864    1.8023 C.ar    1  UNL1       -0.0385
     10 C           2.9929   -1.4301    1.5294 C.ar    1  UNL1       -0.0389
     11 C           4.2389   -1.4304    2.2132 C.ar    1  UNL1       -0.0385
     12 C           5.0238   -0.2785    2.3201 C.ar    1  UNL1        0.0364
     13 N           6.3819   -0.2464    2.8667 N.am    1  UNL1       -0.2704
     14 C           7.1672    0.9503    2.5469 C.3     1  UNL1        0.0086
     15 C           6.9782   -1.3390    3.5533 C.2     1  UNL1        0.2541
     16 O           6.4280   -2.4256    3.7605 O.2     1  UNL1       -0.2695
     17 C           8.4219   -1.2909    4.0284 C.ar    1  UNL1        0.0793
     18 C           9.1929   -2.4706    3.9627 C.ar    1  UNL1        0.1310
     19 C          10.5526   -2.5004    4.3094 C.ar    1  UNL1        0.0060
     20 O           8.6851   -3.6766    3.5490 O.3     1  UNL1       -0.5059
     21 C           9.0426   -0.1260    4.5212 C.ar    1  UNL1       -0.0347
     22 C          10.4452   -0.0929    4.7261 C.ar    1  UNL1        0.0328
     23 C          11.1446   -1.2904    4.6570 C.ar    1  UNL1        0.0700
     24 C          11.4503    0.9143    4.9190 C.ar    1  UNL1        0.1547
     25 N          12.6542    0.3403    5.1449 N.ar    1  UNL1       -0.1681
     26 N          12.4319   -0.9712    4.9960 N.ar    1  UNL1       -0.2761
     27 H          13.2149   -1.6063    5.1017 H       1  UNL1        0.1889
     28 C          11.2543    2.3836    4.8517 C.2     1  UNL1        0.2674
     29 O          10.1777    2.8727    5.2008 O.2     1  UNL1       -0.2682
     30 N          12.2889    3.2036    4.3285 N.am    1  UNL1       -0.2937
     31 C          12.0155    4.6445    4.2696 C.3     1  UNL1        0.0413
     32 C          13.2725    5.5378    4.1472 C.3     1  UNL1        0.0741
     33 H          12.9695    6.5508    3.8526 H       1  UNL1        0.0611
     34 O          14.0121    5.6373    5.3730 O.3     1  UNL1       -0.3782
     35 C          13.3515    6.3935    6.3793 C.3     1  UNL1        0.0369
     36 C          14.2353    5.0065    3.0808 C.3     1  UNL1       -0.0237
     37 C          14.5209    3.5221    3.2851 C.3     1  UNL1       -0.0347
     38 C          13.2269    2.7166    3.3143 C.3     1  UNL1        0.0152
     39 H           0.3746   -1.9618    1.1576 H       1  UNL1        0.0486
     40 H          -0.7013   -0.7120    0.5557 H       1  UNL1        0.0486
     41 H          -0.8584   -2.6895   -0.9015 H       1  UNL1        0.0575
     42 H           0.8828   -2.6560   -1.2249 H       1  UNL1        0.0575
     43 H           0.6416    0.4180   -3.0982 H       1  UNL1        0.0575
     44 H           1.7662   -0.8166   -2.5139 H       1  UNL1        0.0575
     45 H           0.2352    1.2385   -0.8013 H       1  UNL1        0.0486
     46 H           1.9648    1.2689   -1.1752 H       1  UNL1        0.0486
     47 H           2.8437    1.8275    0.7301 H       1  UNL1        0.0637
     48 H           4.8922    1.8634    1.9223 H       1  UNL1        0.0637
     49 H           2.4735   -2.3818    1.4568 H       1  UNL1        0.0637
     50 H           4.5619   -2.3860    2.6114 H       1  UNL1        0.0637
     51 H           6.8372    1.4564    1.6390 H       1  UNL1        0.0433
     52 H           8.2050    0.6854    2.3379 H       1  UNL1        0.0433
     53 H           7.0977    1.6427    3.3916 H       1  UNL1        0.0433
     54 H          11.1172   -3.4243    4.2564 H       1  UNL1        0.0675
     55 H           7.7055   -3.5942    3.5224 H       1  UNL1        0.2922
     56 H           8.4839    0.7844    4.7054 H       1  UNL1        0.0633
     57 H          11.4297    4.9294    5.1480 H       1  UNL1        0.0490
     58 H          11.3766    4.8035    3.3919 H       1  UNL1        0.0490
     59 H          14.0596    6.5754    7.1921 H       1  UNL1        0.0524
     60 H          12.5065    5.8350    6.7881 H       1  UNL1        0.0524
     61 H          13.0153    7.3605    5.9910 H       1  UNL1        0.0524
     62 H          15.1840    5.5568    3.1166 H       1  UNL1        0.0291
     63 H          13.8051    5.1593    2.0837 H       1  UNL1        0.0291
     64 H          15.0720    3.3742    4.2217 H       1  UNL1        0.0281
     65 H          15.1621    3.1586    2.4737 H       1  UNL1        0.0281
     66 H          13.4716    1.6635    3.4306 H       1  UNL1        0.0465
     67 H          12.7133    2.8027    2.3476 H       1  UNL1        0.0465
@<TRIPOS>BOND
     1     1     2    1
     2     2     3    1
     3     3     4    1
     4     4     5    1
     5     5     6    1
     6     1     6    1
     7     6     7    1
     8     7     8   ar
     9     8     9   ar
    10     7    10   ar
    11    10    11   ar
    12    11    12   ar
    13     9    12   ar
    14    12    13    1
    15    13    14    1
    16    13    15   am
    17    15    16    2
    18    15    17    1
    19    17    18   ar
    20    18    19   ar
    21    18    20    1
    22    17    21   ar
    23    21    22   ar
    24    22    23   ar
    25    19    23   ar
    26    22    24   ar
    27    24    25   ar
    28    25    26   ar
    29    26    27    1
    30    23    26   ar
    31    24    28    1
    32    28    29    2
    33    28    30   am
    34    30    31    1
    35    31    32    1
    36    34    35    1
    37    32    36    1
    38    36    37    1
    39    37    38    1
    40    30    38    1
    41    32    34    1
    42    32    33    1
    43     1    39    1
    44     1    40    1
    45     2    41    1
    46     2    42    1
    47     4    43    1
    48     4    44    1
    49     5    45    1
    50     5    46    1
    51     8    47    1
    52     9    48    1
    53    10    49    1
    54    11    50    1
    55    14    51    1
    56    14    52    1
    57    14    53    1
    58    19    54    1
    59    20    55    1
    60    21    56    1
    61    31    57    1
    62    31    58    1
    63    35    59    1
    64    35    60    1
    65    35    61    1
    66    36    62    1
    67    36    63    1
    68    37    64    1
    69    37    65    1
    70    38    66    1
    71    38    67    1
@<TRIPOS>MOLECULE
*****
 60 64 0 0 0
SMALL
GASTEIGER

@<TRIPOS>ATOM
      1 C           3.6162   -2.9404   -0.9331 C.3     1  UNL1        0.0151
      2 C           4.7696   -2.1331   -1.5112 C.3     1  UNL1       -0.0357
      3 C           4.8332   -0.9196   -0.5955 C.3     1  UNL1       -0.0357
      4 C           3.3668   -0.6491   -0.2749 C.3     1  UNL1        0.0151
      5 N           2.7204   -1.9479   -0.3594 N.am    1  UNL1       -0.2962
      6 C           1.3816   -2.1258   -0.0028 C.2     1  UNL1        0.2673
      7 O           0.6894   -1.1585    0.3182 O.2     1  UNL1       -0.2682
      8 C           0.8134   -3.5018   -0.0040 C.ar    1  UNL1        0.1547
      9 N           1.5912   -4.6037    0.0756 N.ar    1  UNL1       -0.1681
     10 N           0.7341   -5.6250    0.1498 N.ar    1  UNL1       -0.2761
     11 H           1.1136   -6.5595    0.2493 H       1  UNL1        0.1889
     12 C          -0.5789   -3.8775    0.0075 C.ar    1  UNL1        0.0328
     13 C          -0.5801   -5.2596    0.1439 C.ar    1  UNL1        0.0700
     14 C          -1.8355   -3.2257   -0.0380 C.ar    1  UNL1       -0.0347
     15 C          -3.0502   -3.9470    0.1543 C.ar    1  UNL1        0.0793
     16 C          -2.9589   -5.3237    0.3849 C.ar    1  UNL1        0.1310
     17 C          -1.7440   -6.0158    0.2988 C.ar    1  UNL1        0.0060
     18 O          -3.9993   -6.0977    0.8203 O.3     1  UNL1       -0.5059
     19 C          -4.2814   -3.0977    0.3015 C.2     1  UNL1        0.2541
     20 O          -4.0637   -2.0539    0.9240 O.2     1  UNL1       -0.2695
     21 N          -5.5780   -3.4398   -0.1747 N.am    1  UNL1       -0.2704
     22 C          -5.9431   -4.7466   -0.7194 C.3     1  UNL1        0.0086
     23 C          -6.6551   -2.4645   -0.0786 C.ar    1  UNL1        0.0364
     24 C          -6.4013   -1.0948   -0.1642 C.ar    1  UNL1       -0.0385
     25 C          -7.4202   -0.1419   -0.0083 C.ar    1  UNL1       -0.0389
     26 C          -8.7507   -0.4958    0.2364 C.ar    1  UNL1        0.0299
     27 C          -9.0220   -1.8688    0.2290 C.ar    1  UNL1       -0.0389
     28 C          -8.0003   -2.8370    0.0748 C.ar    1  UNL1       -0.0385
     29 N          -9.7057    0.4662    0.4864 N.pl3   1  UNL1       -0.3255
     30 C         -11.1320    0.3392    0.1587 C.3     1  UNL1        0.0357
     31 C         -11.9854    0.5432    1.4211 C.3     1  UNL1        0.0634
     32 O         -11.6907    1.7962    2.0633 O.3     1  UNL1       -0.3767
     33 C         -10.3054    1.8433    2.4434 C.3     1  UNL1        0.0634
     34 C          -9.3726    1.6974    1.2278 C.3     1  UNL1        0.0357
     35 H           3.9720   -3.5899   -0.1263 H       1  UNL1        0.0465
     36 H           3.1132   -3.5305   -1.7038 H       1  UNL1        0.0465
     37 H           4.5317   -1.8167   -2.5337 H       1  UNL1        0.0281
     38 H           5.7040   -2.7011   -1.5378 H       1  UNL1        0.0281
     39 H           5.3295   -0.0636   -1.0621 H       1  UNL1        0.0281
     40 H           5.3823   -1.1750    0.3188 H       1  UNL1        0.0281
     41 H           2.9112    0.0117   -1.0198 H       1  UNL1        0.0465
     42 H           3.2326   -0.2108    0.7190 H       1  UNL1        0.0465
     43 H          -1.8583   -2.1412   -0.1448 H       1  UNL1        0.0633
     44 H          -1.7004   -7.0896    0.4576 H       1  UNL1        0.0675
     45 H          -4.5234   -5.5543    1.4365 H       1  UNL1        0.2922
     46 H          -5.0985   -5.2143   -1.2252 H       1  UNL1        0.0433
     47 H          -6.7436   -4.6535   -1.4601 H       1  UNL1        0.0433
     48 H          -6.2966   -5.3815    0.1009 H       1  UNL1        0.0433
     49 H          -5.4032   -0.7208   -0.3743 H       1  UNL1        0.0637
     50 H          -7.1417    0.9049   -0.1009 H       1  UNL1        0.0637
     51 H         -10.0329   -2.2261    0.4054 H       1  UNL1        0.0637
     52 H          -8.2923   -3.8807    0.1397 H       1  UNL1        0.0637
     53 H         -11.3839   -0.6107   -0.3214 H       1  UNL1        0.0486
     54 H         -11.3770    1.1327   -0.5595 H       1  UNL1        0.0486
     55 H         -11.8289   -0.2700    2.1392 H       1  UNL1        0.0575
     56 H         -13.0472    0.5565    1.1551 H       1  UNL1        0.0575
     57 H         -10.1137    1.0546    3.1812 H       1  UNL1        0.0575
     58 H         -10.1277    2.8062    2.9334 H       1  UNL1        0.0575
     59 H          -8.3405    1.7130    1.5936 H       1  UNL1        0.0486
     60 H          -9.5071    2.5528    0.5554 H       1  UNL1        0.0486
@<TRIPOS>BOND
     1     1     2    1
     2     2     3    1
     3     3     4    1
     4     4     5    1
     5     1     5    1
     6     5     6   am
     7     6     7    2
     8     6     8    1
     9     8     9   ar
    10     9    10   ar
    11    10    11    1
    12     8    12   ar
    13    12    13   ar
    14    10    13   ar
    15    12    14   ar
    16    14    15   ar
    17    15    16   ar
    18    16    17   ar
    19    13    17   ar
    20    16    18    1
    21    15    19    1
    22    19    20    2
    23    19    21   am
    24    21    22    1
    25    21    23    1
    26    23    24   ar
    27    24    25   ar
    28    25    26   ar
    29    26    27   ar
    30    27    28   ar
    31    23    28   ar
    32    26    29    1
    33    29    30    1
    34    30    31    1
    35    31    32    1
    36    32    33    1
    37    33    34    1
    38    29    34    1
    39     1    35    1
    40     1    36    1
    41     2    37    1
    42     2    38    1
    43     3    39    1
    44     3    40    1
    45     4    41    1
    46     4    42    1
    47    14    43    1
    48    17    44    1
    49    18    45    1
    50    22    46    1
    51    22    47    1
    52    22    48    1
    53    24    49    1
    54    25    50    1
    55    27    51    1
    56    28    52    1
    57    30    53    1
    58    30    54    1
    59    31    55    1
    60    31    56    1
    61    33    57    1
    62    33    58    1
    63    34    59    1
    64    34    60    1
@<TRIPOS>MOLECULE
*****
 63 67 0 0 0
SMALL
GASTEIGER

@<TRIPOS>ATOM
      1 C          -6.1510    9.2899    0.0921 C.ar    1  UNL1       -0.0553
      2 C          -6.2247   10.5397    0.7209 C.ar    1  UNL1       -0.0502
      3 C          -7.5519   11.1798    1.0072 C.3     1  UNL1       -0.0397
      4 C          -5.0435   11.2458    0.9706 C.ar    1  UNL1       -0.0588
      5 C          -3.8091   10.7085    0.6021 C.ar    1  UNL1       -0.0612
      6 C          -3.7447    9.4795   -0.0530 C.ar    1  UNL1       -0.0582
      7 C          -4.9197    8.7777   -0.3527 C.ar    1  UNL1       -0.0413
      8 C          -4.8977    7.6381   -1.3397 C.3     1  UNL1        0.0171
      9 C          -4.7286    6.3271   -0.6568 C.ar    1  UNL1        0.0748
     10 N          -5.8073    5.6236   -0.2744 N.ar    1  UNL1       -0.1774
     11 N          -5.3226    4.3974   -0.0185 N.ar    1  UNL1       -0.2766
     12 H          -5.9745    3.6714    0.2550 H       1  UNL1        0.1889
     13 C          -3.5385    5.5407   -0.5877 C.ar    1  UNL1        0.0239
     14 C          -3.9831    4.2631   -0.2637 C.ar    1  UNL1        0.0695
     15 C          -2.1672    5.7364   -0.8528 C.ar    1  UNL1       -0.0351
     16 C          -1.2926    4.6340   -0.8048 C.ar    1  UNL1        0.0793
     17 C          -1.8159    3.3461   -0.6201 C.ar    1  UNL1        0.1310
     18 C          -3.1558    3.1375   -0.2826 C.ar    1  UNL1        0.0060
     19 O          -1.0691    2.2100   -0.7985 O.3     1  UNL1       -0.5059
     20 C           0.1753    4.8220   -1.0047 C.2     1  UNL1        0.2541
     21 O           0.7155    4.0112   -1.7649 O.2     1  UNL1       -0.2695
     22 N           0.8589    5.9056   -0.4035 N.am    1  UNL1       -0.2704
     23 C           2.1885    6.2266   -0.8997 C.3     1  UNL1        0.0086
     24 C           0.3901    6.6407    0.7328 C.ar    1  UNL1        0.0364
     25 C          -0.3515    6.0152    1.7289 C.ar    1  UNL1       -0.0385
     26 C          -0.9623    6.7593    2.7395 C.ar    1  UNL1       -0.0388
     27 C          -0.8773    8.1503    2.8186 C.ar    1  UNL1        0.0318
     28 C           0.0045    8.7448    1.9023 C.ar    1  UNL1       -0.0388
     29 C           0.6356    8.0102    0.8816 C.ar    1  UNL1       -0.0385
     30 N          -1.6491    8.8942    3.6860 N.pl3   1  UNL1       -0.3008
     31 C          -1.1146   10.1022    4.3483 C.3     1  UNL1        0.0380
     32 C          -2.1363   11.2443    4.2228 C.3     1  UNL1        0.0636
     33 O          -3.3951   10.8846    4.8159 O.3     1  UNL1       -0.3740
     34 C          -3.9161    9.6957    4.2032 C.3     1  UNL1        0.0904
     35 C          -2.9449    8.4913    4.2733 C.3     1  UNL1        0.1454
     36 H          -2.7894    8.2044    5.3188 H       1  UNL1        0.0830
     37 O          -3.5575    7.4061    3.5987 O.3     1  UNL1       -0.3719
     38 H          -7.0667    8.7412   -0.1269 H       1  UNL1        0.0623
     39 H          -8.3802   10.4819    0.8480 H       1  UNL1        0.0278
     40 H          -7.6964   12.0290    0.3296 H       1  UNL1        0.0278
     41 H          -7.6015   11.5352    2.0407 H       1  UNL1        0.0278
     42 H          -5.0811   12.2238    1.4460 H       1  UNL1        0.0620
     43 H          -2.8972   11.2658    0.7971 H       1  UNL1        0.0618
     44 H          -2.7783    9.1099   -0.3863 H       1  UNL1        0.0620
     45 H          -4.0962    7.8003   -2.0702 H       1  UNL1        0.0377
     46 H          -5.8280    7.6400   -1.9226 H       1  UNL1        0.0377
     47 H          -1.7945    6.7278   -1.0863 H       1  UNL1        0.0633
     48 H          -3.5399    2.1378   -0.1079 H       1  UNL1        0.0675
     49 H          -0.3576    2.4347   -1.4385 H       1  UNL1        0.2922
     50 H           2.5967    5.4324   -1.5342 H       1  UNL1        0.0433
     51 H           2.8839    6.3558   -0.0524 H       1  UNL1        0.0433
     52 H           2.1557    7.1461   -1.4871 H       1  UNL1        0.0433
     53 H          -0.4839    4.9365    1.7442 H       1  UNL1        0.0637
     54 H          -1.5442    6.2093    3.4798 H       1  UNL1        0.0637
     55 H           0.1711    9.8190    1.9185 H       1  UNL1        0.0637
     56 H           1.2583    8.5497    0.1713 H       1  UNL1        0.0637
     57 H          -0.1442   10.4275    3.9616 H       1  UNL1        0.0487
     58 H          -0.9697    9.8731    5.4125 H       1  UNL1        0.0487
     59 H          -2.2951   11.5147    3.1730 H       1  UNL1        0.0575
     60 H          -1.7740   12.1348    4.7448 H       1  UNL1        0.0575
     61 H          -4.1557    9.9112    3.1601 H       1  UNL1        0.0602
     62 H          -4.8688    9.4433    4.6804 H       1  UNL1        0.0602
     63 H          -3.6026    7.6768    2.6654 H       1  UNL1        0.2118
@<TRIPOS>BOND
     1     1     2   ar
     2     2     3    1
     3     2     4   ar
     4     4     5   ar
     5     5     6   ar
     6     6     7   ar
     7     1     7   ar
     8     7     8    1
     9     8     9    1
    10     9    10   ar
    11    10    11   ar
    12    11    12    1
    13     9    13   ar
    14    13    14   ar
    15    11    14   ar
    16    13    15   ar
    17    15    16   ar
    18    16    17   ar
    19    17    18   ar
    20    14    18   ar
    21    17    19    1
    22    16    20    1
    23    20    21    2
    24    20    22   am
    25    22    23    1
    26    22    24    1
    27    24    25   ar
    28    25    26   ar
    29    26    27   ar
    30    27    28   ar
    31    28    29   ar
    32    24    29   ar
    33    27    30    1
    34    30    31    1
    35    31    32    1
    36    32    33    1
    37    33    34    1
    38    34    35    1
    39    30    35    1
    40    35    37    1
    41    35    36    1
    42     1    38    1
    43     3    39    1
    44     3    40    1
    45     3    41    1
    46     4    42    1
    47     5    43    1
    48     6    44    1
    49     8    45    1
    50     8    46    1
    51    15    47    1
    52    18    48    1
    53    19    49    1
    54    23    50    1
    55    23    51    1
    56    23    52    1
    57    25    53    1
    58    26    54    1
    59    28    55    1
    60    29    56    1
    61    31    57    1
    62    31    58    1
    63    32    59    1
    64    32    60    1
    65    34    61    1
    66    34    62    1
    67    37    63    1
@<TRIPOS>MOLECULE
*****
 49 52 0 0 0
SMALL
GASTEIGER

@<TRIPOS>ATOM
      1 C          -0.4224   -0.6892   -0.2437 C.ar    1  UNL1       -0.0376
      2 C           0.9624   -0.6278   -0.0361 C.ar    1  UNL1       -0.0247
      3 C           1.5485    0.5884    0.2557 C.ar    1  UNL1        0.1235
      4 F           2.8646    0.6568    0.4810 F       1  UNL1       -0.2055
      5 C           0.7755    1.7375    0.3070 C.ar    1  UNL1       -0.0247
      6 C          -0.6110    1.6712    0.0842 C.ar    1  UNL1       -0.0376
      7 C          -1.2570    0.4538   -0.1833 C.ar    1  UNL1        0.0364
      8 N          -2.7021    0.3210   -0.3942 N.am    1  UNL1       -0.2704
      9 C          -3.1554   -0.9692   -0.8937 C.3     1  UNL1        0.0086
     10 C          -3.6267    1.3814   -0.0924 C.2     1  UNL1        0.2541
     11 O          -3.2959    2.5296    0.2314 O.2     1  UNL1       -0.2695
     12 C          -5.1275    1.1769   -0.2143 C.ar    1  UNL1        0.0793
     13 C          -5.7647   -0.0606    0.0039 C.ar    1  UNL1       -0.0351
     14 C          -5.9358    2.2835   -0.5473 C.ar    1  UNL1        0.1310
     15 O          -5.4501    3.5615   -0.6838 O.3     1  UNL1       -0.5059
     16 C          -7.3169    2.1617   -0.7650 C.ar    1  UNL1        0.0060
     17 C          -7.8552    0.8715   -0.7159 C.ar    1  UNL1        0.0695
     18 C          -7.1136   -0.2489   -0.3759 C.ar    1  UNL1        0.0239
     19 N          -9.1220    0.4142   -0.9407 N.ar    1  UNL1       -0.2766
     20 H          -9.9465    0.9587   -1.1586 H       1  UNL1        0.1889
     21 N          -9.2357   -0.9295   -0.8960 N.ar    1  UNL1       -0.1774
     22 C          -8.0025   -1.3622   -0.5811 C.ar    1  UNL1        0.0748
     23 C          -7.7493   -2.8502   -0.5190 C.3     1  UNL1        0.0171
     24 C          -6.8416   -3.3255   -1.6521 C.ar    1  UNL1       -0.0413
     25 C          -6.6655   -2.6123   -2.8489 C.ar    1  UNL1       -0.0582
     26 C          -5.8072   -3.0736   -3.8489 C.ar    1  UNL1       -0.0612
     27 C          -5.1748   -4.3075   -3.7224 C.ar    1  UNL1       -0.0588
     28 C          -5.4320   -5.1137   -2.6121 C.ar    1  UNL1       -0.0502
     29 C          -6.2276   -4.6003   -1.5662 C.ar    1  UNL1       -0.0553
     30 C          -4.8592   -6.5019   -2.5754 C.3     1  UNL1       -0.0397
     31 H          -0.8119   -1.6827   -0.4348 H       1  UNL1        0.0637
     32 H           1.5696   -1.5228   -0.0835 H       1  UNL1        0.0647
     33 H           1.2501    2.6907    0.5238 H       1  UNL1        0.0647
     34 H          -1.1460    2.6144    0.1173 H       1  UNL1        0.0637
     35 H          -2.4432   -1.4375   -1.5761 H       1  UNL1        0.0433
     36 H          -4.0616   -0.8707   -1.4945 H       1  UNL1        0.0433
     37 H          -3.3243   -1.6296   -0.0323 H       1  UNL1        0.0433
     38 H          -5.2412   -0.9158    0.4073 H       1  UNL1        0.0633
     39 H          -4.5245    3.5670   -0.3472 H       1  UNL1        0.2922
     40 H          -7.9162    3.0286   -1.0098 H       1  UNL1        0.0675
     41 H          -8.6998   -3.3954   -0.6019 H       1  UNL1        0.0377
     42 H          -7.3002   -3.1004    0.4515 H       1  UNL1        0.0377
     43 H          -7.2034   -1.6816   -3.0299 H       1  UNL1        0.0620
     44 H          -5.6560   -2.4792   -4.7468 H       1  UNL1        0.0618
     45 H          -4.5237   -4.6537   -4.5190 H       1  UNL1        0.0620
     46 H          -6.4047   -5.2220   -0.6888 H       1  UNL1        0.0623
     47 H          -4.6478   -6.8588   -3.5927 H       1  UNL1        0.0278
     48 H          -5.5734   -7.2110   -2.1435 H       1  UNL1        0.0278
     49 H          -3.9257   -6.5302   -2.0057 H       1  UNL1        0.0278
@<TRIPOS>BOND
     1     1     2   ar
     2     2     3   ar
     3     3     4    1
     4     3     5   ar
     5     5     6   ar
     6     6     7   ar
     7     1     7   ar
     8     7     8    1
     9     8     9    1
    10     8    10   am
    11    10    11    2
    12    10    12    1
    13    12    13   ar
    14    12    14   ar
    15    14    15    1
    16    14    16   ar
    17    16    17   ar
    18    17    18   ar
    19    13    18   ar
    20    17    19   ar
    21    19    20    1
    22    19    21   ar
    23    21    22   ar
    24    18    22   ar
    25    22    23    1
    26    23    24    1
    27    24    25   ar
    28    25    26   ar
    29    26    27   ar
    30    27    28   ar
    31    28    29   ar
    32    24    29   ar
    33    28    30    1
    34     1    31    1
    35     2    32    1
    36     5    33    1
    37     6    34    1
    38     9    35    1
    39     9    36    1
    40     9    37    1
    41    13    38    1
    42    15    39    1
    43    16    40    1
    44    23    41    1
    45    23    42    1
    46    25    43    1
    47    26    44    1
    48    27    45    1
    49    29    46    1
    50    30    47    1
    51    30    48    1
    52    30    49    1
@<TRIPOS>MOLECULE
*****
 53 56 0 0 0
SMALL
GASTEIGER

@<TRIPOS>ATOM
      1 C           6.1109   -4.4575   -0.1276 C.3     1  UNL1        0.0788
      2 O           5.5314   -4.1927   -1.4058 O.3     1  UNL1       -0.4951
      3 C           5.0584   -2.9143   -1.5717 C.ar    1  UNL1        0.1219
      4 C           5.1227   -2.3941   -2.8767 C.ar    1  UNL1        0.0015
      5 C           4.5111   -2.1525   -0.5428 C.ar    1  UNL1       -0.0198
      6 C           4.0514   -0.8709   -0.8115 C.ar    1  UNL1       -0.0565
      7 C           4.1507   -0.3456   -2.1014 C.ar    1  UNL1       -0.0400
      8 C           4.7133   -1.0767   -3.1590 C.ar    1  UNL1        0.0397
      9 N           4.8725   -0.4882   -4.4811 N.am    1  UNL1       -0.2703
     10 C           4.7971   -1.4239   -5.6086 C.3     1  UNL1        0.0086
     11 C           5.0750    0.9120   -4.6088 C.2     1  UNL1        0.2541
     12 O           5.1067    1.6818   -3.6436 O.2     1  UNL1       -0.2695
     13 C           5.3494    1.6125   -5.9055 C.ar    1  UNL1        0.0793
     14 C           4.9073    2.9616   -5.9759 C.ar    1  UNL1       -0.0351
     15 C           6.1928    1.1419   -6.9178 C.ar    1  UNL1        0.1310
     16 O           6.9167   -0.0143   -6.8227 O.3     1  UNL1       -0.5059
     17 C           6.4672    1.8948   -8.0683 C.ar    1  UNL1        0.0060
     18 C           6.0593    3.2303   -8.0651 C.ar    1  UNL1        0.0695
     19 C           5.3465    3.8023   -7.0207 C.ar    1  UNL1        0.0239
     20 N           6.2808    4.2473   -8.9518 N.ar    1  UNL1       -0.2766
     21 H           6.7555    4.1952   -9.8450 H       1  UNL1        0.1889
     22 N           5.8549    5.4477   -8.5308 N.ar    1  UNL1       -0.1774
     23 C           5.3389    5.1982   -7.3145 C.ar    1  UNL1        0.0748
     24 C           4.8123    6.3295   -6.4946 C.3     1  UNL1        0.0171
     25 C           5.9161    6.8223   -5.5724 C.ar    1  UNL1       -0.0413
     26 C           5.8944    6.4828   -4.2102 C.ar    1  UNL1       -0.0582
     27 C           6.8142    7.0405   -3.3225 C.ar    1  UNL1       -0.0612
     28 C           7.7821    7.9344   -3.7764 C.ar    1  UNL1       -0.0588
     29 C           7.8556    8.2594   -5.1358 C.ar    1  UNL1       -0.0502
     30 C           6.9232    7.7007   -6.0243 C.ar    1  UNL1       -0.0553
     31 C           8.9589    9.1528   -5.6303 C.3     1  UNL1       -0.0397
     32 H           6.5241   -5.4704   -0.1482 H       1  UNL1        0.0660
     33 H           5.3667   -4.4321    0.6746 H       1  UNL1        0.0660
     34 H           6.9319   -3.7620    0.0792 H       1  UNL1        0.0660
     35 H           5.5584   -3.0259   -3.6453 H       1  UNL1        0.0673
     36 H           4.4107   -2.5303    0.4683 H       1  UNL1        0.0654
     37 H           3.6142   -0.2685   -0.0191 H       1  UNL1        0.0619
     38 H           3.7434    0.6485   -2.2556 H       1  UNL1        0.0636
     39 H           4.0683   -2.2160   -5.4040 H       1  UNL1        0.0433
     40 H           5.7776   -1.8869   -5.7581 H       1  UNL1        0.0433
     41 H           4.4742   -0.9193   -6.5209 H       1  UNL1        0.0433
     42 H           4.3144    3.3833   -5.1665 H       1  UNL1        0.0633
     43 H           7.1636   -0.1236   -5.8838 H       1  UNL1        0.2922
     44 H           7.0937    1.4954   -8.8595 H       1  UNL1        0.0675
     45 H           3.9385    6.0231   -5.9140 H       1  UNL1        0.0377
     46 H           4.4834    7.1595   -7.1275 H       1  UNL1        0.0377
     47 H           5.1508    5.7868   -3.8278 H       1  UNL1        0.0620
     48 H           6.7707    6.7843   -2.2669 H       1  UNL1        0.0618
     49 H           8.4744    8.3744   -3.0667 H       1  UNL1        0.0620
     50 H           6.9733    7.9529   -7.0846 H       1  UNL1        0.0623
     51 H           9.3864    9.7473   -4.8143 H       1  UNL1        0.0278
     52 H           8.5895    9.8547   -6.3838 H       1  UNL1        0.0278
     53 H           9.7613    8.5472   -6.0645 H       1  UNL1        0.0278
@<TRIPOS>BOND
     1     1     2    1
     2     2     3    1
     3     3     4   ar
     4     3     5   ar
     5     5     6   ar
     6     6     7   ar
     7     7     8   ar
     8     4     8   ar
     9     8     9    1
    10     9    10    1
    11     9    11   am
    12    11    12    2
    13    11    13    1
    14    13    14   ar
    15    13    15   ar
    16    15    16    1
    17    15    17   ar
    18    17    18   ar
    19    18    19   ar
    20    14    19   ar
    21    18    20   ar
    22    20    21    1
    23    20    22   ar
    24    22    23   ar
    25    19    23   ar
    26    23    24    1
    27    24    25    1
    28    25    26   ar
    29    26    27   ar
    30    27    28   ar
    31    28    29   ar
    32    29    30   ar
    33    25    30   ar
    34    29    31    1
    35     1    32    1
    36     1    33    1
    37     1    34    1
    38     4    35    1
    39     5    36    1
    40     6    37    1
    41     7    38    1
    42    10    39    1
    43    10    40    1
    44    10    41    1
    45    14    42    1
    46    16    43    1
    47    17    44    1
    48    24    45    1
    49    24    46    1
    50    26    47    1
    51    27    48    1
    52    28    49    1
    53    30    50    1
    54    31    51    1
    55    31    52    1
    56    31    53    1
@<TRIPOS>MOLECULE
*****
 52 55 0 0 0
SMALL
GASTEIGER

@<TRIPOS>ATOM
      1 C          -0.5909   -0.6635    0.2191 C.ar    1  UNL1       -0.0374
      2 C           0.7825   -0.6040    0.4944 C.ar    1  UNL1       -0.0487
      3 C           1.5057   -1.8222    0.9869 C.3     1  UNL1       -0.0397
      4 C           1.4440    0.6167    0.3672 C.ar    1  UNL1       -0.0587
      5 C           0.7395    1.7511   -0.0343 C.ar    1  UNL1       -0.0598
      6 C          -0.6386    1.6817   -0.2864 C.ar    1  UNL1       -0.0403
      7 C          -1.3295    0.4728   -0.1580 C.ar    1  UNL1        0.0365
      8 N          -2.7459    0.3442   -0.4032 N.am    1  UNL1       -0.2704
      9 C          -3.1619   -0.9526   -0.9532 C.3     1  UNL1        0.0086
     10 C          -3.6511    1.3973   -0.1092 C.2     1  UNL1        0.2541
     11 O          -3.3078    2.5261    0.2446 O.2     1  UNL1       -0.2695
     12 C          -5.1361    1.1988   -0.2333 C.ar    1  UNL1        0.0793
     13 C          -5.7711   -0.0418   -0.0201 C.ar    1  UNL1       -0.0351
     14 C          -5.9392    2.3087   -0.5722 C.ar    1  UNL1        0.1310
     15 O          -5.4481    3.5850   -0.6956 O.3     1  UNL1       -0.5059
     16 C          -7.3144    2.1821   -0.8082 C.ar    1  UNL1        0.0060
     17 C          -7.8495    0.8905   -0.7609 C.ar    1  UNL1        0.0695
     18 C          -7.1124   -0.2311   -0.4043 C.ar    1  UNL1        0.0239
     19 N          -9.1081    0.4245   -1.0082 N.ar    1  UNL1       -0.2766
     20 H          -9.9270    0.9700   -1.2585 H       1  UNL1        0.1889
     21 N          -9.2269   -0.9097   -0.9468 N.ar    1  UNL1       -0.1774
     22 C          -8.0008   -1.3406   -0.6022 C.ar    1  UNL1        0.0748
     23 C          -7.7544   -2.8295   -0.5149 C.3     1  UNL1        0.0171
     24 C          -6.8395   -3.3151   -1.6387 C.ar    1  UNL1       -0.0413
     25 C          -6.6730   -2.6206   -2.8455 C.ar    1  UNL1       -0.0582
     26 C          -5.8087   -3.0853   -3.8382 C.ar    1  UNL1       -0.0612
     27 C          -5.1626   -4.3100   -3.6881 C.ar    1  UNL1       -0.0588
     28 C          -5.4104   -5.1015   -2.5661 C.ar    1  UNL1       -0.0502
     29 C          -6.2145   -4.5809   -1.5280 C.ar    1  UNL1       -0.0553
     30 C          -4.8201   -6.4827   -2.5040 C.3     1  UNL1       -0.0397
     31 H          -1.0886   -1.6197    0.3543 H       1  UNL1        0.0639
     32 H           0.8962   -2.7242    0.8630 H       1  UNL1        0.0278
     33 H           1.7330   -1.7124    2.0520 H       1  UNL1        0.0278
     34 H           2.4346   -1.9734    0.4293 H       1  UNL1        0.0278
     35 H           2.5064    0.6929    0.5875 H       1  UNL1        0.0620
     36 H           1.2616    2.6991   -0.1453 H       1  UNL1        0.0618
     37 H          -1.1383    2.5871   -0.6195 H       1  UNL1        0.0636
     38 H          -2.3737   -1.3998   -1.5637 H       1  UNL1        0.0433
     39 H          -4.0253   -0.8395   -1.6112 H       1  UNL1        0.0433
     40 H          -3.3899   -1.6245   -0.1191 H       1  UNL1        0.0433
     41 H          -5.2389   -0.8923    0.3844 H       1  UNL1        0.0633
     42 H          -4.5290    3.5853   -0.3423 H       1  UNL1        0.2922
     43 H          -7.9162    3.0492   -1.0610 H       1  UNL1        0.0675
     44 H          -8.7062   -3.3698   -0.6009 H       1  UNL1        0.0377
     45 H          -7.3165   -3.0680    0.4608 H       1  UNL1        0.0377
     46 H          -7.2223   -1.7025   -3.0435 H       1  UNL1        0.0620
     47 H          -5.6627   -2.5056   -4.7433 H       1  UNL1        0.0618
     48 H          -4.5020   -4.6614   -4.4775 H       1  UNL1        0.0620
     49 H          -6.3840   -5.1903   -0.6416 H       1  UNL1        0.0623
     50 H          -4.6040   -6.8559   -3.5136 H       1  UNL1        0.0278
     51 H          -5.5256   -7.1911   -2.0574 H       1  UNL1        0.0278
     52 H          -3.8869   -6.4860   -1.9340 H       1  UNL1        0.0278
@<TRIPOS>BOND
     1     1     2   ar
     2     2     3    1
     3     2     4   ar
     4     4     5   ar
     5     5     6   ar
     6     6     7   ar
     7     1     7   ar
     8     7     8    1
     9     8     9    1
    10     8    10   am
    11    10    11    2
    12    10    12    1
    13    12    13   ar
    14    12    14   ar
    15    14    15    1
    16    14    16   ar
    17    16    17   ar
    18    17    18   ar
    19    13    18   ar
    20    17    19   ar
    21    19    20    1
    22    19    21   ar
    23    21    22   ar
    24    18    22   ar
    25    22    23    1
    26    23    24    1
    27    24    25   ar
    28    25    26   ar
    29    26    27   ar
    30    27    28   ar
    31    28    29   ar
    32    24    29   ar
    33    28    30    1
    34     1    31    1
    35     3    32    1
    36     3    33    1
    37     3    34    1
    38     4    35    1
    39     5    36    1
    40     6    37    1
    41     9    38    1
    42     9    39    1
    43     9    40    1
    44    13    41    1
    45    15    42    1
    46    16    43    1
    47    23    44    1
    48    23    45    1
    49    25    46    1
    50    26    47    1
    51    27    48    1
    52    29    49    1
    53    30    50    1
    54    30    51    1
    55    30    52    1
@<TRIPOS>MOLECULE
*****
 61 65 0 0 0
SMALL
GASTEIGER

@<TRIPOS>ATOM
      1 C           0.2712   -1.1292    0.1990 C.3     1  UNL1        0.0357
      2 C           0.1715   -1.6855   -1.2299 C.3     1  UNL1        0.0634
      3 O          -0.1306   -0.6479   -2.1799 O.3     1  UNL1       -0.3767
      4 C           0.8936    0.3597   -2.1553 C.3     1  UNL1        0.0634
      5 C           1.0303    1.0025   -0.7626 C.3     1  UNL1        0.0357
      6 N           1.2615   -0.0425    0.2572 N.pl3   1  UNL1       -0.3255
      7 C           2.4346   -0.1001    0.9816 C.ar    1  UNL1        0.0299
      8 C           3.0832    1.0656    1.3874 C.ar    1  UNL1       -0.0389
      9 C           4.2963    1.0465    2.1000 C.ar    1  UNL1       -0.0385
     10 C           3.0475   -1.2886    1.3921 C.ar    1  UNL1       -0.0389
     11 C           4.2875   -1.3136    2.0881 C.ar    1  UNL1       -0.0385
     12 C           4.9750   -0.1418    2.4176 C.ar    1  UNL1        0.0364
     13 N           6.3201   -0.0998    3.0000 N.am    1  UNL1       -0.2704
     14 C           6.9870    1.2057    2.9655 C.3     1  UNL1        0.0086
     15 C           7.0121   -1.2527    3.4759 C.2     1  UNL1        0.2541
     16 O           6.5581   -2.4029    3.4543 O.2     1  UNL1       -0.2695
     17 C           8.4436   -1.1695    3.9872 C.ar    1  UNL1        0.0793
     18 C           9.3192   -2.2430    3.7204 C.ar    1  UNL1        0.1310
     19 C          10.6742   -2.2190    4.0810 C.ar    1  UNL1        0.0060
     20 O           8.9220   -3.3942    3.0849 O.3     1  UNL1       -0.5059
     21 C           8.9574   -0.0681    4.7061 C.ar    1  UNL1       -0.0347
     22 C          10.3500    0.0487    4.9464 C.ar    1  UNL1        0.0328
     23 C          11.1563   -1.0439    4.6640 C.ar    1  UNL1        0.0700
     24 C          11.2611    1.0825    5.3717 C.ar    1  UNL1        0.1547
     25 N          12.5071    0.5780    5.5028 N.ar    1  UNL1       -0.1681
     26 N          12.4084   -0.6897    5.0823 N.ar    1  UNL1       -0.2761
     27 H          13.2396   -1.2609    5.0728 H       1  UNL1        0.1889
     28 C          10.9391    2.5068    5.6330 C.2     1  UNL1        0.2674
     29 O           9.7991    2.8215    5.9675 O.2     1  UNL1       -0.2682
     30 N          11.9403    3.4893    5.4828 N.am    1  UNL1       -0.2918
     31 C          11.6033    4.8785    5.8072 C.3     1  UNL1        0.0385
     32 C          12.8531    5.6968    6.1625 C.3     1  UNL1        0.0635
     33 O          13.8500    5.6041    5.1336 O.3     1  UNL1       -0.3767
     34 C          14.2425    4.2366    4.9446 C.3     1  UNL1        0.0635
     35 C          13.0459    3.3806    4.5182 C.3     1  UNL1        0.0385
     36 H           0.4654   -1.9328    0.9145 H       1  UNL1        0.0486
     37 H          -0.7010   -0.6980    0.4719 H       1  UNL1        0.0486
     38 H          -0.6369   -2.4214   -1.2857 H       1  UNL1        0.0575
     39 H           1.1014   -2.1821   -1.5295 H       1  UNL1        0.0575
     40 H           0.6220    1.1239   -2.8911 H       1  UNL1        0.0575
     41 H           1.8410   -0.0894   -2.4764 H       1  UNL1        0.0575
     42 H           0.0975    1.5220   -0.5115 H       1  UNL1        0.0486
     43 H           1.8253    1.7530   -0.8090 H       1  UNL1        0.0486
     44 H           2.6409    2.0373    1.1827 H       1  UNL1        0.0637
     45 H           4.6685    2.0220    2.3977 H       1  UNL1        0.0637
     46 H           2.6038   -2.2497    1.1448 H       1  UNL1        0.0637
     47 H           4.6825   -2.2960    2.3201 H       1  UNL1        0.0637
     48 H           6.6257    1.8623    2.1739 H       1  UNL1        0.0433
     49 H           8.0486    1.0915    2.7407 H       1  UNL1        0.0433
     50 H           6.8353    1.6927    3.9342 H       1  UNL1        0.0433
     51 H          11.3211   -3.0650    3.8729 H       1  UNL1        0.0675
     52 H           7.9380   -3.3923    3.0517 H       1  UNL1        0.2922
     53 H           8.3184    0.7346    5.0517 H       1  UNL1        0.0633
     54 H          10.8834    4.9197    6.6314 H       1  UNL1        0.0487
     55 H          11.1263    5.3049    4.9159 H       1  UNL1        0.0487
     56 H          13.2913    5.3589    7.1091 H       1  UNL1        0.0575
     57 H          12.5931    6.7543    6.2750 H       1  UNL1        0.0575
     58 H          14.6914    3.8605    5.8715 H       1  UNL1        0.0575
     59 H          15.0130    4.2176    4.1671 H       1  UNL1        0.0575
     60 H          13.3692    2.3596    4.3387 H       1  UNL1        0.0487
     61 H          12.6506    3.7589    3.5664 H       1  UNL1        0.0487
@<TRIPOS>BOND
     1     1     2    1
     2     2     3    1
     3     3     4    1
     4     4     5    1
     5     5     6    1
     6     1     6    1
     7     6     7    1
     8     7     8   ar
     9     8     9   ar
    10     7    10   ar
    11    10    11   ar
    12    11    12   ar
    13     9    12   ar
    14    12    13    1
    15    13    14    1
    16    13    15   am
    17    15    16    2
    18    15    17    1
    19    17    18   ar
    20    18    19   ar
    21    18    20    1
    22    17    21   ar
    23    21    22   ar
    24    22    23   ar
    25    19    23   ar
    26    22    24   ar
    27    24    25   ar
    28    25    26   ar
    29    26    27    1
    30    23    26   ar
    31    24    28    1
    32    28    29    2
    33    28    30   am
    34    30    31    1
    35    31    32    1
    36    32    33    1
    37    33    34    1
    38    34    35    1
    39    30    35    1
    40     1    36    1
    41     1    37    1
    42     2    38    1
    43     2    39    1
    44     4    40    1
    45     4    41    1
    46     5    42    1
    47     5    43    1
    48     8    44    1
    49     9    45    1
    50    10    46    1
    51    11    47    1
    52    14    48    1
    53    14    49    1
    54    14    50    1
    55    19    51    1
    56    20    52    1
    57    21    53    1
    58    31    54    1
    59    31    55    1
    60    32    56    1
    61    32    57    1
    62    34    58    1
    63    34    59    1
    64    35    60    1
    65    35    61    1
@<TRIPOS>MOLECULE
*****
 63 67 0 0 0
SMALL
GASTEIGER

@<TRIPOS>ATOM
      1 C           0.2075   -1.2357    0.3433 C.3     1  UNL1        0.0357
      2 C          -0.0157   -2.0534   -0.9383 C.3     1  UNL1        0.0634
      3 O          -0.2609   -1.2028   -2.0731 O.3     1  UNL1       -0.3767
      4 C           0.8556   -0.3231   -2.2832 C.3     1  UNL1        0.0634
      5 C           1.1180    0.5701   -1.0569 C.3     1  UNL1        0.0357
      6 N           1.2980   -0.2683    0.1462 N.pl3   1  UNL1       -0.3255
      7 C           2.4711   -0.2654    0.8696 C.ar    1  UNL1        0.0299
      8 C           3.2192    0.9011    1.0207 C.ar    1  UNL1       -0.0389
      9 C           4.4400    0.9317    1.7192 C.ar    1  UNL1       -0.0385
     10 C           2.9970   -1.3900    1.5169 C.ar    1  UNL1       -0.0389
     11 C           4.2431   -1.3698    2.2002 C.ar    1  UNL1       -0.0385
     12 C           5.0311   -0.2158    2.2752 C.ar    1  UNL1        0.0364
     13 N           6.3838   -0.1619    2.8305 N.am    1  UNL1       -0.2704
     14 C           7.1492    1.0533    2.5328 C.3     1  UNL1        0.0086
     15 C           6.9994   -1.2405    3.5295 C.2     1  UNL1        0.2541
     16 O           6.4584   -2.3386    3.7413 O.2     1  UNL1       -0.2695
     17 C           8.4418   -1.1702    4.0133 C.ar    1  UNL1        0.0793
     18 C           9.2327   -2.3342    3.9677 C.ar    1  UNL1        0.1310
     19 C          10.5878   -2.3403    4.3207 C.ar    1  UNL1        0.0060
     20 O           8.7418   -3.5575    3.5735 O.3     1  UNL1       -0.5059
     21 C           9.0498    0.0163    4.4903 C.ar    1  UNL1       -0.0347
     22 C          10.4506    0.0730    4.7025 C.ar    1  UNL1        0.0328
     23 C          11.1668   -1.1148    4.6530 C.ar    1  UNL1        0.0700
     24 C          11.4443    1.0971    4.9069 C.ar    1  UNL1        0.1547
     25 N          12.6477    0.5345    5.1496 N.ar    1  UNL1       -0.1681
     26 N          12.4444   -0.7793    4.9963 N.ar    1  UNL1       -0.2761
     27 H          13.2360   -1.4034    5.1155 H       1  UNL1        0.1889
     28 C          11.2420    2.5702    4.8576 C.2     1  UNL1        0.2673
     29 O          10.1345    3.0427    5.1232 O.2     1  UNL1       -0.2682
     30 N          12.3228    3.4140    4.4839 N.am    1  UNL1       -0.2962
     31 C          12.0822    4.8576    4.5188 C.3     1  UNL1        0.0150
     32 C          13.3744    5.6703    4.6486 C.3     1  UNL1       -0.0371
     33 C          14.4042    5.2652    3.5992 C.3     1  UNL1       -0.0502
     34 C          14.6466    3.7626    3.6659 C.3     1  UNL1       -0.0371
     35 C          13.3382    2.9894    3.5108 C.3     1  UNL1        0.0150
     36 H           0.3632   -1.8980    1.1993 H       1  UNL1        0.0486
     37 H          -0.7046   -0.6619    0.5541 H       1  UNL1        0.0486
     38 H          -0.8935   -2.6970   -0.8198 H       1  UNL1        0.0575
     39 H           0.8461   -2.6948   -1.1551 H       1  UNL1        0.0575
     40 H           0.6258    0.3001   -3.1538 H       1  UNL1        0.0575
     41 H           1.7399   -0.9241   -2.5285 H       1  UNL1        0.0575
     42 H           0.2523    1.2232   -0.8923 H       1  UNL1        0.0486
     43 H           1.9798    1.2079   -1.2776 H       1  UNL1        0.0486
     44 H           2.8529    1.8427    0.6151 H       1  UNL1        0.0637
     45 H           4.8947    1.9134    1.8030 H       1  UNL1        0.0637
     46 H           2.4734   -2.3414    1.4749 H       1  UNL1        0.0637
     47 H           4.5656   -2.3137    2.6293 H       1  UNL1        0.0637
     48 H           6.8264    1.5605    1.6221 H       1  UNL1        0.0433
     49 H           8.1944    0.8163    2.3366 H       1  UNL1        0.0433
     50 H           7.0461    1.7362    3.3814 H       1  UNL1        0.0433
     51 H          11.1665   -3.2593    4.2910 H       1  UNL1        0.0675
     52 H           7.7591   -3.4869    3.5393 H       1  UNL1        0.2922
     53 H           8.4773    0.9181    4.6656 H       1  UNL1        0.0633
     54 H          11.4179    5.1066    5.3528 H       1  UNL1        0.0465
     55 H          11.5625    5.1278    3.5921 H       1  UNL1        0.0465
     56 H          13.8042    5.5146    5.6459 H       1  UNL1        0.0280
     57 H          13.1558    6.7398    4.5570 H       1  UNL1        0.0280
     58 H          15.3440    5.8043    3.7637 H       1  UNL1        0.0266
     59 H          14.0466    5.5404    2.5993 H       1  UNL1        0.0266
     60 H          15.1095    3.5125    4.6285 H       1  UNL1        0.0280
     61 H          15.3502    3.4648    2.8804 H       1  UNL1        0.0280
     62 H          13.5505    1.9247    3.5523 H       1  UNL1        0.0465
     63 H          12.9132    3.1735    2.5158 H       1  UNL1        0.0465
@<TRIPOS>BOND
     1     1     2    1
     2     2     3    1
     3     3     4    1
     4     4     5    1
     5     5     6    1
     6     1     6    1
     7     6     7    1
     8     7     8   ar
     9     8     9   ar
    10     7    10   ar
    11    10    11   ar
    12    11    12   ar
    13     9    12   ar
    14    12    13    1
    15    13    14    1
    16    13    15   am
    17    15    16    2
    18    15    17    1
    19    17    18   ar
    20    18    19   ar
    21    18    20    1
    22    17    21   ar
    23    21    22   ar
    24    22    23   ar
    25    19    23   ar
    26    22    24   ar
    27    24    25   ar
    28    25    26   ar
    29    26    27    1
    30    23    26   ar
    31    24    28    1
    32    28    29    2
    33    28    30   am
    34    30    31    1
    35    31    32    1
    36    32    33    1
    37    33    34    1
    38    34    35    1
    39    30    35    1
    40     1    36    1
    41     1    37    1
    42     2    38    1
    43     2    39    1
    44     4    40    1
    45     4    41    1
    46     5    42    1
    47     5    43    1
    48     8    44    1
    49     9    45    1
    50    10    46    1
    51    11    47    1
    52    14    48    1
    53    14    49    1
    54    14    50    1
    55    19    51    1
    56    20    52    1
    57    21    53    1
    58    31    54    1
    59    31    55    1
    60    32    56    1
    61    32    57    1
    62    33    58    1
    63    33    59    1
    64    34    60    1
    65    34    61    1
    66    35    62    1
    67    35    63    1
@<TRIPOS>MOLECULE
*****
 38 41 0 0 0
SMALL
GASTEIGER

@<TRIPOS>ATOM
      1 C          -1.0767    1.4395   -0.8384 C.ar    1  UNL1       -0.0504
      2 C          -2.1581    0.6738   -1.2797 C.ar    1  UNL1       -0.0610
      3 C          -2.0816   -0.7087   -1.2172 C.ar    1  UNL1       -0.0597
      4 C          -0.9171   -1.3110   -0.7369 C.ar    1  UNL1       -0.0356
      5 C           0.1824   -0.5655   -0.3187 C.ar    1  UNL1        0.0768
      6 C           0.1063    0.8284   -0.3373 C.ar    1  UNL1        0.0310
      7 N           1.2745   -1.2350    0.0619 N.ar    1  UNL1       -0.2146
      8 C           2.3365   -0.5344    0.4472 C.ar    1  UNL1        0.2138
      9 N           3.4868   -1.2345    0.7379 N.pl3   1  UNL1       -0.3274
     10 N           2.3790    0.7871    0.5459 N.ar    1  UNL1       -0.2094
     11 C           1.2718    1.4576    0.1353 C.ar    1  UNL1        0.1383
     12 C           1.3888    2.9648    0.2192 C.2     1  UNL1        0.2660
     13 O           0.3944    3.6495    0.4528 O.2     1  UNL1       -0.2683
     14 N           2.6282    3.5714    0.0060 N.am    1  UNL1       -0.2914
     15 C           2.7930    5.0208    0.0673 C.3     1  UNL1        0.0254
     16 C           3.8732    2.9056   -0.3226 C.3     1  UNL1        0.0373
     17 C           4.6677    4.0030   -0.9647 C.2     1  UNL1       -0.0352
     18 C           3.8745    5.2898   -0.9771 C.3     1  UNL1        0.0166
     19 C           5.9155    3.9079   -1.4457 C.2     1  UNL1        0.0429
     20 C           6.5725    5.1490   -1.9344 C.2     1  UNL1        0.3430
     21 O           7.5475    5.0934   -2.7771 O.2     1  UNL1       -0.2714
     22 H           7.8727    5.9840   -3.0456 H       1  UNL1        0.6839
     23 C           6.0471    6.4261   -1.3516 C.2     1  UNL1        0.0383
     24 C           4.7960    6.4719   -0.8539 C.2     1  UNL1       -0.0665
     25 H          -1.1694    2.5242   -0.8960 H       1  UNL1        0.0625
     26 H          -3.0534    1.1545   -1.6656 H       1  UNL1        0.0618
     27 H          -2.9197   -1.3236   -1.5419 H       1  UNL1        0.0618
     28 H          -0.8628   -2.3979   -0.6955 H       1  UNL1        0.0639
     29 H           3.2517   -2.1999    0.9348 H       1  UNL1        0.1452
     30 H           4.0454   -0.7551    1.4276 H       1  UNL1        0.1452
     31 H           3.1017    5.2939    1.0823 H       1  UNL1        0.0474
     32 H           1.8595    5.5418   -0.1711 H       1  UNL1        0.0474
     33 H           3.7228    2.0715   -1.0089 H       1  UNL1        0.0511
     34 H           4.3419    2.5868    0.6155 H       1  UNL1        0.0511
     35 H           3.3708    5.3656   -1.9511 H       1  UNL1        0.0404
     36 H           6.4717    2.9801   -1.4947 H       1  UNL1        0.0711
     37 H           6.6995    7.2909   -1.3493 H       1  UNL1        0.0708
     38 H           4.4042    7.3957   -0.4314 H       1  UNL1        0.0581
@<TRIPOS>BOND
     1     1     2   ar
     2     2     3   ar
     3     3     4   ar
     4     4     5   ar
     5     5     6   ar
     6     1     6   ar
     7     5     7   ar
     8     7     8   ar
     9     8     9    1
    10     8    10   ar
    11    10    11   ar
    12     6    11   ar
    13    11    12    1
    14    12    13    2
    15    12    14   am
    16    14    15    1
    17    14    16    1
    18    16    17    1
    19    17    18    1
    20    15    18    1
    21    17    19    2
    22    19    20    1
    23    20    21    2
    24    21    22    1
    25    20    23    1
    26    23    24    2
    27    18    24    1
    28     1    25    1
    29     2    26    1
    30     3    27    1
    31     4    28    1
    32     9    29    1
    33     9    30    1
    34    15    31    1
    35    15    32    1
    36    16    33    1
    37    16    34    1
    38    18    35    1
    39    19    36    1
    40    23    37    1
    41    24    38    1
@<TRIPOS>MOLECULE
*****
 39 42 0 0 0
SMALL
GASTEIGER

@<TRIPOS>ATOM
      1 O           2.7814   -0.1484    3.7523 O.3     1  UNL1       -0.5067
      2 C           3.7162   -0.1851    2.7631 C.ar    1  UNL1        0.1176
      3 C           3.9322   -1.3264    1.9998 C.ar    1  UNL1       -0.0088
      4 C           4.4490    0.9627    2.5290 C.ar    1  UNL1       -0.0181
      5 C           5.4020    0.9674    1.5109 C.ar    1  UNL1       -0.0321
      6 C           5.6272   -0.1460    0.7121 C.ar    1  UNL1        0.0770
      7 C           4.8962   -1.3168    0.9519 C.ar    1  UNL1        0.0345
      8 N           6.5521   -0.0396   -0.2473 N.ar    1  UNL1       -0.2146
      9 C           6.7506   -1.0829   -1.0443 C.ar    1  UNL1        0.2138
     10 N           7.7171   -0.9738   -2.0176 N.pl3   1  UNL1       -0.3274
     11 N           6.1440   -2.2511   -0.9164 N.ar    1  UNL1       -0.2094
     12 C           5.2494   -2.3719    0.0958 C.ar    1  UNL1        0.1384
     13 C           4.7192   -3.7817    0.2806 C.2     1  UNL1        0.2660
     14 O           3.5441   -3.9633    0.5946 O.2     1  UNL1       -0.2683
     15 N           5.6138   -4.8368    0.1188 N.am    1  UNL1       -0.2914
     16 C           5.2286   -6.2460    0.2396 C.3     1  UNL1        0.0254
     17 C           7.0262   -4.7035   -0.1694 C.3     1  UNL1        0.0367
     18 C           7.5890   -6.0192    0.2395 C.2     1  UNL1       -0.0477
     19 C           6.5018   -6.9308    0.7594 C.3     1  UNL1        0.0154
     20 C           8.8620   -6.4193    0.0902 C.2     1  UNL1       -0.0789
     21 C           9.2502   -7.8482    0.3551 C.3     1  UNL1       -0.0162
     22 C           8.0660   -8.7873    0.2593 C.2     1  UNL1       -0.0836
     23 C           6.7914   -8.3675    0.4046 C.2     1  UNL1       -0.0790
     24 H           2.2984   -0.9913    3.7624 H       1  UNL1        0.2921
     25 H           3.3559   -2.2255    2.2032 H       1  UNL1        0.0661
     26 H           4.2804    1.8559    3.1247 H       1  UNL1        0.0655
     27 H           5.9812    1.8710    1.3321 H       1  UNL1        0.0640
     28 H           8.3863   -0.2564   -1.7753 H       1  UNL1        0.1452
     29 H           8.0766   -1.8806   -2.2766 H       1  UNL1        0.1452
     30 H           4.9295   -6.6091   -0.7482 H       1  UNL1        0.0474
     31 H           4.3880   -6.3653    0.9302 H       1  UNL1        0.0474
     32 H           7.4741   -3.8873    0.3985 H       1  UNL1        0.0511
     33 H           7.1404   -4.5625   -1.2513 H       1  UNL1        0.0511
     34 H           6.4875   -6.8536    1.8552 H       1  UNL1        0.0404
     35 H           9.6208   -5.7399   -0.2844 H       1  UNL1        0.0575
     36 H           9.7174   -7.9296    1.3428 H       1  UNL1        0.0350
     37 H           9.9955   -8.1439   -0.3912 H       1  UNL1        0.0350
     38 H           8.2815   -9.8329    0.0597 H       1  UNL1        0.0572
     39 H           5.9700   -9.0733    0.3326 H       1  UNL1        0.0576
@<TRIPOS>BOND
     1     1     2    1
     2     2     3   ar
     3     2     4   ar
     4     4     5   ar
     5     5     6   ar
     6     6     7   ar
     7     3     7   ar
     8     6     8   ar
     9     8     9   ar
    10     9    10    1
    11     9    11   ar
    12    11    12   ar
    13     7    12   ar
    14    12    13    1
    15    13    14    2
    16    13    15   am
    17    15    16    1
    18    15    17    1
    19    17    18    1
    20    18    19    1
    21    16    19    1
    22    18    20    2
    23    20    21    1
    24    21    22    1
    25    22    23    2
    26    19    23    1
    27     1    24    1
    28     3    25    1
    29     4    26    1
    30     5    27    1
    31    10    28    1
    32    10    29    1
    33    16    30    1
    34    16    31    1
    35    17    32    1
    36    17    33    1
    37    19    34    1
    38    20    35    1
    39    21    36    1
    40    21    37    1
    41    22    38    1
    42    23    39    1
@<TRIPOS>MOLECULE
*****
 69 74 0 0 0
SMALL
GASTEIGER

@<TRIPOS>ATOM
      1 C           1.8412    1.8662    3.4085 C.2     1  UNL1       -0.0790
      2 C           1.7882    1.5103    4.7077 C.2     1  UNL1       -0.0836
      3 C           2.5751    0.3312    5.2445 C.3     1  UNL1       -0.0162
      4 C           2.8867   -0.6847    4.1653 C.2     1  UNL1       -0.0789
      5 C           2.9408   -0.3099    2.8744 C.2     1  UNL1       -0.0477
      6 C           2.8014    1.1495    2.4979 C.3     1  UNL1        0.0154
      7 C           3.1164   -1.1586    1.6436 C.3     1  UNL1        0.0367
      8 N           3.2102   -0.1558    0.5864 N.am    1  UNL1       -0.2914
      9 C           2.5449    1.0797    0.9989 C.3     1  UNL1        0.0254
     10 C           3.8941   -0.2296   -0.6260 C.2     1  UNL1        0.2660
     11 O           3.9725    0.7578   -1.3627 O.2     1  UNL1       -0.2683
     12 C           4.5056   -1.5221   -1.1157 C.ar    1  UNL1        0.1383
     13 N           3.8513   -2.6357   -0.6857 N.ar    1  UNL1       -0.2094
     14 C           4.1750   -3.7771   -1.2727 C.ar    1  UNL1        0.2138
     15 N           3.5011   -4.9090   -0.8724 N.pl3   1  UNL1       -0.3274
     16 N           5.0914   -3.8727   -2.2374 N.ar    1  UNL1       -0.2146
     17 C           5.7409   -2.7601   -2.6533 C.ar    1  UNL1        0.0768
     18 C           5.5319   -1.4998   -2.1099 C.ar    1  UNL1        0.0316
     19 C           6.6576   -2.8512   -3.7032 C.ar    1  UNL1       -0.0350
     20 C           7.3867   -1.7472   -4.2309 C.ar    1  UNL1       -0.0519
     21 C           7.2603   -0.4548   -3.7126 C.ar    1  UNL1       -0.0153
     22 C           6.3415   -0.3784   -2.6243 C.ar    1  UNL1       -0.0426
     23 C           8.1024    0.7278   -4.2003 C.ar    1  UNL1        0.0085
     24 C           8.6209    1.6328   -3.2356 C.ar    1  UNL1       -0.0522
     25 C           9.4528    2.7404   -3.5508 C.ar    1  UNL1       -0.0611
     26 C           9.8922    2.9691   -4.8372 C.ar    1  UNL1       -0.0599
     27 C           9.3936    2.1283   -5.8305 C.ar    1  UNL1       -0.0347
     28 C           8.4786    1.0686   -5.5307 C.ar    1  UNL1        0.1131
     29 S           7.6539    0.5285   -7.0203 S.O2    1  UNL1        0.0618
     30 O           8.6526    0.1415   -7.9855 O.2     1  UNL1       -0.1528
     31 O           6.5095   -0.2956   -6.7305 O.2     1  UNL1       -0.1528
     32 N           6.9706    2.0104   -7.5310 N.3     1  UNL1       -0.1664
     33 C           5.9383    2.6095   -6.6526 C.3     1  UNL1        0.0608
     34 C           4.4891    2.3882   -7.1146 C.3     1  UNL1       -0.0174
     35 N           4.2663    2.3961   -8.6209 N.4     1  UNL1        0.2350
     36 H           4.0962    3.3777   -8.8748 H       1  UNL1        0.2031
     37 C           3.0158    1.6275   -9.0000 C.3     1  UNL1       -0.0430
     38 C           5.4163    1.8998   -9.4826 C.3     1  UNL1       -0.0174
     39 C           6.8022    2.2798   -8.9684 C.3     1  UNL1        0.0608
     40 H           1.2727    2.7156    3.0440 H       1  UNL1        0.0576
     41 H           1.1765    2.0681    5.4118 H       1  UNL1        0.0572
     42 H           1.9858   -0.1549    6.0291 H       1  UNL1        0.0350
     43 H           3.5066    0.6854    5.7032 H       1  UNL1        0.0350
     44 H           3.0230   -1.7188    4.4640 H       1  UNL1        0.0575
     45 H           3.7851    1.6215    2.6289 H       1  UNL1        0.0404
     46 H           2.2136   -1.7544    1.4609 H       1  UNL1        0.0511
     47 H           4.0040   -1.7894    1.6957 H       1  UNL1        0.0511
     48 H           1.4811    1.0014    0.7473 H       1  UNL1        0.0474
     49 H           2.9633    1.9492    0.4817 H       1  UNL1        0.0474
     50 H           3.0750   -4.8320    0.0400 H       1  UNL1        0.1452
     51 H           3.9734   -5.7689   -1.1075 H       1  UNL1        0.1452
     52 H           6.8109   -3.8350   -4.1507 H       1  UNL1        0.0639
     53 H           8.0691   -1.9567   -5.0530 H       1  UNL1        0.0624
     54 H           6.2244    0.5780   -2.1142 H       1  UNL1        0.0631
     55 H           8.3864    1.5044   -2.1791 H       1  UNL1        0.0624
     56 H           9.7800    3.4182   -2.7613 H       1  UNL1        0.0618
     57 H          10.5189    3.8132   -5.0927 H       1  UNL1        0.0618
     58 H           9.6753    2.3422   -6.8650 H       1  UNL1        0.0637
     59 H           6.1582    3.6784   -6.5582 H       1  UNL1        0.0497
     60 H           6.0174    2.2114   -5.6341 H       1  UNL1        0.0497
     61 H           3.8781    3.2146   -6.7267 H       1  UNL1        0.0827
     62 H           4.0834    1.4547   -6.7142 H       1  UNL1        0.0827
     63 H           2.2027    1.9084   -8.3273 H       1  UNL1        0.0778
     64 H           3.2267    0.5553   -8.9233 H       1  UNL1        0.0778
     65 H           2.7671    1.8935  -10.0313 H       1  UNL1        0.0778
     66 H           5.2527    2.3465  -10.4710 H       1  UNL1        0.0827
     67 H           5.3283    0.8133   -9.5653 H       1  UNL1        0.0827
     68 H           6.9917    3.3461   -9.1421 H       1  UNL1        0.0497
     69 H           7.5512    1.7459   -9.5615 H       1  UNL1        0.0497
@<TRIPOS>BOND
     1     1     2    2
     2     2     3    1
     3     3     4    1
     4     4     5    2
     5     5     6    1
     6     1     6    1
     7     5     7    1
     8     7     8    1
     9     8     9    1
    10     6     9    1
    11     8    10   am
    12    10    11    2
    13    10    12    1
    14    12    13   ar
    15    13    14   ar
    16    14    15    1
    17    14    16   ar
    18    16    17   ar
    19    17    18   ar
    20    12    18   ar
    21    17    19   ar
    22    19    20   ar
    23    20    21   ar
    24    21    22   ar
    25    18    22   ar
    26    21    23    1
    27    23    24   ar
    28    24    25   ar
    29    25    26   ar
    30    26    27   ar
    31    27    28   ar
    32    23    28   ar
    33    28    29    1
    34    29    30    2
    35    29    31    2
    36    29    32    1
    37    32    33    1
    38    33    34    1
    39    34    35    1
    40    35    36    1
    41    35    37    1
    42    35    38    1
    43    38    39    1
    44    32    39    1
    45     1    40    1
    46     2    41    1
    47     3    42    1
    48     3    43    1
    49     4    44    1
    50     6    45    1
    51     7    46    1
    52     7    47    1
    53     9    48    1
    54     9    49    1
    55    15    50    1
    56    15    51    1
    57    19    52    1
    58    20    53    1
    59    22    54    1
    60    24    55    1
    61    25    56    1
    62    26    57    1
    63    27    58    1
    64    33    59    1
    65    33    60    1
    66    34    61    1
    67    34    62    1
    68    37    63    1
    69    37    64    1
    70    37    65    1
    71    38    66    1
    72    38    67    1
    73    39    68    1
    74    39    69    1
@<TRIPOS>MOLECULE
*****
 41 44 0 0 0
SMALL
GASTEIGER

@<TRIPOS>ATOM
      1 C           2.6002   -0.2494    3.9745 C.3     1  UNL1       -0.0397
      2 C           3.6636   -0.2336    2.9170 C.ar    1  UNL1       -0.0497
      3 C           3.9324   -1.3631    2.1318 C.ar    1  UNL1       -0.0474
      4 C           4.3895    0.9313    2.6805 C.ar    1  UNL1       -0.0568
      5 C           5.3712    0.9547    1.6887 C.ar    1  UNL1       -0.0353
      6 C           5.6530   -0.1543    0.9078 C.ar    1  UNL1        0.0768
      7 C           4.9276   -1.3313    1.1124 C.ar    1  UNL1        0.0313
      8 N           6.6408   -0.0433    0.0118 N.ar    1  UNL1       -0.2146
      9 C           6.9350   -1.1056   -0.7272 C.ar    1  UNL1        0.2138
     10 N           8.0260   -1.0310   -1.5613 N.pl3   1  UNL1       -0.3274
     11 N           6.2824   -2.2548   -0.6837 N.ar    1  UNL1       -0.2094
     12 C           5.3183   -2.3771    0.2632 C.ar    1  UNL1        0.1383
     13 C           4.7682   -3.7843    0.3972 C.2     1  UNL1        0.2660
     14 O           3.5720   -3.9704    0.6059 O.2     1  UNL1       -0.2683
     15 N           5.6761   -4.8421    0.2916 N.am    1  UNL1       -0.2914
     16 C           5.2946   -6.2487    0.3926 C.3     1  UNL1        0.0254
     17 C           7.1096   -4.6987    0.1119 C.3     1  UNL1        0.0367
     18 C           7.6432   -6.0061    0.5678 C.2     1  UNL1       -0.0477
     19 C           6.5256   -6.9219    1.0113 C.3     1  UNL1        0.0154
     20 C           8.9262   -6.4031    0.5150 C.2     1  UNL1       -0.0789
     21 C           9.2996   -7.8264    0.8205 C.3     1  UNL1       -0.0162
     22 C           8.1310   -8.7726    0.6435 C.2     1  UNL1       -0.0836
     23 C           6.8482   -8.3582    0.6894 C.2     1  UNL1       -0.0790
     24 H           2.2141   -1.2596    4.1423 H       1  UNL1        0.0278
     25 H           1.7650    0.3916    3.6742 H       1  UNL1        0.0278
     26 H           3.0049    0.1134    4.9256 H       1  UNL1        0.0278
     27 H           3.3625   -2.2736    2.3112 H       1  UNL1        0.0627
     28 H           4.2043    1.8290    3.2670 H       1  UNL1        0.0621
     29 H           5.9411    1.8683    1.5303 H       1  UNL1        0.0639
     30 H           8.2485   -0.0720   -1.7836 H       1  UNL1        0.1452
     31 H           7.9549   -1.6925   -2.3202 H       1  UNL1        0.1452
     32 H           5.0715   -6.6182   -0.6148 H       1  UNL1        0.0474
     33 H           4.4006   -6.3691    1.0150 H       1  UNL1        0.0474
     34 H           7.5096   -3.8787    0.7108 H       1  UNL1        0.0511
     35 H           7.3038   -4.5605   -0.9584 H       1  UNL1        0.0511
     36 H           6.4267   -6.8372    2.1023 H       1  UNL1        0.0404
     37 H           9.7082   -5.7198    0.1964 H       1  UNL1        0.0575
     38 H           9.6917   -7.8976    1.8422 H       1  UNL1        0.0350
     39 H          10.1006   -8.1244    0.1358 H       1  UNL1        0.0350
     40 H           8.3668   -9.8185    0.4721 H       1  UNL1        0.0572
     41 H           6.0372   -9.0708    0.5654 H       1  UNL1        0.0576
@<TRIPOS>BOND
     1     1     2    1
     2     2     3   ar
     3     2     4   ar
     4     4     5   ar
     5     5     6   ar
     6     6     7   ar
     7     3     7   ar
     8     6     8   ar
     9     8     9   ar
    10     9    10    1
    11     9    11   ar
    12    11    12   ar
    13     7    12   ar
    14    12    13    1
    15    13    14    2
    16    13    15   am
    17    15    16    1
    18    15    17    1
    19    17    18    1
    20    18    19    1
    21    16    19    1
    22    18    20    2
    23    20    21    1
    24    21    22    1
    25    22    23    2
    26    19    23    1
    27     1    24    1
    28     1    25    1
    29     1    26    1
    30     3    27    1
    31     4    28    1
    32     5    29    1
    33    10    30    1
    34    10    31    1
    35    16    32    1
    36    16    33    1
    37    17    34    1
    38    17    35    1
    39    19    36    1
    40    20    37    1
    41    21    38    1
    42    21    39    1
    43    22    40    1
    44    23    41    1
@<TRIPOS>MOLECULE
*****
 57 61 0 0 0
SMALL
GASTEIGER

@<TRIPOS>ATOM
      1 C           8.8742    4.2316   -2.0360 C.3     1  UNL1       -0.0445
      2 N           8.1372    2.9909   -1.6582 N.4     1  UNL1        0.2281
      3 H           7.6085    2.6368   -2.4651 H       1  UNL1        0.2014
      4 H           8.8115    2.2707   -1.3898 H       1  UNL1        0.2014
      5 C           7.1780    3.2448   -0.5409 C.3     1  UNL1       -0.0074
      6 C           6.3348    2.0852   -0.0539 C.ar    1  UNL1        0.0047
      7 C           6.8360    0.7666   -0.1765 C.ar    1  UNL1       -0.0530
      8 C           6.1184   -0.3317    0.2929 C.ar    1  UNL1       -0.0613
      9 C           4.9022   -0.1371    0.9239 C.ar    1  UNL1       -0.0612
     10 C           4.4010    1.1555    1.0852 C.ar    1  UNL1       -0.0536
     11 C           5.0777    2.3010    0.6038 C.ar    1  UNL1       -0.0097
     12 C           4.4092    3.6381    0.7557 C.ar    1  UNL1       -0.0167
     13 C           5.1091    4.8371    0.9546 C.ar    1  UNL1       -0.0426
     14 C           3.0191    3.7744    0.6523 C.ar    1  UNL1       -0.0520
     15 C           2.3968    5.0310    0.7043 C.ar    1  UNL1       -0.0350
     16 C           3.1238    6.2115    0.7443 C.ar    1  UNL1        0.0768
     17 C           4.5119    6.1254    0.8137 C.ar    1  UNL1        0.0316
     18 N           2.4699    7.3683    0.6690 N.ar    1  UNL1       -0.2146
     19 C           3.1805    8.4879    0.5799 C.ar    1  UNL1        0.2138
     20 N           2.4860    9.6722    0.4831 N.pl3   1  UNL1       -0.3274
     21 N           4.5057    8.5419    0.5669 N.ar    1  UNL1       -0.2094
     22 C           5.1657    7.3706    0.6758 C.ar    1  UNL1        0.1383
     23 C           6.6481    7.4200    0.3372 C.2     1  UNL1        0.2660
     24 O           7.1960    6.3904   -0.0819 O.2     1  UNL1       -0.2683
     25 N           7.3848    8.5976    0.4052 N.am    1  UNL1       -0.2914
     26 C           7.0480    9.9283    0.9332 C.3     1  UNL1        0.0254
     27 C           8.7275    8.6225   -0.1497 C.3     1  UNL1        0.0367
     28 C           8.9035   10.0559   -0.5303 C.2     1  UNL1       -0.0477
     29 C           7.7259   10.8782   -0.0538 C.3     1  UNL1        0.0154
     30 C           9.9464   10.6288   -1.1551 C.2     1  UNL1       -0.0789
     31 C          10.0211   12.1321   -1.2870 C.3     1  UNL1       -0.0162
     32 C           9.2090   12.8375   -0.2198 C.2     1  UNL1       -0.0836
     33 C           8.1643   12.2451    0.3940 C.2     1  UNL1       -0.0790
     34 H           9.5689    3.9694   -2.8356 H       1  UNL1        0.0777
     35 H           9.4196    4.5863   -1.1575 H       1  UNL1        0.0777
     36 H           8.1508    4.9730   -2.3818 H       1  UNL1        0.0777
     37 H           6.5327    4.0275   -0.9390 H       1  UNL1        0.0867
     38 H           7.7850    3.6034    0.2975 H       1  UNL1        0.0867
     39 H           7.7994    0.5530   -0.6314 H       1  UNL1        0.0622
     40 H           6.5123   -1.3401    0.1792 H       1  UNL1        0.0618
     41 H           4.3391   -0.9893    1.3005 H       1  UNL1        0.0618
     42 H           3.4501    1.2518    1.6091 H       1  UNL1        0.0624
     43 H           6.1680    4.8003    1.1932 H       1  UNL1        0.0631
     44 H           2.3733    2.9083    0.5149 H       1  UNL1        0.0624
     45 H           1.3121    5.0883    0.6448 H       1  UNL1        0.0639
     46 H           1.5476    9.5812    0.8489 H       1  UNL1        0.1452
     47 H           3.0296   10.4672    0.7806 H       1  UNL1        0.1452
     48 H           7.4702   10.0018    1.9417 H       1  UNL1        0.0474
     49 H           5.9824   10.1344    0.9997 H       1  UNL1        0.0474
     50 H           8.8353    7.9411   -0.9970 H       1  UNL1        0.0511
     51 H           9.4186    8.3429    0.6537 H       1  UNL1        0.0511
     52 H           7.0386   11.0074   -0.9019 H       1  UNL1        0.0404
     53 H          10.7818   10.0425   -1.5231 H       1  UNL1        0.0575
     54 H           9.6766   12.4380   -2.2820 H       1  UNL1        0.0350
     55 H          11.0680   12.4384   -1.1899 H       1  UNL1        0.0350
     56 H           9.4962   13.8527    0.0379 H       1  UNL1        0.0572
     57 H           7.5925   12.7763    1.1472 H       1  UNL1        0.0576
@<TRIPOS>BOND
     1     1     2    1
     2     2     3    1
     3     2     4    1
     4     2     5    1
     5     5     6    1
     6     6     7   ar
     7     7     8   ar
     8     8     9   ar
     9     9    10   ar
    10    10    11   ar
    11     6    11   ar
    12    11    12    1
    13    12    13   ar
    14    12    14   ar
    15    14    15   ar
    16    15    16   ar
    17    16    17   ar
    18    13    17   ar
    19    16    18   ar
    20    18    19   ar
    21    19    20    1
    22    19    21   ar
    23    21    22   ar
    24    17    22   ar
    25    22    23    1
    26    23    24    2
    27    23    25   am
    28    25    26    1
    29    25    27    1
    30    27    28    1
    31    28    29    1
    32    26    29    1
    33    28    30    2
    34    30    31    1
    35    31    32    1
    36    32    33    2
    37    29    33    1
    38     1    34    1
    39     1    35    1
    40     1    36    1
    41     5    37    1
    42     5    38    1
    43     7    39    1
    44     8    40    1
    45     9    41    1
    46    10    42    1
    47    13    43    1
    48    14    44    1
    49    15    45    1
    50    20    46    1
    51    20    47    1
    52    26    48    1
    53    26    49    1
    54    27    50    1
    55    27    51    1
    56    29    52    1
    57    30    53    1
    58    31    54    1
    59    31    55    1
    60    32    56    1
    61    33    57    1
@<TRIPOS>MOLECULE
*****
 59 64 0 0 0
SMALL
GASTEIGER

@<TRIPOS>ATOM
      1 N          -3.6116    7.7313    3.8790 N.ar    1  UNL1       -0.1136
      2 N          -4.7894    7.3255    4.4593 N.ar    1  UNL1       -0.0232
      3 N          -5.8115    7.5031    3.6334 N.ar    1  UNL1       -0.0466
      4 N          -5.2761    8.0155    2.5191 N.ar    1  UNL1       -0.2427
      5 H          -5.8761    8.2259    1.7320 H       1  UNL1        0.1920
      6 C          -3.9250    8.1512    2.6708 C.ar    1  UNL1        0.1489
      7 C          -3.0148    8.6797    1.6285 C.3     1  UNL1        0.0126
      8 C          -1.9881    7.6304    1.1470 C.3     1  UNL1       -0.0201
      9 C          -2.5316    6.3520    0.5140 C.ar    1  UNL1       -0.0364
     10 C          -3.7520    6.4498   -0.2035 C.ar    1  UNL1       -0.0198
     11 C          -4.3933    5.3302   -0.7014 C.ar    1  UNL1        0.1587
     12 F          -5.5742    5.4714   -1.3217 F       1  UNL1       -0.2025
     13 C          -3.8210    4.0888   -0.5504 C.ar    1  UNL1        0.1590
     14 F          -4.4362    2.9957   -1.0154 F       1  UNL1       -0.2025
     15 C          -2.5732    3.9703    0.0569 C.ar    1  UNL1       -0.0156
     16 C          -1.8707    5.0840    0.5939 C.ar    1  UNL1       -0.0118
     17 C          -0.4740    4.8377    1.1013 C.ar    1  UNL1       -0.0168
     18 C          -0.0716    3.5711    1.5931 C.ar    1  UNL1       -0.0426
     19 C           0.5547    5.7729    0.9706 C.ar    1  UNL1       -0.0520
     20 C           1.8819    5.4618    1.2968 C.ar    1  UNL1       -0.0350
     21 C           2.2734    4.1876    1.6708 C.ar    1  UNL1        0.0768
     22 C           1.3014    3.1982    1.8065 C.ar    1  UNL1        0.0316
     23 N           3.5825    3.9738    1.8286 N.ar    1  UNL1       -0.2146
     24 C           3.9842    2.7312    2.0577 C.ar    1  UNL1        0.2138
     25 N           5.3360    2.4923    2.1431 N.pl3   1  UNL1       -0.3274
     26 N           3.1738    1.6996    2.2143 N.ar    1  UNL1       -0.2094
     27 C           1.8460    1.9256    2.1011 C.ar    1  UNL1        0.1383
     28 C           1.0020    0.6668    2.1320 C.2     1  UNL1        0.2660
     29 O          -0.1046    0.6790    1.5865 O.2     1  UNL1       -0.2683
     30 N           1.4729   -0.5154    2.7116 N.am    1  UNL1       -0.2914
     31 C           2.6450   -0.7547    3.5614 C.3     1  UNL1        0.0254
     32 C           0.6376   -1.7044    2.6383 C.3     1  UNL1        0.0367
     33 C           1.5306   -2.7968    3.1415 C.2     1  UNL1       -0.0477
     34 C           2.9055   -2.2549    3.4402 C.3     1  UNL1        0.0154
     35 C           1.2052   -4.0747    3.3977 C.2     1  UNL1       -0.0789
     36 C           2.1813   -5.0043    4.0759 C.3     1  UNL1       -0.0162
     37 C           3.2479   -4.2598    4.8479 C.2     1  UNL1       -0.0836
     38 C           3.5611   -2.9741    4.5884 C.2     1  UNL1       -0.0790
     39 H          -2.4662    9.5315    2.0483 H       1  UNL1        0.0347
     40 H          -3.5844    9.0873    0.7838 H       1  UNL1        0.0347
     41 H          -1.3715    7.3701    2.0148 H       1  UNL1        0.0317
     42 H          -1.3446    8.1194    0.4048 H       1  UNL1        0.0317
     43 H          -4.2339    7.4056   -0.3842 H       1  UNL1        0.0650
     44 H          -2.1471    2.9687    0.0704 H       1  UNL1        0.0653
     45 H          -0.8353    2.8153    1.7670 H       1  UNL1        0.0631
     46 H           0.3771    6.7618    0.5628 H       1  UNL1        0.0624
     47 H           2.6447    6.2308    1.1861 H       1  UNL1        0.0639
     48 H           5.8347    3.3204    2.4335 H       1  UNL1        0.1452
     49 H           5.5278    1.6272    2.6247 H       1  UNL1        0.1452
     50 H           2.3984   -0.4389    4.5810 H       1  UNL1        0.0474
     51 H           3.5325   -0.2159    3.2356 H       1  UNL1        0.0474
     52 H           0.3036   -1.8713    1.6125 H       1  UNL1        0.0511
     53 H          -0.2229   -1.5579    3.3028 H       1  UNL1        0.0511
     54 H           3.5304   -2.4088    2.5493 H       1  UNL1        0.0404
     55 H           0.2150   -4.4566    3.1676 H       1  UNL1        0.0575
     56 H           2.6504   -5.6604    3.3333 H       1  UNL1        0.0350
     57 H           1.6274   -5.6398    4.7752 H       1  UNL1        0.0350
     58 H           3.7678   -4.8019    5.6322 H       1  UNL1        0.0572
     59 H           4.3388   -2.4737    5.1541 H       1  UNL1        0.0576
@<TRIPOS>BOND
     1     1     2   ar
     2     2     3   ar
     3     3     4   ar
     4     4     5    1
     5     4     6   ar
     6     1     6   ar
     7     6     7    1
     8     7     8    1
     9     8     9    1
    10     9    10   ar
    11    10    11   ar
    12    11    12    1
    13    11    13   ar
    14    13    14    1
    15    13    15   ar
    16     9    16   ar
    17    15    16   ar
    18    16    17    1
    19    17    18   ar
    20    17    19   ar
    21    19    20   ar
    22    20    21   ar
    23    21    22   ar
    24    18    22   ar
    25    21    23   ar
    26    23    24   ar
    27    24    25    1
    28    24    26   ar
    29    26    27   ar
    30    22    27   ar
    31    27    28    1
    32    28    29    2
    33    28    30   am
    34    30    31    1
    35    30    32    1
    36    32    33    1
    37    33    34    1
    38    31    34    1
    39    33    35    2
    40    35    36    1
    41    36    37    1
    42    37    38    2
    43    34    38    1
    44     7    39    1
    45     7    40    1
    46     8    41    1
    47     8    42    1
    48    10    43    1
    49    15    44    1
    50    18    45    1
    51    19    46    1
    52    20    47    1
    53    25    48    1
    54    25    49    1
    55    31    50    1
    56    31    51    1
    57    32    52    1
    58    32    53    1
    59    34    54    1
    60    35    55    1
    61    36    56    1
    62    36    57    1
    63    37    58    1
    64    38    59    1
@<TRIPOS>MOLECULE
*****
 38 41 0 0 0
SMALL
GASTEIGER

@<TRIPOS>ATOM
      1 C          -1.0998    1.4055   -0.7694 C.ar    1  UNL1       -0.0504
      2 C          -2.1867    0.6329   -1.1845 C.ar    1  UNL1       -0.0610
      3 C          -2.1052   -0.7475   -1.1072 C.ar    1  UNL1       -0.0597
      4 C          -0.9368   -1.3430   -0.6265 C.ar    1  UNL1       -0.0356
      5 C           0.1572   -0.5928   -0.2103 C.ar    1  UNL1        0.0768
      6 C           0.0882    0.8022   -0.2627 C.ar    1  UNL1        0.0310
      7 N           1.2372   -1.2577    0.2107 N.ar    1  UNL1       -0.2146
      8 C           2.2885   -0.5526    0.6162 C.ar    1  UNL1        0.2138
      9 N           3.4119   -1.2570    0.9909 N.pl3   1  UNL1       -0.3274
     10 N           2.3591    0.7706    0.6259 N.ar    1  UNL1       -0.2094
     11 C           1.2618    1.4369    0.1903 C.ar    1  UNL1        0.1383
     12 C           1.3793    2.9471    0.2417 C.2     1  UNL1        0.2660
     13 O           0.3795    3.6268    0.4763 O.2     1  UNL1       -0.2683
     14 N           2.6117    3.5508    0.0095 N.am    1  UNL1       -0.2914
     15 C           2.7893    5.0020    0.0587 C.3     1  UNL1        0.0254
     16 C           3.8615    2.8876   -0.3246 C.3     1  UNL1        0.0367
     17 C           4.6552    3.9743   -0.9710 C.2     1  UNL1       -0.0477
     18 C           3.8795    5.2742   -0.9749 C.3     1  UNL1        0.0154
     19 C           5.9124    3.9058   -1.4407 C.2     1  UNL1       -0.0789
     20 C           6.6260    5.1479   -1.9104 C.3     1  UNL1       -0.0162
     21 C           6.0562    6.4027   -1.2887 C.2     1  UNL1       -0.0836
     22 C           4.7963    6.4594   -0.8087 C.2     1  UNL1       -0.0790
     23 H          -1.1866    2.4874   -0.8396 H       1  UNL1        0.0625
     24 H          -3.0882    1.1167   -1.5599 H       1  UNL1        0.0618
     25 H          -2.9407   -1.3689   -1.4209 H       1  UNL1        0.0618
     26 H          -0.8786   -2.4294   -0.5749 H       1  UNL1        0.0639
     27 H           3.3879   -2.1793    0.5775 H       1  UNL1        0.1452
     28 H           4.2443   -0.7050    0.8445 H       1  UNL1        0.1452
     29 H           3.0872    5.2792    1.0764 H       1  UNL1        0.0474
     30 H           1.8574    5.5227   -0.1870 H       1  UNL1        0.0474
     31 H           3.7066    2.0445   -0.9954 H       1  UNL1        0.0511
     32 H           4.3331    2.5752    0.6174 H       1  UNL1        0.0511
     33 H           3.3850    5.3711   -1.9522 H       1  UNL1        0.0404
     34 H           6.4590    2.9681   -1.4456 H       1  UNL1        0.0575
     35 H           6.5731    5.2175   -3.0032 H       1  UNL1        0.0350
     36 H           7.6829    5.0673   -1.6351 H       1  UNL1        0.0350
     37 H           6.7046    7.2728   -1.2328 H       1  UNL1        0.0572
     38 H           4.4114    7.3749   -0.3710 H       1  UNL1        0.0576
@<TRIPOS>BOND
     1     1     2   ar
     2     2     3   ar
     3     3     4   ar
     4     4     5   ar
     5     5     6   ar
     6     1     6   ar
     7     5     7   ar
     8     7     8   ar
     9     8     9    1
    10     8    10   ar
    11    10    11   ar
    12     6    11   ar
    13    11    12    1
    14    12    13    2
    15    12    14   am
    16    14    15    1
    17    14    16    1
    18    16    17    1
    19    17    18    1
    20    15    18    1
    21    17    19    2
    22    19    20    1
    23    20    21    1
    24    21    22    2
    25    18    22    1
    26     1    23    1
    27     2    24    1
    28     3    25    1
    29     4    26    1
    30     9    27    1
    31     9    28    1
    32    15    29    1
    33    15    30    1
    34    16    31    1
    35    16    32    1
    36    18    33    1
    37    19    34    1
    38    20    35    1
    39    20    36    1
    40    21    37    1
    41    22    38    1
@<TRIPOS>MOLECULE
*****
 52 56 0 0 0
SMALL
GASTEIGER

@<TRIPOS>ATOM
      1 C          -0.6750    1.0212   -0.4417 C.ar    1  UNL1       -0.0537
      2 C           0.7158    1.1237   -0.3336 C.ar    1  UNL1       -0.0612
      3 C           1.4664    0.0081   -0.0107 C.ar    1  UNL1       -0.0614
      4 C           0.8190   -1.1964    0.2321 C.ar    1  UNL1       -0.0558
      5 C          -0.5928   -1.3065    0.1809 C.ar    1  UNL1       -0.0145
      6 C          -1.1352   -2.6714    0.5427 C.3     1  UNL1        0.0698
      7 O          -1.1856   -3.5235   -0.5971 O.3     1  UNL1       -0.3904
      8 C          -1.3822   -0.1828   -0.1950 C.ar    1  UNL1       -0.0125
      9 C          -2.8754   -0.1778   -0.3392 C.ar    1  UNL1       -0.0168
     10 C          -3.6416    0.9902   -0.1245 C.ar    1  UNL1       -0.0426
     11 C          -3.6079   -1.3005   -0.7355 C.ar    1  UNL1       -0.0520
     12 C          -5.0069   -1.2956   -0.7853 C.ar    1  UNL1       -0.0350
     13 C          -5.7437   -0.1521   -0.5552 C.ar    1  UNL1        0.0768
     14 C          -5.0619    1.0324   -0.2933 C.ar    1  UNL1        0.0316
     15 N          -7.0752   -0.2496   -0.6102 N.ar    1  UNL1       -0.2146
     16 C          -7.7852    0.8591   -0.4464 C.ar    1  UNL1        0.2138
     17 N          -9.1562    0.7434   -0.4041 N.pl3   1  UNL1       -0.3274
     18 N          -7.2647    2.0674   -0.3194 N.ar    1  UNL1       -0.2094
     19 C          -5.9134    2.1434   -0.2166 C.ar    1  UNL1        0.1383
     20 C          -5.3854    3.5517   -0.0458 C.2     1  UNL1        0.2660
     21 O          -4.3280    3.8833   -0.5915 O.2     1  UNL1       -0.2683
     22 N          -6.1293    4.4372    0.7240 N.am    1  UNL1       -0.2914
     23 C          -5.7830    5.8478    0.9011 C.3     1  UNL1        0.0254
     24 C          -7.3041    4.0843    1.4983 C.3     1  UNL1        0.0367
     25 C          -7.3793    5.1693    2.5120 C.2     1  UNL1       -0.0477
     26 C          -6.2645    6.1718    2.3177 C.3     1  UNL1        0.0154
     27 C          -8.3521    5.3331    3.4221 C.2     1  UNL1       -0.0789
     28 C          -8.4249    6.5911    4.2397 C.3     1  UNL1       -0.0162
     29 C          -7.7033    7.7457    3.5753 C.2     1  UNL1       -0.0836
     30 C          -6.7325    7.5638    2.6563 C.2     1  UNL1       -0.0790
     31 H          -1.2029    1.9264   -0.7391 H       1  UNL1        0.0624
     32 H           1.2038    2.0781   -0.5137 H       1  UNL1        0.0618
     33 H           2.5487    0.0731    0.0572 H       1  UNL1        0.0618
     34 H           1.4232   -2.0685    0.4821 H       1  UNL1        0.0621
     35 H          -2.1209   -2.6172    1.0121 H       1  UNL1        0.0607
     36 H          -0.4879   -3.1553    1.2833 H       1  UNL1        0.0607
     37 H          -0.8993   -3.0056   -1.3699 H       1  UNL1        0.2098
     38 H          -3.1430    1.9089    0.1807 H       1  UNL1        0.0631
     39 H          -3.1257   -2.2284   -1.0182 H       1  UNL1        0.0624
     40 H          -5.5254   -2.2191   -1.0359 H       1  UNL1        0.0639
     41 H          -9.4486   -0.1303   -0.8184 H       1  UNL1        0.1452
     42 H          -9.6004    1.5890   -0.7318 H       1  UNL1        0.1452
     43 H          -6.3076    6.4283    0.1333 H       1  UNL1        0.0474
     44 H          -4.7058    6.0060    0.7811 H       1  UNL1        0.0474
     45 H          -7.1923    3.1040    1.9660 H       1  UNL1        0.0511
     46 H          -8.1746    4.1250    0.8341 H       1  UNL1        0.0511
     47 H          -5.4469    5.9140    3.0043 H       1  UNL1        0.0404
     48 H          -9.1384    4.5927    3.5358 H       1  UNL1        0.0575
     49 H          -8.0093    6.4098    5.2375 H       1  UNL1        0.0350
     50 H          -9.4799    6.8589    4.3612 H       1  UNL1        0.0350
     51 H          -8.0046    8.7475    3.8669 H       1  UNL1        0.0572
     52 H          -6.2349    8.4164    2.2060 H       1  UNL1        0.0576
@<TRIPOS>BOND
     1     1     2   ar
     2     2     3   ar
     3     3     4   ar
     4     4     5   ar
     5     5     6    1
     6     6     7    1
     7     5     8   ar
     8     1     8   ar
     9     8     9    1
    10     9    10   ar
    11     9    11   ar
    12    11    12   ar
    13    12    13   ar
    14    13    14   ar
    15    10    14   ar
    16    13    15   ar
    17    15    16   ar
    18    16    17    1
    19    16    18   ar
    20    18    19   ar
    21    14    19   ar
    22    19    20    1
    23    20    21    2
    24    20    22   am
    25    22    23    1
    26    22    24    1
    27    24    25    1
    28    25    26    1
    29    23    26    1
    30    25    27    2
    31    27    28    1
    32    28    29    1
    33    29    30    2
    34    26    30    1
    35     1    31    1
    36     2    32    1
    37     3    33    1
    38     4    34    1
    39     6    35    1
    40     6    36    1
    41     7    37    1
    42    10    38    1
    43    11    39    1
    44    12    40    1
    45    17    41    1
    46    17    42    1
    47    23    43    1
    48    23    44    1
    49    24    45    1
    50    24    46    1
    51    26    47    1
    52    27    48    1
    53    28    49    1
    54    28    50    1
    55    29    51    1
    56    30    52    1
@<TRIPOS>MOLECULE
*****
 53 55 0 0 0
SMALL
GASTEIGER

@<TRIPOS>ATOM
      1 O           0.8654    0.0177    0.0294 O.3     1  UNL1       -0.3882
      2 C           2.2982   -0.0469    0.0256 C.3     1  UNL1        0.0713
      3 C           2.7281   -0.9087    1.2205 C.3     1  UNL1       -0.0354
      4 C           2.7302   -0.7099   -1.2894 C.3     1  UNL1       -0.0354
      5 C           2.8343    1.4009    0.1404 C.3     1  UNL1        0.0378
      6 C           4.3543    1.4009    0.1404 C.1     1  UNL1       -0.0941
      7 C           5.6581    1.4009    0.1404 C.1     1  UNL1       -0.0640
      8 C           7.0807    1.4440    0.1740 C.ar    1  UNL1        0.0546
      9 C           7.8888    0.3288    0.2065 C.ar    1  UNL1        0.0230
     10 N           9.1986    0.7546    0.2261 N.ar    1  UNL1       -0.3247
     11 C           9.2270    2.1270    0.1554 C.ar    1  UNL1        0.1488
     12 C           7.9160    2.5900    0.1574 C.ar    1  UNL1        0.0711
     13 N          10.3249    2.8971    0.0877 N.ar    1  UNL1       -0.1965
     14 C          10.0629    4.2089    0.0238 C.ar    1  UNL1        0.2158
     15 N          11.1443    5.0650   -0.0513 N.pl3   1  UNL1       -0.3274
     16 N           8.8600    4.7826    0.0622 N.ar    1  UNL1       -0.2023
     17 C           7.7965    3.9706    0.1208 C.ar    1  UNL1        0.1447
     18 CL          6.2617    4.6961    0.1568 Cl      1  UNL1       -0.0611
     19 C          10.3529   -0.1357    0.1587 C.3     1  UNL1        0.0671
     20 C          10.8164   -0.6275    1.5122 C.ar    1  UNL1        0.0673
     21 C          11.8331   -0.0215    2.2645 C.ar    1  UNL1        0.0145
     22 C          12.5412    1.2307    1.8084 C.3     1  UNL1       -0.0345
     23 C          12.2348   -0.6082    3.5043 C.ar    1  UNL1        0.1291
     24 C          11.6205   -1.7861    3.9410 C.ar    1  UNL1        0.0095
     25 C          10.6233   -2.2984    3.1066 C.ar    1  UNL1        0.0343
     26 N          10.2118   -1.7631    1.9370 N.ar    1  UNL1       -0.2573
     27 C          11.8833   -2.6082    5.1668 C.3     1  UNL1       -0.0348
     28 O          13.2322    0.1172    4.0984 O.3     1  UNL1       -0.4945
     29 C          13.8054   -0.2307    5.3392 C.3     1  UNL1        0.0788
     30 H           0.5278   -0.8921   -0.0462 H       1  UNL1        0.2102
     31 H           2.2803   -1.9075    1.1632 H       1  UNL1        0.0257
     32 H           2.3819   -0.4669    2.1615 H       1  UNL1        0.0257
     33 H           3.8145   -1.0328    1.2742 H       1  UNL1        0.0257
     34 H           2.2806   -1.7041   -1.3922 H       1  UNL1        0.0257
     35 H           3.8167   -0.8264   -1.3602 H       1  UNL1        0.0257
     36 H           2.3868   -0.1247   -2.1494 H       1  UNL1        0.0257
     37 H           2.4659    1.8719    1.0596 H       1  UNL1        0.0425
     38 H           2.4659    2.0113   -0.6926 H       1  UNL1        0.0425
     39 H           7.6474   -0.7277    0.2116 H       1  UNL1        0.0822
     40 H          11.9643    4.6385    0.3537 H       1  UNL1        0.1452
     41 H          10.8800    5.9809    0.2840 H       1  UNL1        0.1452
     42 H          11.1442    0.3435   -0.4239 H       1  UNL1        0.0557
     43 H          10.0388   -1.0020   -0.4411 H       1  UNL1        0.0557
     44 H          12.2606    1.5512    0.8085 H       1  UNL1        0.0279
     45 H          13.6222    1.0591    1.7691 H       1  UNL1        0.0279
     46 H          12.3265    2.0556    2.4958 H       1  UNL1        0.0279
     47 H          10.1034   -3.2189    3.3705 H       1  UNL1        0.0833
     48 H          12.6259   -2.2241    5.8567 H       1  UNL1        0.0279
     49 H          12.2227   -3.6082    4.8731 H       1  UNL1        0.0279
     50 H          10.9585   -2.7136    5.7462 H       1  UNL1        0.0279
     51 H          14.5528    0.5312    5.5839 H       1  UNL1        0.0660
     52 H          14.3377   -1.1837    5.2722 H       1  UNL1        0.0660
     53 H          13.0605   -0.2100    6.1396 H       1  UNL1        0.0660
@<TRIPOS>BOND
     1     1     2    1
     2     2     3    1
     3     2     4    1
     4     2     5    1
     5     5     6    1
     6     6     7    3
     7     7     8    1
     8     8     9   ar
     9     9    10   ar
    10    10    11   ar
    11    11    12   ar
    12     8    12   ar
    13    11    13   ar
    14    13    14   ar
    15    14    15    1
    16    14    16   ar
    17    16    17   ar
    18    12    17   ar
    19    17    18    1
    20    10    19    1
    21    19    20    1
    22    20    21   ar
    23    21    22    1
    24    21    23   ar
    25    23    24   ar
    26    24    25   ar
    27    25    26   ar
    28    20    26   ar
    29    24    27    1
    30    23    28    1
    31    28    29    1
    32     1    30    1
    33     3    31    1
    34     3    32    1
    35     3    33    1
    36     4    34    1
    37     4    35    1
    38     4    36    1
    39     5    37    1
    40     5    38    1
    41     9    39    1
    42    15    40    1
    43    15    41    1
    44    19    42    1
    45    19    43    1
    46    22    44    1
    47    22    45    1
    48    22    46    1
    49    25    47    1
    50    27    48    1
    51    27    49    1
    52    27    50    1
    53    29    51    1
    54    29    52    1
    55    29    53    1
@<TRIPOS>MOLECULE
*****
 40 42 0 0 0
SMALL
GASTEIGER

@<TRIPOS>ATOM
      1 C           0.0321   -1.9516    0.2221 C.3     1  UNL1       -0.0215
      2 C           1.3981   -2.0555   -0.3904 C.ar    1  UNL1        0.0525
      3 N           1.4517   -2.0701   -1.7467 N.ar    1  UNL1       -0.2192
      4 C           2.6346   -2.2086   -2.3507 C.ar    1  UNL1        0.2147
      5 N           2.5877   -2.1892   -3.7359 N.pl3   1  UNL1       -0.3274
      6 N           3.8259   -2.3758   -1.7625 N.ar    1  UNL1       -0.1966
      7 C           3.7774   -2.2940   -0.4228 C.ar    1  UNL1        0.1464
      8 C           2.6074   -2.1418    0.3232 C.ar    1  UNL1        0.0400
      9 N           4.8489   -2.3694    0.4565 N.ar    1  UNL1       -0.3259
     10 C           4.3546   -2.2771    1.7448 C.ar    1  UNL1        0.0076
     11 C           2.9818   -2.1549    1.6903 C.ar    1  UNL1       -0.0331
     12 C           6.2206   -2.8122    0.1441 C.3     1  UNL1        0.0670
     13 C           7.2951   -1.7401   -0.0109 C.ar    1  UNL1        0.0641
     14 C           7.3197   -0.8176   -1.0634 C.ar    1  UNL1       -0.0242
     15 C           6.3812   -0.9509   -2.2302 C.3     1  UNL1       -0.0377
     16 C           8.2861    0.2159   -1.0703 C.ar    1  UNL1       -0.0414
     17 C           8.1231    1.4086   -1.9769 C.3     1  UNL1       -0.0391
     18 C           9.3982    0.1085   -0.2267 C.ar    1  UNL1       -0.0292
     19 C           9.3817   -0.9372    0.6891 C.ar    1  UNL1        0.0311
     20 N           8.3434   -1.8052    0.8554 N.ar    1  UNL1       -0.2575
     21 C          10.6044    1.0020   -0.3334 C.3     1  UNL1       -0.0380
     22 H          -0.7423   -1.9445   -0.5520 H       1  UNL1        0.0293
     23 H          -0.0659   -1.0257    0.7952 H       1  UNL1        0.0293
     24 H          -0.1562   -2.8066    0.8776 H       1  UNL1        0.0293
     25 H           1.6597   -2.4463   -4.0338 H       1  UNL1        0.1452
     26 H           3.3612   -2.7256   -4.1026 H       1  UNL1        0.1452
     27 H           5.0179   -2.3521    2.5973 H       1  UNL1        0.0810
     28 H           2.3143   -2.1077    2.5431 H       1  UNL1        0.0640
     29 H           6.1741   -3.4560   -0.7379 H       1  UNL1        0.0557
     30 H           6.5026   -3.4625    0.9833 H       1  UNL1        0.0557
     31 H           6.1752   -2.0056   -2.4357 H       1  UNL1        0.0278
     32 H           6.8508   -0.5926   -3.1530 H       1  UNL1        0.0278
     33 H           5.4634   -0.3897   -2.0536 H       1  UNL1        0.0278
     34 H           7.0910    1.5137   -2.3252 H       1  UNL1        0.0278
     35 H           8.7874    1.3410   -2.8415 H       1  UNL1        0.0278
     36 H           8.3248    2.3305   -1.4197 H       1  UNL1        0.0278
     37 H          10.2338   -1.1143    1.3428 H       1  UNL1        0.0832
     38 H          10.4309    1.8809   -0.9623 H       1  UNL1        0.0278
     39 H          11.4431    0.4556   -0.7805 H       1  UNL1        0.0278
     40 H          10.9058    1.3737    0.6505 H       1  UNL1        0.0278
@<TRIPOS>BOND
     1     1     2    1
     2     2     3   ar
     3     3     4   ar
     4     4     5    1
     5     4     6   ar
     6     6     7   ar
     7     7     8   ar
     8     2     8   ar
     9     7     9   ar
    10     9    10   ar
    11    10    11   ar
    12     8    11   ar
    13     9    12    1
    14    12    13    1
    15    13    14   ar
    16    14    15    1
    17    14    16   ar
    18    16    17    1
    19    16    18   ar
    20    18    19   ar
    21    19    20   ar
    22    13    20   ar
    23    18    21    1
    24     1    22    1
    25     1    23    1
    26     1    24    1
    27     5    25    1
    28     5    26    1
    29    10    27    1
    30    11    28    1
    31    12    29    1
    32    12    30    1
    33    15    31    1
    34    15    32    1
    35    15    33    1
    36    17    34    1
    37    17    35    1
    38    17    36    1
    39    19    37    1
    40    21    38    1
    41    21    39    1
    42    21    40    1
@<TRIPOS>MOLECULE
*****
 51 53 0 0 0
SMALL
GASTEIGER

@<TRIPOS>ATOM
      1 N           1.0924    0.1193   -0.0540 N.ar    1  UNL1       -0.1822
      2 C           1.9141    0.0421   -1.1263 C.ar    1  UNL1        0.3127
      3 F           3.2200    0.2214   -0.8755 F       1  UNL1       -0.1610
      4 N           1.5861   -0.2304   -2.4069 N.ar    1  UNL1       -0.1852
      5 C           0.2854   -0.4193   -2.7074 C.ar    1  UNL1        0.1500
      6 N          -0.0829   -0.7607   -3.9984 N.pl3   1  UNL1       -0.3412
      7 C          -0.6535   -0.3583   -1.6713 C.ar    1  UNL1        0.1477
      8 C          -0.1865   -0.1037   -0.3991 C.ar    1  UNL1        0.1684
      9 N          -1.9934   -0.6097   -1.6641 N.ar    1  UNL1       -0.2268
     10 C          -2.3374   -0.6201   -0.3863 C.ar    1  UNL1        0.1164
     11 N          -1.2920   -0.1880    0.4128 N.ar    1  UNL1       -0.3120
     12 C          -1.2625   -0.0148    1.8526 C.3     1  UNL1        0.0272
     13 C          -0.7853    1.3673    2.3275 C.3     1  UNL1       -0.0240
     14 C          -1.6295    2.5392    1.8296 C.3     1  UNL1        0.0105
     15 C          -3.0093    2.4787    2.3302 C.1     1  UNL1       -0.1055
     16 C          -4.1357    2.4202    2.7457 C.1     1  UNL1       -0.1192
     17 C          -3.6147   -1.2325    0.0668 C.3     1  UNL1        0.0325
     18 C          -3.5950   -2.7606    0.1136 C.ar    1  UNL1       -0.0146
     19 C          -4.7754   -3.4655    0.3932 C.ar    1  UNL1        0.0900
     20 CL         -6.2905   -2.6556    0.1144 Cl      1  UNL1       -0.0793
     21 C          -4.7285   -4.8284    0.7391 C.ar    1  UNL1        0.1838
     22 O          -5.8249   -5.5208    1.2153 O.3     1  UNL1       -0.4900
     23 C          -6.5170   -4.8698    2.2860 C.3     1  UNL1        0.0790
     24 C          -3.5342   -5.5674    0.5342 C.ar    1  UNL1        0.2050
     25 O          -3.6015   -6.8986    0.8835 O.3     1  UNL1       -0.4885
     26 C          -2.7701   -7.8174    0.1824 C.3     1  UNL1        0.0791
     27 C          -2.3845   -4.9069    0.0588 C.ar    1  UNL1        0.1655
     28 C          -2.4194   -3.5129   -0.0811 C.ar    1  UNL1       -0.0111
     29 O          -1.2528   -5.6367   -0.1985 O.3     1  UNL1       -0.4913
     30 C          -0.1754   -5.0092   -0.8899 C.3     1  UNL1        0.0790
     31 H           0.6602   -1.2169   -4.5103 H       1  UNL1        0.1438
     32 H          -1.0036   -1.1957   -4.0381 H       1  UNL1        0.1438
     33 H          -0.5906   -0.7862    2.2495 H       1  UNL1        0.0493
     34 H          -2.2548   -0.2252    2.2583 H       1  UNL1        0.0493
     35 H           0.2540    1.5332    2.0148 H       1  UNL1        0.0291
     36 H          -0.7695    1.3687    3.4278 H       1  UNL1        0.0291
     37 H          -1.6257    2.5717    0.7352 H       1  UNL1        0.0398
     38 H          -1.1709    3.4808    2.1607 H       1  UNL1        0.0398
     39 H          -5.1339    2.3725    3.1146 H       1  UNL1        0.1228
     40 H          -4.3770   -0.9095   -0.6499 H       1  UNL1        0.0392
     41 H          -3.9130   -0.8564    1.0526 H       1  UNL1        0.0392
     42 H          -7.0900   -5.6223    2.8346 H       1  UNL1        0.0660
     43 H          -7.2566   -4.1610    1.9074 H       1  UNL1        0.0660
     44 H          -5.8376   -4.3745    2.9900 H       1  UNL1        0.0660
     45 H          -3.1330   -8.8272    0.4002 H       1  UNL1        0.0660
     46 H          -1.7367   -7.7811    0.5409 H       1  UNL1        0.0660
     47 H          -2.8289   -7.6726   -0.9017 H       1  UNL1        0.0660
     48 H          -1.5113   -2.9959   -0.3683 H       1  UNL1        0.0659
     49 H           0.5283   -5.7894   -1.1979 H       1  UNL1        0.0660
     50 H           0.3578   -4.3261   -0.2212 H       1  UNL1        0.0660
     51 H          -0.5085   -4.4943   -1.7983 H       1  UNL1        0.0660
@<TRIPOS>BOND
     1     1     2   ar
     2     2     3    1
     3     2     4   ar
     4     4     5   ar
     5     5     6    1
     6     5     7   ar
     7     7     8   ar
     8     1     8   ar
     9     7     9   ar
    10     9    10   ar
    11    10    11   ar
    12     8    11   ar
    13    11    12    1
    14    12    13    1
    15    13    14    1
    16    14    15    1
    17    15    16    3
    18    10    17    1
    19    17    18    1
    20    18    19   ar
    21    19    20    1
    22    19    21   ar
    23    21    22    1
    24    22    23    1
    25    21    24   ar
    26    24    25    1
    27    25    26    1
    28    24    27   ar
    29    27    28   ar
    30    18    28   ar
    31    27    29    1
    32    29    30    1
    33     6    31    1
    34     6    32    1
    35    12    33    1
    36    12    34    1
    37    13    35    1
    38    13    36    1
    39    14    37    1
    40    14    38    1
    41    16    39    1
    42    17    40    1
    43    17    41    1
    44    23    42    1
    45    23    43    1
    46    23    44    1
    47    26    45    1
    48    26    46    1
    49    26    47    1
    50    28    48    1
    51    30    49    1
    52    30    50    1
    53    30    51    1
@<TRIPOS>MOLECULE
*****
 59 62 0 0 0
SMALL
GASTEIGER

@<TRIPOS>ATOM
      1 N          10.2149    4.2880    5.4973 N.1     1  UNL1       -0.1907
      2 C          10.4308    4.3365    4.3587 C.1     1  UNL1        0.1028
      3 C          10.6848    4.3708    2.9414 C.ar    1  UNL1        0.0938
      4 C           9.6427    4.7919    2.0731 C.ar    1  UNL1       -0.0314
      5 C          11.9136    3.9725    2.4139 C.ar    1  UNL1        0.1361
      6 O          12.9805    3.5597    3.1591 O.3     1  UNL1       -0.5054
      7 C          12.1213    3.9623    1.0323 C.ar    1  UNL1        0.0050
      8 C          11.0729    4.3566    0.1997 C.ar    1  UNL1        0.0503
      9 C           9.8242    4.7888    0.6668 C.ar    1  UNL1        0.0043
     10 N          11.0249    4.3830   -1.1743 N.ar    1  UNL1       -0.3603
     11 H          11.7848    4.0822   -1.7769 H       1  UNL1        0.1653
     12 C           9.7947    4.8094   -1.5990 C.ar    1  UNL1        0.0059
     13 C           9.0132    5.0960   -0.4943 C.ar    1  UNL1       -0.0223
     14 C           7.5728    5.5196   -0.5820 C.3     1  UNL1       -0.0255
     15 C           7.3319    7.0214   -0.8725 C.3     1  UNL1       -0.0442
     16 C           5.8522    7.3962   -1.2084 C.3     1  UNL1       -0.0122
     17 C           4.9656    7.0073   -0.0427 C.3     1  UNL1       -0.0315
     18 N           3.4670    7.2304   -0.1621 N.4     1  UNL1        0.2427
     19 H           3.3078    8.2539   -0.1589 H       1  UNL1        0.2038
     20 C           2.7939    6.6579    1.1070 C.3     1  UNL1        0.0095
     21 C           2.9463    5.1112    1.1343 C.3     1  UNL1        0.0103
     22 N           2.4585    4.4699   -0.1703 N.4     1  UNL1        0.2505
     23 H           2.9289    3.5500   -0.1589 H       1  UNL1        0.2047
     24 C           2.9077    5.1450   -1.4712 C.3     1  UNL1        0.0103
     25 C           2.7467    6.6761   -1.3908 C.3     1  UNL1        0.0095
     26 C           0.9931    4.1047   -0.2450 C.3     1  UNL1        0.0173
     27 C           0.2559    4.4148    1.0345 C.2     1  UNL1       -0.0347
     28 C          -0.3620    3.4827    1.7666 C.2     1  UNL1       -0.0619
     29 C          -0.5246    2.0985    1.2440 C.3     1  UNL1        0.0828
     30 C          -0.5885    1.0389    2.3319 C.1     1  UNL1        0.0741
     31 N          -0.6415    0.1599    3.2345 N.1     1  UNL1       -0.1956
     32 C           0.3190    1.7158    0.0707 C.2     1  UNL1       -0.0619
     33 C           0.9427    2.6465   -0.6474 C.2     1  UNL1       -0.0347
     34 H           8.6947    5.1034    2.4983 H       1  UNL1        0.0638
     35 H          12.8247    3.6322    4.1162 H       1  UNL1        0.2922
     36 H          13.0758    3.6371    0.6278 H       1  UNL1        0.0675
     37 H           9.5792    4.8502   -2.6587 H       1  UNL1        0.0810
     38 H           7.0713    5.2207    0.3452 H       1  UNL1        0.0314
     39 H           7.1035    4.9364   -1.3859 H       1  UNL1        0.0314
     40 H           7.9632    7.3456   -1.7075 H       1  UNL1        0.0270
     41 H           7.6482    7.6015    0.0039 H       1  UNL1        0.0270
     42 H           5.5480    6.8856   -2.1294 H       1  UNL1        0.0317
     43 H           5.7805    8.4740   -1.3945 H       1  UNL1        0.0317
     44 H           5.0932    5.9401    0.1053 H       1  UNL1        0.0814
     45 H           5.2728    7.5341    0.8648 H       1  UNL1        0.0814
     46 H           1.7452    6.9687    1.0712 H       1  UNL1        0.0868
     47 H           3.2671    7.1282    1.9737 H       1  UNL1        0.0868
     48 H           2.4448    4.6498    1.9894 H       1  UNL1        0.0868
     49 H           3.9919    4.8084    1.2374 H       1  UNL1        0.0868
     50 H           2.3167    4.7259   -2.2958 H       1  UNL1        0.0868
     51 H           3.9506    4.8578   -1.6271 H       1  UNL1        0.0868
     52 H           1.6860    6.9383   -1.2689 H       1  UNL1        0.0868
     53 H           3.1222    7.1926   -2.2763 H       1  UNL1        0.0868
     54 H           0.5251    4.7018   -1.0329 H       1  UNL1        0.0946
     55 H           0.1828    5.4389    1.3848 H       1  UNL1        0.0629
     56 H          -0.8872    3.7448    2.6853 H       1  UNL1        0.0587
     57 H          -1.5549    2.0834    0.8495 H       1  UNL1        0.0541
     58 H           0.2960    0.6783   -0.2520 H       1  UNL1        0.0587
     59 H           1.4453    2.3305   -1.5649 H       1  UNL1        0.0629
@<TRIPOS>BOND
     1     1     2    3
     2     2     3    1
     3     3     4   ar
     4     3     5   ar
     5     5     6    1
     6     5     7   ar
     7     7     8   ar
     8     8     9   ar
     9     4     9   ar
    10     8    10   ar
    11    10    11    1
    12    10    12   ar
    13    12    13   ar
    14     9    13   ar
    15    13    14    1
    16    14    15    1
    17    15    16    1
    18    16    17    1
    19    17    18    1
    20    18    19    1
    21    18    20    1
    22    20    21    1
    23    21    22    1
    24    22    24    1
    25    24    25    1
    26    18    25    1
    27    26    27    1
    28    27    28    2
    29    28    29    1
    30    29    30    1
    31    30    31    3
    32    29    32    1
    33    32    33    2
    34    26    33    1
    35    22    26    1
    36    22    23    1
    37     4    34    1
    38     6    35    1
    39     7    36    1
    40    12    37    1
    41    14    38    1
    42    14    39    1
    43    15    40    1
    44    15    41    1
    45    16    42    1
    46    16    43    1
    47    17    44    1
    48    17    45    1
    49    20    46    1
    50    20    47    1
    51    21    48    1
    52    21    49    1
    53    24    50    1
    54    24    51    1
    55    25    52    1
    56    25    53    1
    57    26    54    1
    58    27    55    1
    59    28    56    1
    60    29    57    1
    61    32    58    1
    62    33    59    1
@<TRIPOS>MOLECULE
*****
 55 58 0 0 0
SMALL
GASTEIGER

@<TRIPOS>ATOM
      1 C           1.0005    0.2795   -4.3337 C.3     1  UNL1       -0.0649
      2 C           2.5127    0.3344   -4.1863 C.3     1  UNL1       -0.0504
      3 C           2.9636   -0.1463   -2.8045 C.3     1  UNL1       -0.0083
      4 C           4.4467   -0.0843   -2.6285 C.ar    1  UNL1        0.0705
      5 N           5.0767    1.0986   -2.7223 N.ar    1  UNL1       -0.1777
      6 N           6.3555    0.8093   -2.4449 N.ar    1  UNL1       -0.2766
      7 H           7.0302    1.5665   -2.4451 H       1  UNL1        0.1889
      8 C           5.3469   -1.1306   -2.2909 C.ar    1  UNL1        0.0236
      9 C           6.5783   -0.5056   -2.1328 C.ar    1  UNL1        0.0695
     10 C           5.2726   -2.5211   -2.0547 C.ar    1  UNL1       -0.0351
     11 C           6.4050   -3.2385   -1.5945 C.ar    1  UNL1        0.0793
     12 C           7.5849   -2.5266   -1.3489 C.ar    1  UNL1        0.1310
     13 C           7.7200   -1.1701   -1.6868 C.ar    1  UNL1        0.0060
     14 O           8.6591   -3.0441   -0.6757 O.3     1  UNL1       -0.5059
     15 C           6.1498   -4.6775   -1.2726 C.2     1  UNL1        0.2541
     16 O           5.0562   -4.8741   -0.7315 O.2     1  UNL1       -0.2695
     17 N           7.0642   -5.7183   -1.5534 N.am    1  UNL1       -0.2704
     18 C           8.4292   -5.5225   -2.0449 C.3     1  UNL1        0.0086
     19 C           6.6667   -7.0907   -1.3309 C.ar    1  UNL1        0.0364
     20 C           5.3555   -7.5178   -1.5678 C.ar    1  UNL1       -0.0385
     21 C           4.9615   -8.8472   -1.3413 C.ar    1  UNL1       -0.0389
     22 C           5.8543   -9.8069   -0.8601 C.ar    1  UNL1        0.0299
     23 C           7.1749   -9.3786   -0.6605 C.ar    1  UNL1       -0.0389
     24 C           7.5821   -8.0559   -0.9024 C.ar    1  UNL1       -0.0385
     25 N           5.5001  -11.1224   -0.6476 N.pl3   1  UNL1       -0.3255
     26 C           4.3289  -11.7489   -1.2787 C.3     1  UNL1        0.0357
     27 C           4.6838  -13.2134   -1.6025 C.3     1  UNL1        0.0634
     28 O           5.1186  -13.9358   -0.4354 O.3     1  UNL1       -0.3767
     29 C           6.2651  -13.2958    0.1555 C.3     1  UNL1        0.0634
     30 C           5.9506  -11.8458    0.5544 C.3     1  UNL1        0.0357
     31 H           0.7069    0.6309   -5.3285 H       1  UNL1        0.0230
     32 H           0.5096    0.9181   -3.5917 H       1  UNL1        0.0230
     33 H           0.6291   -0.7416   -4.2098 H       1  UNL1        0.0230
     34 H           2.8454    1.3653   -4.3550 H       1  UNL1        0.0266
     35 H           2.9772   -0.2823   -4.9637 H       1  UNL1        0.0266
     36 H           2.6105   -1.1701   -2.6401 H       1  UNL1        0.0329
     37 H           2.4951    0.4736   -2.0269 H       1  UNL1        0.0329
     38 H           4.3159   -3.0291   -2.1705 H       1  UNL1        0.0633
     39 H           8.6568   -0.6477   -1.5222 H       1  UNL1        0.0675
     40 H           8.3073   -3.5882    0.0524 H       1  UNL1        0.2922
     41 H           8.4981   -4.6368   -2.6763 H       1  UNL1        0.0433
     42 H           8.7512   -6.3726   -2.6564 H       1  UNL1        0.0433
     43 H           9.1020   -5.4339   -1.1850 H       1  UNL1        0.0433
     44 H           4.6096   -6.8329   -1.9629 H       1  UNL1        0.0637
     45 H           3.9225   -9.1004   -1.5327 H       1  UNL1        0.0637
     46 H           7.9314  -10.0909   -0.3414 H       1  UNL1        0.0637
     47 H           8.6209   -7.8066   -0.7101 H       1  UNL1        0.0637
     48 H           4.0430  -11.2536   -2.2125 H       1  UNL1        0.0486
     49 H           3.4782  -11.7107   -0.5873 H       1  UNL1        0.0486
     50 H           5.4781  -13.2567   -2.3581 H       1  UNL1        0.0575
     51 H           3.8091  -13.7307   -2.0077 H       1  UNL1        0.0575
     52 H           7.0994  -13.3301   -0.5561 H       1  UNL1        0.0575
     53 H           6.5517  -13.8757    1.0379 H       1  UNL1        0.0575
     54 H           6.8262  -11.3983    1.0334 H       1  UNL1        0.0486
     55 H           5.1373  -11.8391    1.2928 H       1  UNL1        0.0486
@<TRIPOS>BOND
     1     1     2    1
     2     2     3    1
     3     3     4    1
     4     4     5   ar
     5     5     6   ar
     6     6     7    1
     7     4     8   ar
     8     8     9   ar
     9     6     9   ar
    10     8    10   ar
    11    10    11   ar
    12    11    12   ar
    13    12    13   ar
    14     9    13   ar
    15    12    14    1
    16    11    15    1
    17    15    16    2
    18    15    17   am
    19    17    18    1
    20    17    19    1
    21    19    20   ar
    22    20    21   ar
    23    21    22   ar
    24    22    23   ar
    25    23    24   ar
    26    19    24   ar
    27    22    25    1
    28    25    26    1
    29    26    27    1
    30    27    28    1
    31    28    29    1
    32    29    30    1
    33    25    30    1
    34     1    31    1
    35     1    32    1
    36     1    33    1
    37     2    34    1
    38     2    35    1
    39     3    36    1
    40     3    37    1
    41    10    38    1
    42    13    39    1
    43    14    40    1
    44    18    41    1
    45    18    42    1
    46    18    43    1
    47    20    44    1
    48    21    45    1
    49    23    46    1
    50    24    47    1
    51    26    48    1
    52    26    49    1
    53    27    50    1
    54    27    51    1
    55    29    52    1
    56    29    53    1
    57    30    54    1
    58    30    55    1
@<TRIPOS>MOLECULE
*****
 58 61 0 0 0
SMALL
GASTEIGER

@<TRIPOS>ATOM
      1 C           7.5604    1.2709   -2.7810 C.3     1  UNL1       -0.0653
      2 C           6.6548    0.7633   -1.6688 C.3     1  UNL1       -0.0556
      3 C           6.7452    1.6600   -0.4336 C.3     1  UNL1       -0.0478
      4 C           5.8478    1.1612    0.7027 C.3     1  UNL1       -0.0081
      5 C           5.8685    2.0634    1.8979 C.ar    1  UNL1        0.0705
      6 N           5.4669    3.3359    1.7607 N.ar    1  UNL1       -0.1777
      7 N           5.5198    3.8311    3.0046 N.ar    1  UNL1       -0.2766
      8 H           5.2472    4.7967    3.1466 H       1  UNL1        0.1889
      9 C           6.1936    1.7574    3.2542 C.ar    1  UNL1        0.0236
     10 C           5.8914    2.9188    3.9533 C.ar    1  UNL1        0.0695
     11 C           6.6556    0.6401    3.9845 C.ar    1  UNL1       -0.0351
     12 C           6.7311    0.6825    5.4019 C.ar    1  UNL1        0.0793
     13 C           6.2777    1.8390    6.0480 C.ar    1  UNL1        0.1310
     14 C           5.9386    3.0033    5.3457 C.ar    1  UNL1        0.0060
     15 O           6.0406    1.9118    7.3945 O.3     1  UNL1       -0.5059
     16 C           7.1525   -0.5964    6.0686 C.2     1  UNL1        0.2541
     17 O           6.6511   -1.5988    5.5487 O.2     1  UNL1       -0.2695
     18 N           8.0427   -0.6523    7.1771 N.am    1  UNL1       -0.2704
     19 C           8.4711    0.5300    7.9256 C.3     1  UNL1        0.0086
     20 C           8.5542   -1.9317    7.6566 C.ar    1  UNL1        0.0364
     21 C           8.6641   -3.0362    6.8089 C.ar    1  UNL1       -0.0385
     22 C           9.1326   -4.2796    7.2694 C.ar    1  UNL1       -0.0389
     23 C           9.5176   -4.4940    8.5940 C.ar    1  UNL1        0.0299
     24 C           9.4906   -3.3739    9.4285 C.ar    1  UNL1       -0.0389
     25 C           9.0120   -2.1204    8.9733 C.ar    1  UNL1       -0.0385
     26 N           9.8923   -5.7562    9.0075 N.pl3   1  UNL1       -0.3255
     27 C          10.8552   -6.0470   10.0797 C.3     1  UNL1        0.0357
     28 C          10.1810   -6.7896   11.2460 C.3     1  UNL1        0.0634
     29 O           9.4580   -7.9510   10.8027 O.3     1  UNL1       -0.3767
     30 C           8.4499   -7.5707    9.8525 C.3     1  UNL1        0.0634
     31 C           9.0702   -6.9144    8.6090 C.3     1  UNL1        0.0357
     32 H           7.4890    0.6211   -3.6587 H       1  UNL1        0.0230
     33 H           8.6055    1.2900   -2.4556 H       1  UNL1        0.0230
     34 H           7.2779    2.2842   -3.0850 H       1  UNL1        0.0230
     35 H           6.9399   -0.2626   -1.4097 H       1  UNL1        0.0263
     36 H           5.6214    0.7316   -2.0341 H       1  UNL1        0.0263
     37 H           6.4603    2.6816   -0.7163 H       1  UNL1        0.0269
     38 H           7.7840    1.7070   -0.0843 H       1  UNL1        0.0269
     39 H           6.1473    0.1472    0.9916 H       1  UNL1        0.0329
     40 H           4.8120    1.0882    0.3438 H       1  UNL1        0.0329
     41 H           6.9058   -0.2768    3.4550 H       1  UNL1        0.0633
     42 H           5.6352    3.9035    5.8703 H       1  UNL1        0.0675
     43 H           5.6264    1.0663    7.6565 H       1  UNL1        0.2922
     44 H           8.5076    1.4154    7.2912 H       1  UNL1        0.0433
     45 H           9.4812    0.4024    8.3265 H       1  UNL1        0.0433
     46 H           7.7717    0.6848    8.7542 H       1  UNL1        0.0433
     47 H           8.4240   -2.9673    5.7538 H       1  UNL1        0.0637
     48 H           9.2103   -5.0858    6.5451 H       1  UNL1        0.0637
     49 H           9.7911   -3.4583   10.4692 H       1  UNL1        0.0637
     50 H           8.9750   -1.3166    9.7035 H       1  UNL1        0.0637
     51 H          11.3761   -5.1551   10.4413 H       1  UNL1        0.0486
     52 H          11.6219   -6.7074    9.6525 H       1  UNL1        0.0486
     53 H           9.4937   -6.1312   11.7886 H       1  UNL1        0.0575
     54 H          10.9420   -7.1351   11.9536 H       1  UNL1        0.0575
     55 H           7.7373   -6.8953   10.3418 H       1  UNL1        0.0575
     56 H           7.9061   -8.4751    9.5622 H       1  UNL1        0.0575
     57 H           8.2595   -6.6490    7.9215 H       1  UNL1        0.0486
     58 H           9.7196   -7.6345    8.0978 H       1  UNL1        0.0486
@<TRIPOS>BOND
     1     1     2    1
     2     2     3    1
     3     3     4    1
     4     4     5    1
     5     5     6   ar
     6     6     7   ar
     7     7     8    1
     8     5     9   ar
     9     9    10   ar
    10     7    10   ar
    11     9    11   ar
    12    11    12   ar
    13    12    13   ar
    14    13    14   ar
    15    10    14   ar
    16    13    15    1
    17    12    16    1
    18    16    17    2
    19    16    18   am
    20    18    19    1
    21    18    20    1
    22    20    21   ar
    23    21    22   ar
    24    22    23   ar
    25    23    24   ar
    26    24    25   ar
    27    20    25   ar
    28    23    26    1
    29    26    27    1
    30    27    28    1
    31    28    29    1
    32    29    30    1
    33    30    31    1
    34    26    31    1
    35     1    32    1
    36     1    33    1
    37     1    34    1
    38     2    35    1
    39     2    36    1
    40     3    37    1
    41     3    38    1
    42     4    39    1
    43     4    40    1
    44    11    41    1
    45    14    42    1
    46    15    43    1
    47    19    44    1
    48    19    45    1
    49    19    46    1
    50    21    47    1
    51    22    48    1
    52    24    49    1
    53    25    50    1
    54    27    51    1
    55    27    52    1
    56    28    53    1
    57    28    54    1
    58    30    55    1
    59    30    56    1
    60    31    57    1
    61    31    58    1
@<TRIPOS>MOLECULE
*****
 53 56 0 0 0
SMALL
GASTEIGER

@<TRIPOS>ATOM
      1 C           0.6214    0.4663   -0.5261 C.3     1  UNL1        0.0369
      2 O           2.0303    0.4844   -0.3362 O.3     1  UNL1       -0.3768
      3 C           2.7114    0.9652   -1.5034 C.3     1  UNL1        0.0916
      4 C           4.1913    1.0631   -1.2878 C.ar    1  UNL1        0.0960
      5 N           4.8224    2.2404   -1.4277 N.ar    1  UNL1       -0.1754
      6 N           6.0917    1.9693   -1.0846 N.ar    1  UNL1       -0.2765
      7 H           6.7599    2.7309   -1.0889 H       1  UNL1        0.1889
      8 C           5.0956    0.0256   -0.9184 C.ar    1  UNL1        0.0259
      9 C           6.3198    0.6616   -0.7560 C.ar    1  UNL1        0.0696
     10 C           5.0227   -1.3630   -0.6712 C.ar    1  UNL1       -0.0351
     11 C           6.1569   -2.0675   -0.1975 C.ar    1  UNL1        0.0793
     12 C           7.3312   -1.3466    0.0503 C.ar    1  UNL1        0.1310
     13 C           7.4636    0.0068   -0.2959 C.ar    1  UNL1        0.0060
     14 O           8.4052   -1.8573    0.7281 O.3     1  UNL1       -0.5059
     15 C           5.9092   -3.5049    0.1367 C.2     1  UNL1        0.2541
     16 O           4.8201   -3.7025    0.6853 O.2     1  UNL1       -0.2695
     17 N           6.8245   -4.5470   -0.1416 N.am    1  UNL1       -0.2704
     18 C           8.1951   -4.3507   -0.6210 C.3     1  UNL1        0.0086
     19 C           6.4238   -5.9194    0.0773 C.ar    1  UNL1        0.0364
     20 C           5.1123   -6.3427   -0.1640 C.ar    1  UNL1       -0.0385
     21 C           4.7138   -7.6729    0.0540 C.ar    1  UNL1       -0.0389
     22 C           5.6020   -8.6403    0.5291 C.ar    1  UNL1        0.0299
     23 C           6.9223   -8.2148    0.7375 C.ar    1  UNL1       -0.0389
     24 C           7.3339   -6.8899    0.5055 C.ar    1  UNL1       -0.0385
     25 N           5.2424   -9.9574    0.7286 N.pl3   1  UNL1       -0.3255
     26 C           4.0561  -10.5667    0.1072 C.3     1  UNL1        0.0357
     27 C           4.3869  -12.0344   -0.2264 C.3     1  UNL1        0.0634
     28 O           4.8226  -12.7676    0.9336 O.3     1  UNL1       -0.3767
     29 C           5.9822  -12.1449    1.5171 C.3     1  UNL1        0.0634
     30 C           5.6899  -10.6926    1.9256 C.3     1  UNL1        0.0357
     31 H           0.1521    0.0933    0.3885 H       1  UNL1        0.0524
     32 H           0.3564   -0.2019   -1.3515 H       1  UNL1        0.0524
     33 H           0.2442    1.4746   -0.7224 H       1  UNL1        0.0524
     34 H           2.3104    1.9528   -1.7627 H       1  UNL1        0.0626
     35 H           2.5145    0.2836   -2.3376 H       1  UNL1        0.0626
     36 H           4.0689   -1.8695   -0.7859 H       1  UNL1        0.0633
     37 H           8.3947    0.5380   -0.1262 H       1  UNL1        0.0675
     38 H           8.0502   -2.3880    1.4656 H       1  UNL1        0.2922
     39 H           8.2710   -3.4664   -1.2540 H       1  UNL1        0.0433
     40 H           8.5242   -5.2028   -1.2253 H       1  UNL1        0.0433
     41 H           8.8569   -4.2581    0.2457 H       1  UNL1        0.0433
     42 H           4.3689   -5.6534   -0.5566 H       1  UNL1        0.0637
     43 H           3.6739   -7.9195   -0.1395 H       1  UNL1        0.0637
     44 H           7.6775   -8.9288    1.0563 H       1  UNL1        0.0637
     45 H           8.3723   -6.6442    0.7044 H       1  UNL1        0.0637
     46 H           3.7658  -10.0635   -0.8210 H       1  UNL1        0.0486
     47 H           3.2133  -10.5222    0.8082 H       1  UNL1        0.0486
     48 H           5.1725  -12.0863   -0.9904 H       1  UNL1        0.0575
     49 H           3.5004  -12.5376   -0.6242 H       1  UNL1        0.0575
     50 H           6.8094  -12.1865    0.7977 H       1  UNL1        0.0575
     51 H           6.2691  -12.7325    2.3942 H       1  UNL1        0.0575
     52 H           6.5749  -10.2600    2.4011 H       1  UNL1        0.0486
     53 H           4.8814  -10.6785    2.6687 H       1  UNL1        0.0486
@<TRIPOS>BOND
     1     1     2    1
     2     2     3    1
     3     3     4    1
     4     4     5   ar
     5     5     6   ar
     6     6     7    1
     7     4     8   ar
     8     8     9   ar
     9     6     9   ar
    10     8    10   ar
    11    10    11   ar
    12    11    12   ar
    13    12    13   ar
    14     9    13   ar
    15    12    14    1
    16    11    15    1
    17    15    16    2
    18    15    17   am
    19    17    18    1
    20    17    19    1
    21    19    20   ar
    22    20    21   ar
    23    21    22   ar
    24    22    23   ar
    25    23    24   ar
    26    19    24   ar
    27    22    25    1
    28    25    26    1
    29    26    27    1
    30    27    28    1
    31    28    29    1
    32    29    30    1
    33    25    30    1
    34     1    31    1
    35     1    32    1
    36     1    33    1
    37     3    34    1
    38     3    35    1
    39    10    36    1
    40    13    37    1
    41    14    38    1
    42    18    39    1
    43    18    40    1
    44    18    41    1
    45    20    42    1
    46    21    43    1
    47    23    44    1
    48    24    45    1
    49    26    46    1
    50    26    47    1
    51    27    48    1
    52    27    49    1
    53    29    50    1
    54    29    51    1
    55    30    52    1
    56    30    53    1
@<TRIPOS>MOLECULE
*****
 54 57 0 0 0
SMALL
GASTEIGER

@<TRIPOS>ATOM
      1 C           1.1030    0.6723   -1.0441 C.3     1  UNL1       -0.0582
      2 C           2.5586    0.8830   -0.6608 C.3     1  UNL1        0.0092
      3 C           3.2235   -0.3828   -0.1281 C.2     1  UNL1        0.1833
      4 O           2.6103   -1.4473   -0.0469 O.2     1  UNL1       -0.2904
      5 C           4.6297   -0.2713    0.2968 C.ar    1  UNL1        0.1353
      6 N           5.2870    0.9037    0.2385 N.ar    1  UNL1       -0.1698
      7 N           6.4901    0.6388    0.7691 N.ar    1  UNL1       -0.2762
      8 H           7.1569    1.3990    0.8504 H       1  UNL1        0.1889
      9 C           5.4649   -1.2982    0.8418 C.ar    1  UNL1        0.0312
     10 C           6.6470   -0.6533    1.1862 C.ar    1  UNL1        0.0699
     11 C           5.3541   -2.6768    1.1230 C.ar    1  UNL1       -0.0347
     12 C           6.3904   -3.3612    1.8064 C.ar    1  UNL1        0.0793
     13 C           7.4988   -2.6221    2.2368 C.ar    1  UNL1        0.1310
     14 C           7.6905   -1.2845    1.8669 C.ar    1  UNL1        0.0060
     15 O           8.4310   -3.0975    3.1196 O.3     1  UNL1       -0.5059
     16 C           6.1036   -4.7914    2.1343 C.2     1  UNL1        0.2541
     17 O           4.9436   -4.9899    2.5113 O.2     1  UNL1       -0.2695
     18 N           7.0645   -5.8264    2.0304 N.am    1  UNL1       -0.2704
     19 C           8.4940   -5.6231    1.7992 C.3     1  UNL1        0.0086
     20 C           6.6413   -7.2001    2.1926 C.ar    1  UNL1        0.0364
     21 C           5.3987   -7.6273    1.7201 C.ar    1  UNL1       -0.0385
     22 C           4.9558   -8.9420    1.9166 C.ar    1  UNL1       -0.0389
     23 C           5.7194   -9.8959    2.5980 C.ar    1  UNL1        0.0299
     24 C           6.9952   -9.4807    3.0051 C.ar    1  UNL1       -0.0389
     25 C           7.4555   -8.1605    2.7997 C.ar    1  UNL1       -0.0385
     26 N           5.2194  -11.1546    2.8502 N.pl3   1  UNL1       -0.3255
     27 C           6.0403  -12.3625    3.0161 C.3     1  UNL1        0.0357
     28 C           5.8129  -12.9815    4.4042 C.3     1  UNL1        0.0634
     29 O           4.4184  -13.2340    4.6507 O.3     1  UNL1       -0.3767
     30 C           3.6748  -12.0065    4.5788 C.3     1  UNL1        0.0634
     31 C           3.7968  -11.3460    3.1938 C.3     1  UNL1        0.0357
     32 H           0.6834    1.5929   -1.4624 H       1  UNL1        0.0234
     33 H           0.5040    0.3907   -0.1718 H       1  UNL1        0.0234
     34 H           1.0014   -0.1202   -1.7924 H       1  UNL1        0.0234
     35 H           2.6152    1.6630    0.1073 H       1  UNL1        0.0343
     36 H           3.1151    1.2187   -1.5434 H       1  UNL1        0.0343
     37 H           4.4357   -3.2005    0.8554 H       1  UNL1        0.0633
     38 H           8.5777   -0.7424    2.1784 H       1  UNL1        0.0675
     39 H           7.9637   -3.6654    3.7579 H       1  UNL1        0.2922
     40 H           8.6737   -4.7449    1.1777 H       1  UNL1        0.0433
     41 H           8.9325   -6.4788    1.2746 H       1  UNL1        0.0433
     42 H           8.9902   -5.5119    2.7680 H       1  UNL1        0.0433
     43 H           4.7498   -6.9534    1.1657 H       1  UNL1        0.0637
     44 H           3.9897   -9.2139    1.4992 H       1  UNL1        0.0637
     45 H           7.6495  -10.1637    3.5408 H       1  UNL1        0.0637
     46 H           8.4372   -7.9049    3.1888 H       1  UNL1        0.0637
     47 H           7.1068  -12.1848    2.8496 H       1  UNL1        0.0486
     48 H           5.7168  -13.0841    2.2547 H       1  UNL1        0.0486
     49 H           6.2021  -12.3316    5.1960 H       1  UNL1        0.0575
     50 H           6.3342  -13.9416    4.4704 H       1  UNL1        0.0575
     51 H           4.0273  -11.3319    5.3685 H       1  UNL1        0.0575
     52 H           2.6258  -12.2412    4.7865 H       1  UNL1        0.0575
     53 H           3.2289  -10.4085    3.2180 H       1  UNL1        0.0486
     54 H           3.3433  -11.9939    2.4362 H       1  UNL1        0.0486
@<TRIPOS>BOND
     1     1     2    1
     2     2     3    1
     3     3     4    2
     4     3     5    1
     5     5     6   ar
     6     6     7   ar
     7     7     8    1
     8     5     9   ar
     9     9    10   ar
    10     7    10   ar
    11     9    11   ar
    12    11    12   ar
    13    12    13   ar
    14    13    14   ar
    15    10    14   ar
    16    13    15    1
    17    12    16    1
    18    16    17    2
    19    16    18   am
    20    18    19    1
    21    18    20    1
    22    20    21   ar
    23    21    22   ar
    24    22    23   ar
    25    23    24   ar
    26    24    25   ar
    27    20    25   ar
    28    23    26    1
    29    26    27    1
    30    27    28    1
    31    28    29    1
    32    29    30    1
    33    30    31    1
    34    26    31    1
    35     1    32    1
    36     1    33    1
    37     1    34    1
    38     2    35    1
    39     2    36    1
    40    11    37    1
    41    14    38    1
    42    15    39    1
    43    19    40    1
    44    19    41    1
    45    19    42    1
    46    21    43    1
    47    22    44    1
    48    24    45    1
    49    25    46    1
    50    27    47    1
    51    27    48    1
    52    28    49    1
    53    28    50    1
    54    30    51    1
    55    30    52    1
    56    31    53    1
    57    31    54    1
@<TRIPOS>MOLECULE
*****
 56 59 0 0 0
SMALL
GASTEIGER

@<TRIPOS>ATOM
      1 C           2.9847   -3.1508   -4.2752 C.3     1  UNL1       -0.0626
      2 C           2.5309   -1.7931   -3.7517 C.3     1  UNL1       -0.0240
      3 C           2.8949   -1.5407   -2.2827 C.3     1  UNL1        0.0990
      4 H           2.4625   -0.5756   -1.9838 H       1  UNL1        0.0659
      5 O           2.2604   -2.5253   -1.4576 O.3     1  UNL1       -0.3856
      6 C           4.3799   -1.4699   -2.0500 C.ar    1  UNL1        0.0988
      7 N           5.0184   -0.2910   -2.1929 N.ar    1  UNL1       -0.1751
      8 N           6.2935   -0.5794   -1.8735 N.ar    1  UNL1       -0.2765
      9 H           6.9723    0.1747   -1.8828 H       1  UNL1        0.1889
     10 C           5.2813   -2.5097   -1.6768 C.ar    1  UNL1        0.0262
     11 C           6.5114   -1.8892   -1.5387 C.ar    1  UNL1        0.0696
     12 C           5.1929   -3.8940   -1.4178 C.ar    1  UNL1       -0.0350
     13 C           6.3205   -4.6147   -0.9627 C.ar    1  UNL1        0.0793
     14 C           7.5077   -3.9085   -0.7363 C.ar    1  UNL1        0.1310
     15 C           7.6518   -2.5574   -1.0899 C.ar    1  UNL1        0.0060
     16 O           8.5855   -4.4298   -0.0724 O.3     1  UNL1       -0.5059
     17 C           6.0570   -6.0512   -0.6364 C.2     1  UNL1        0.2541
     18 O           4.9675   -6.2449   -0.0869 O.2     1  UNL1       -0.2695
     19 N           6.9627   -7.0972   -0.9216 N.am    1  UNL1       -0.2704
     20 C           8.3281   -6.9145   -1.4181 C.3     1  UNL1        0.0086
     21 C           6.5562   -8.4660   -0.6929 C.ar    1  UNL1        0.0364
     22 C           5.2452   -8.8894   -0.9370 C.ar    1  UNL1       -0.0385
     23 C           4.8453  -10.2171   -0.7049 C.ar    1  UNL1       -0.0389
     24 C           5.7328  -11.1779   -0.2094 C.ar    1  UNL1        0.0299
     25 C           7.0512  -10.7496   -0.0019 C.ar    1  UNL1       -0.0389
     26 C           7.4644   -9.4302   -0.2502 C.ar    1  UNL1       -0.0385
     27 N           5.3722  -12.4904    0.0116 N.pl3   1  UNL1       -0.3255
     28 C           4.2041  -13.1196   -0.6196 C.3     1  UNL1        0.0357
     29 C           4.5565  -14.5873   -0.9335 C.3     1  UNL1        0.0634
     30 O           4.9899  -15.3034    0.2380 O.3     1  UNL1       -0.3767
     31 C           6.1352  -14.6597    0.8271 C.3     1  UNL1        0.0634
     32 C           5.8194  -13.2079    1.2184 C.3     1  UNL1        0.0357
     33 H           2.6353   -3.2917   -5.3021 H       1  UNL1        0.0231
     34 H           2.5841   -3.9680   -3.6672 H       1  UNL1        0.0231
     35 H           4.0758   -3.2295   -4.2867 H       1  UNL1        0.0231
     36 H           1.4400   -1.7450   -3.8570 H       1  UNL1        0.0291
     37 H           2.9543   -1.0042   -4.3841 H       1  UNL1        0.0291
     38 H           1.3020   -2.3922   -1.5472 H       1  UNL1        0.2103
     39 H           4.2286   -4.3910   -1.5229 H       1  UNL1        0.0633
     40 H           8.5933   -2.0377   -0.9370 H       1  UNL1        0.0675
     41 H           8.2344   -4.9918    0.6438 H       1  UNL1        0.2922
     42 H           8.4036   -6.0319   -2.0539 H       1  UNL1        0.0433
     43 H           8.6408   -7.7706   -2.0264 H       1  UNL1        0.0433
     44 H           9.0046   -6.8281   -0.5612 H       1  UNL1        0.0433
     45 H           4.5049   -8.2025   -1.3399 H       1  UNL1        0.0637
     46 H           3.8075  -10.4684   -0.9035 H       1  UNL1        0.0637
     47 H           7.8041  -11.4593    0.3309 H       1  UNL1        0.0637
     48 H           8.5011   -9.1807   -0.0488 H       1  UNL1        0.0637
     49 H           3.9164  -12.6299   -1.5542 H       1  UNL1        0.0486
     50 H           3.3509  -13.0804    0.0729 H       1  UNL1        0.0486
     51 H           5.3511  -14.6360   -1.6885 H       1  UNL1        0.0575
     52 H           3.6814  -15.1063   -1.3357 H       1  UNL1        0.0575
     53 H           6.9702  -14.6971    0.1165 H       1  UNL1        0.0575
     54 H           6.4212  -15.2351    1.7127 H       1  UNL1        0.0575
     55 H           6.6932  -12.7583    1.6987 H       1  UNL1        0.0486
     56 H           5.0038  -13.1977    1.9541 H       1  UNL1        0.0486
@<TRIPOS>BOND
     1     1     2    1
     2     2     3    1
     3     3     4    1
     4     3     5    1
     5     3     6    1
     6     6     7   ar
     7     7     8   ar
     8     8     9    1
     9     6    10   ar
    10    10    11   ar
    11     8    11   ar
    12    10    12   ar
    13    12    13   ar
    14    13    14   ar
    15    14    15   ar
    16    11    15   ar
    17    14    16    1
    18    13    17    1
    19    17    18    2
    20    17    19   am
    21    19    20    1
    22    19    21    1
    23    21    22   ar
    24    22    23   ar
    25    23    24   ar
    26    24    25   ar
    27    25    26   ar
    28    21    26   ar
    29    24    27    1
    30    27    28    1
    31    28    29    1
    32    29    30    1
    33    30    31    1
    34    31    32    1
    35    27    32    1
    36     1    33    1
    37     1    34    1
    38     1    35    1
    39     2    36    1
    40     2    37    1
    41     5    38    1
    42    12    39    1
    43    15    40    1
    44    16    41    1
    45    20    42    1
    46    20    43    1
    47    20    44    1
    48    22    45    1
    49    23    46    1
    50    25    47    1
    51    26    48    1
    52    28    49    1
    53    28    50    1
    54    29    51    1
    55    29    52    1
    56    31    53    1
    57    31    54    1
    58    32    55    1
    59    32    56    1
@<TRIPOS>MOLECULE
*****
 63 67 0 0 0
SMALL
GASTEIGER

@<TRIPOS>ATOM
      1 C           1.0581   -0.2206   -1.3806 C.3     1  UNL1        0.0357
      2 C          -0.4679   -0.1969   -1.1615 C.3     1  UNL1        0.0634
      3 O          -1.0498   -1.5123   -1.2322 O.3     1  UNL1       -0.3767
      4 C          -0.4387   -2.3903   -0.2675 C.3     1  UNL1        0.0634
      5 C           1.0721   -2.5010   -0.5050 C.3     1  UNL1        0.0357
      6 N           1.6483   -1.1497   -0.4042 N.pl3   1  UNL1       -0.3255
      7 C           2.8072   -0.9123    0.2971 C.ar    1  UNL1        0.0299
      8 C           3.7272    0.0620   -0.0747 C.ar    1  UNL1       -0.0389
      9 C           4.9365    0.2510    0.6202 C.ar    1  UNL1       -0.0385
     10 C           3.1263   -1.6221    1.4608 C.ar    1  UNL1       -0.0389
     11 C           4.3371   -1.4401    2.1608 C.ar    1  UNL1       -0.0385
     12 C           5.3025   -0.5273    1.7332 C.ar    1  UNL1        0.0364
     13 N           6.6037   -0.3937    2.3744 N.am    1  UNL1       -0.2704
     14 C           7.3813    0.8074    2.0696 C.3     1  UNL1        0.0086
     15 C           7.1389   -1.4227    3.2112 C.2     1  UNL1        0.2541
     16 O           6.6043   -2.5138    3.4105 O.2     1  UNL1       -0.2695
     17 C           8.5141   -1.2986    3.8201 C.ar    1  UNL1        0.0793
     18 C           9.3243   -2.4495    3.8915 C.ar    1  UNL1        0.1310
     19 C          10.6560   -2.3907    4.3138 C.ar    1  UNL1        0.0060
     20 O           8.8823   -3.7058    3.5501 O.3     1  UNL1       -0.5059
     21 C           9.0371   -0.0748    4.2857 C.ar    1  UNL1       -0.0351
     22 C          10.4146    0.0396    4.5715 C.ar    1  UNL1        0.0239
     23 C          11.1774   -1.1216    4.6037 C.ar    1  UNL1        0.0695
     24 C          11.3508    1.0992    4.8183 C.ar    1  UNL1        0.0748
     25 N          12.5705    0.6020    5.0902 N.ar    1  UNL1       -0.1774
     26 N          12.4257   -0.7277    4.9818 N.ar    1  UNL1       -0.2766
     27 H          13.2312   -1.3173    5.1581 H       1  UNL1        0.1889
     28 C          11.1612    2.5980    4.8197 C.3     1  UNL1        0.0173
     29 C          11.0320    3.1660    3.4071 C.ar    1  UNL1       -0.0381
     30 C          11.5094    2.5030    2.2648 C.ar    1  UNL1       -0.0580
     31 C          11.4071    3.0780    0.9974 C.ar    1  UNL1       -0.0580
     32 C          10.8951    4.3612    0.8538 C.ar    1  UNL1       -0.0199
     33 C          10.4766    5.0843    1.9681 C.ar    1  UNL1        0.1204
     34 C          10.5249    4.4854    3.2359 C.ar    1  UNL1       -0.0164
     35 O          10.1200    6.3688    1.6683 O.3     1  UNL1       -0.4951
     36 C           9.2973    7.0701    2.5851 C.3     1  UNL1        0.0788
     37 H           1.4334    0.8029   -1.2850 H       1  UNL1        0.0486
     38 H           1.2825   -0.5758   -2.3945 H       1  UNL1        0.0486
     39 H          -0.9460    0.4174   -1.9306 H       1  UNL1        0.0575
     40 H          -0.7074    0.2415   -0.1851 H       1  UNL1        0.0575
     41 H          -0.9067   -3.3738   -0.3676 H       1  UNL1        0.0575
     42 H          -0.6481   -2.0150    0.7419 H       1  UNL1        0.0575
     43 H           1.2576   -2.8810   -1.5184 H       1  UNL1        0.0486
     44 H           1.5084   -3.2252    0.1878 H       1  UNL1        0.0486
     45 H           3.5615    0.6788   -0.9531 H       1  UNL1        0.0637
     46 H           5.5788    1.0043    0.1855 H       1  UNL1        0.0637
     47 H           2.4196   -2.3347    1.8782 H       1  UNL1        0.0637
     48 H           4.4685   -2.0355    3.0590 H       1  UNL1        0.0637
     49 H           7.1193    1.3216    1.1515 H       1  UNL1        0.0433
     50 H           8.4386    0.5605    1.9563 H       1  UNL1        0.0433
     51 H           7.2237    1.5232    2.8821 H       1  UNL1        0.0433
     52 H          11.2620   -3.2889    4.3680 H       1  UNL1        0.0675
     53 H           7.9066   -3.6582    3.4290 H       1  UNL1        0.2922
     54 H           8.4220    0.8078    4.3740 H       1  UNL1        0.0633
     55 H          12.0280    3.0764    5.2946 H       1  UNL1        0.0377
     56 H          10.2716    2.8481    5.4079 H       1  UNL1        0.0377
     57 H          12.0039    1.5360    2.3423 H       1  UNL1        0.0620
     58 H          11.7604    2.5377    0.1226 H       1  UNL1        0.0619
     59 H          10.8380    4.8146   -0.1339 H       1  UNL1        0.0654
     60 H          10.2328    5.0554    4.1142 H       1  UNL1        0.0657
     61 H           8.9664    7.9876    2.0835 H       1  UNL1        0.0660
     62 H           9.8544    7.3641    3.4786 H       1  UNL1        0.0660
     63 H           8.4051    6.4914    2.8379 H       1  UNL1        0.0660
@<TRIPOS>BOND
     1     1     2    1
     2     2     3    1
     3     3     4    1
     4     4     5    1
     5     5     6    1
     6     1     6    1
     7     6     7    1
     8     7     8   ar
     9     8     9   ar
    10     7    10   ar
    11    10    11   ar
    12    11    12   ar
    13     9    12   ar
    14    12    13    1
    15    13    14    1
    16    13    15   am
    17    15    16    2
    18    15    17    1
    19    17    18   ar
    20    18    19   ar
    21    18    20    1
    22    17    21   ar
    23    21    22   ar
    24    22    23   ar
    25    19    23   ar
    26    22    24   ar
    27    24    25   ar
    28    25    26   ar
    29    26    27    1
    30    23    26   ar
    31    24    28    1
    32    28    29    1
    33    29    30   ar
    34    30    31   ar
    35    31    32   ar
    36    32    33   ar
    37    33    34   ar
    38    29    34   ar
    39    33    35    1
    40    35    36    1
    41     1    37    1
    42     1    38    1
    43     2    39    1
    44     2    40    1
    45     4    41    1
    46     4    42    1
    47     5    43    1
    48     5    44    1
    49     8    45    1
    50     9    46    1
    51    10    47    1
    52    11    48    1
    53    14    49    1
    54    14    50    1
    55    14    51    1
    56    19    52    1
    57    20    53    1
    58    21    54    1
    59    28    55    1
    60    28    56    1
    61    30    57    1
    62    31    58    1
    63    32    59    1
    64    34    60    1
    65    36    61    1
    66    36    62    1
    67    36    63    1
@<TRIPOS>MOLECULE
*****
 65 68 0 0 0
SMALL
GASTEIGER

@<TRIPOS>ATOM
      1 C           2.8241    1.5561   -0.2329 C.3     1  UNL1       -0.0612
      2 C           2.4174    2.5393   -1.3303 C.3     1  UNL1       -0.0309
      3 C           2.7206    3.9733   -0.8990 C.3     1  UNL1       -0.0612
      4 C           3.0255    2.1895   -2.7030 C.3     1  UNL1        0.0170
      5 N           4.4865    2.2269   -2.7657 N.am    1  UNL1       -0.2990
      6 C           5.1173    3.4902   -3.1200 C.3     1  UNL1        0.0035
      7 C           5.2043    1.0504   -2.4967 C.2     1  UNL1        0.2671
      8 O           4.6191   -0.0211   -2.3444 O.2     1  UNL1       -0.2682
      9 C           6.6863    1.0935   -2.4422 C.ar    1  UNL1        0.1547
     10 N           7.4219    2.2036   -2.2332 N.ar    1  UNL1       -0.1681
     11 N           8.6968    1.7858   -2.2970 N.ar    1  UNL1       -0.2761
     12 H           9.4351    2.4663   -2.1626 H       1  UNL1        0.1889
     13 C           7.5369   -0.0414   -2.5959 C.ar    1  UNL1        0.0328
     14 C           8.8309    0.4503   -2.5449 C.ar    1  UNL1        0.0700
     15 C           7.3337   -1.4204   -2.7935 C.ar    1  UNL1       -0.0347
     16 C           8.4203   -2.2510   -3.0605 C.ar    1  UNL1        0.0793
     17 C           9.7193   -1.7187   -2.9206 C.ar    1  UNL1        0.1310
     18 C           9.9565   -0.3597   -2.6819 C.ar    1  UNL1        0.0060
     19 O          10.8520   -2.4975   -2.9421 O.3     1  UNL1       -0.5059
     20 C           8.2337   -3.6981   -3.3628 C.2     1  UNL1        0.2541
     21 O           9.1518   -4.3969   -2.9238 O.2     1  UNL1       -0.2695
     22 N           7.1485   -4.1963   -4.1396 N.am    1  UNL1       -0.2704
     23 C           6.2332   -3.3736   -4.9481 C.3     1  UNL1        0.0086
     24 C           7.0755   -5.6210   -4.4062 C.ar    1  UNL1        0.0364
     25 C           7.5661   -6.5608   -3.5005 C.ar    1  UNL1       -0.0385
     26 C           7.6017   -7.9250   -3.8156 C.ar    1  UNL1       -0.0389
     27 C           7.1413   -8.4229   -5.0397 C.ar    1  UNL1        0.0299
     28 C           6.5510   -7.4923   -5.8966 C.ar    1  UNL1       -0.0389
     29 C           6.5159   -6.1214   -5.5897 C.ar    1  UNL1       -0.0385
     30 N           7.2856   -9.7522   -5.3698 N.pl3   1  UNL1       -0.3255
     31 C           6.4113  -10.4702   -6.3048 C.3     1  UNL1        0.0357
     32 C           7.2396  -11.0757   -7.4470 C.3     1  UNL1        0.0634
     33 O           8.2878  -11.9209   -6.9427 O.3     1  UNL1       -0.3767
     34 C           9.1755  -11.1598   -6.1078 C.3     1  UNL1        0.0634
     35 C           8.4466  -10.5334   -4.9068 C.3     1  UNL1        0.0357
     36 H           2.2769    1.7654    0.6927 H       1  UNL1        0.0233
     37 H           3.8931    1.6195   -0.0050 H       1  UNL1        0.0233
     38 H           2.5935    0.5265   -0.5259 H       1  UNL1        0.0233
     39 H           1.3279    2.4607   -1.4450 H       1  UNL1        0.0311
     40 H           3.7793    4.1103   -0.6583 H       1  UNL1        0.0233
     41 H           2.1453    4.2330   -0.0037 H       1  UNL1        0.0233
     42 H           2.4496    4.6846   -1.6859 H       1  UNL1        0.0233
     43 H           2.6317    2.8671   -3.4716 H       1  UNL1        0.0467
     44 H           2.6825    1.1885   -2.9919 H       1  UNL1        0.0467
     45 H           4.3773    4.1915   -3.5172 H       1  UNL1        0.0429
     46 H           5.8669    3.3226   -3.8992 H       1  UNL1        0.0429
     47 H           5.5781    3.9310   -2.2335 H       1  UNL1        0.0429
     48 H           6.3269   -1.8174   -2.7190 H       1  UNL1        0.0633
     49 H          10.9666    0.0276   -2.5876 H       1  UNL1        0.0675
     50 H          10.5593   -3.4270   -2.7965 H       1  UNL1        0.2922
     51 H           6.0725   -2.3687   -4.5800 H       1  UNL1        0.0433
     52 H           5.2447   -3.8466   -4.9721 H       1  UNL1        0.0433
     53 H           6.6359   -3.2763   -5.9607 H       1  UNL1        0.0433
     54 H           7.9308   -6.2645   -2.5214 H       1  UNL1        0.0637
     55 H           7.9988   -8.5992   -3.0612 H       1  UNL1        0.0637
     56 H           6.1597   -7.7953   -6.8627 H       1  UNL1        0.0637
     57 H           6.0907   -5.4689   -6.3462 H       1  UNL1        0.0637
     58 H           5.6044   -9.8541   -6.7123 H       1  UNL1        0.0486
     59 H           5.9304  -11.2834   -5.7455 H       1  UNL1        0.0486
     60 H           7.6826  -10.2929   -8.0743 H       1  UNL1        0.0575
     61 H           6.5986  -11.6930   -8.0840 H       1  UNL1        0.0575
     62 H           9.6590  -10.3870   -6.7180 H       1  UNL1        0.0575
     63 H           9.9579  -11.8370   -5.7505 H       1  UNL1        0.0575
     64 H           9.1753   -9.9344   -4.3519 H       1  UNL1        0.0486
     65 H           8.0808  -11.3238   -4.2403 H       1  UNL1        0.0486
@<TRIPOS>BOND
     1     1     2    1
     2     2     3    1
     3     2     4    1
     4     4     5    1
     5     5     6    1
     6     5     7   am
     7     7     8    2
     8     7     9    1
     9     9    10   ar
    10    10    11   ar
    11    11    12    1
    12     9    13   ar
    13    13    14   ar
    14    11    14   ar
    15    13    15   ar
    16    15    16   ar
    17    16    17   ar
    18    17    18   ar
    19    14    18   ar
    20    17    19    1
    21    16    20    1
    22    20    21    2
    23    20    22   am
    24    22    23    1
    25    22    24    1
    26    24    25   ar
    27    25    26   ar
    28    26    27   ar
    29    27    28   ar
    30    28    29   ar
    31    24    29   ar
    32    27    30    1
    33    30    31    1
    34    31    32    1
    35    32    33    1
    36    33    34    1
    37    34    35    1
    38    30    35    1
    39     1    36    1
    40     1    37    1
    41     1    38    1
    42     2    39    1
    43     3    40    1
    44     3    41    1
    45     3    42    1
    46     4    43    1
    47     4    44    1
    48     6    45    1
    49     6    46    1
    50     6    47    1
    51    15    48    1
    52    18    49    1
    53    19    50    1
    54    23    51    1
    55    23    52    1
    56    23    53    1
    57    25    54    1
    58    26    55    1
    59    28    56    1
    60    29    57    1
    61    31    58    1
    62    31    59    1
    63    32    60    1
    64    32    61    1
    65    34    62    1
    66    34    63    1
    67    35    64    1
    68    35    65    1
@<TRIPOS>MOLECULE
*****
 62 66 0 0 0
SMALL
GASTEIGER

@<TRIPOS>ATOM
      1 C           1.4399    0.3837    0.0867 C.3     1  UNL1       -0.0499
      2 C           1.6117    0.7642    1.5495 C.3     1  UNL1       -0.0528
      3 C           2.0662   -0.5379    2.1837 C.3     1  UNL1       -0.0528
      4 C           1.2215   -1.6062    1.4965 C.3     1  UNL1       -0.0499
      5 C           0.8345   -1.0329    0.1179 C.3     1  UNL1       -0.0356
      6 C           1.2990   -1.8665   -1.0907 C.3     1  UNL1       -0.0052
      7 C           0.8048   -3.2834   -1.1168 C.ar    1  UNL1        0.0708
      8 N           1.7058   -4.2816   -1.0959 N.ar    1  UNL1       -0.1777
      9 N           0.9580   -5.3938   -1.0273 N.ar    1  UNL1       -0.2766
     10 H           1.4330   -6.2875   -0.9694 H       1  UNL1        0.1889
     11 C          -0.5290   -3.7848   -1.1197 C.ar    1  UNL1        0.0236
     12 C          -0.3895   -5.1573   -0.9782 C.ar    1  UNL1        0.0695
     13 C          -1.8310   -3.2468   -1.1555 C.ar    1  UNL1       -0.0351
     14 C          -2.9624   -4.0658   -0.8940 C.ar    1  UNL1        0.0793
     15 C          -2.7411   -5.4242   -0.6373 C.ar    1  UNL1        0.1310
     16 C          -1.4748   -6.0151   -0.7739 C.ar    1  UNL1        0.0060
     17 O          -3.6916   -6.2684   -0.1297 O.3     1  UNL1       -0.5059
     18 C          -4.2483   -3.3107   -0.7138 C.2     1  UNL1        0.2541
     19 O          -4.0814   -2.2208   -0.1531 O.2     1  UNL1       -0.2695
     20 N          -5.5298   -3.7790   -1.1055 N.am    1  UNL1       -0.2704
     21 C          -5.7976   -5.1203   -1.6223 C.3     1  UNL1        0.0086
     22 C          -6.6880   -2.9084   -0.9566 C.ar    1  UNL1        0.0364
     23 C          -6.5700   -1.5205   -1.0574 C.ar    1  UNL1       -0.0385
     24 C          -7.6615   -0.6662   -0.8340 C.ar    1  UNL1       -0.0389
     25 C          -8.9320   -1.1423   -0.5058 C.ar    1  UNL1        0.0299
     26 C          -9.0763   -2.5337   -0.4992 C.ar    1  UNL1       -0.0389
     27 C          -7.9794   -3.4022   -0.7206 C.ar    1  UNL1       -0.0385
     28 N          -9.9553   -0.2662   -0.1998 N.pl3   1  UNL1       -0.3255
     29 C         -11.3839   -0.5366   -0.4073 C.3     1  UNL1        0.0357
     30 C         -12.1453   -0.4380    0.9243 C.3     1  UNL1        0.0634
     31 O         -11.9256    0.8297    1.5673 O.3     1  UNL1       -0.3767
     32 C         -10.5249    1.0114    1.8342 C.3     1  UNL1        0.0634
     33 C          -9.6886    0.9814    0.5436 C.3     1  UNL1        0.0357
     34 H           2.4195    0.3802   -0.4057 H       1  UNL1        0.0268
     35 H           0.7978    1.0909   -0.4455 H       1  UNL1        0.0268
     36 H           0.6568    1.0879    1.9774 H       1  UNL1        0.0265
     37 H           2.3413    1.5680    1.6846 H       1  UNL1        0.0265
     38 H           1.9366   -0.5385    3.2701 H       1  UNL1        0.0265
     39 H           3.1279   -0.7103    1.9700 H       1  UNL1        0.0265
     40 H           0.3086   -1.7768    2.0818 H       1  UNL1        0.0268
     41 H           1.7572   -2.5586    1.4493 H       1  UNL1        0.0268
     42 H          -0.2593   -0.9431    0.0876 H       1  UNL1        0.0304
     43 H           2.3978   -1.8727   -1.1101 H       1  UNL1        0.0332
     44 H           0.9806   -1.3701   -2.0157 H       1  UNL1        0.0332
     45 H          -1.9536   -2.1747   -1.2949 H       1  UNL1        0.0633
     46 H          -1.3323   -7.0776   -0.6032 H       1  UNL1        0.0675
     47 H          -4.2079   -5.7542    0.5177 H       1  UNL1        0.2922
     48 H          -4.9339   -5.5200   -2.1546 H       1  UNL1        0.0433
     49 H          -6.6293   -5.1072   -2.3335 H       1  UNL1        0.0433
     50 H          -6.0617   -5.7714   -0.7815 H       1  UNL1        0.0433
     51 H          -5.6285   -1.0533   -1.3327 H       1  UNL1        0.0637
     52 H          -7.4887    0.4021   -0.9438 H       1  UNL1        0.0637
     53 H         -10.0365   -2.9843   -0.2638 H       1  UNL1        0.0637
     54 H          -8.1674   -4.4694   -0.6419 H       1  UNL1        0.0637
     55 H         -11.5764   -1.4999   -0.8882 H       1  UNL1        0.0486
     56 H         -11.7680    0.2374   -1.0844 H       1  UNL1        0.0486
     57 H         -11.8506   -1.2414    1.6097 H       1  UNL1        0.0575
     58 H         -13.2216   -0.5287    0.7446 H       1  UNL1        0.0575
     59 H         -10.1942    0.2350    2.5349 H       1  UNL1        0.0575
     60 H         -10.4050    1.9796    2.3318 H       1  UNL1        0.0575
     61 H          -8.6365    1.1015    0.8227 H       1  UNL1        0.0486
     62 H          -9.9674    1.8281   -0.0945 H       1  UNL1        0.0486
@<TRIPOS>BOND
     1     1     2    1
     2     2     3    1
     3     3     4    1
     4     4     5    1
     5     1     5    1
     6     5     6    1
     7     6     7    1
     8     7     8   ar
     9     8     9   ar
    10     9    10    1
    11     7    11   ar
    12    11    12   ar
    13     9    12   ar
    14    11    13   ar
    15    13    14   ar
    16    14    15   ar
    17    15    16   ar
    18    12    16   ar
    19    15    17    1
    20    14    18    1
    21    18    19    2
    22    18    20   am
    23    20    21    1
    24    20    22    1
    25    22    23   ar
    26    23    24   ar
    27    24    25   ar
    28    25    26   ar
    29    26    27   ar
    30    22    27   ar
    31    25    28    1
    32    28    29    1
    33    29    30    1
    34    30    31    1
    35    31    32    1
    36    32    33    1
    37    28    33    1
    38     1    34    1
    39     1    35    1
    40     2    36    1
    41     2    37    1
    42     3    38    1
    43     3    39    1
    44     4    40    1
    45     4    41    1
    46     5    42    1
    47     6    43    1
    48     6    44    1
    49    13    45    1
    50    16    46    1
    51    17    47    1
    52    21    48    1
    53    21    49    1
    54    21    50    1
    55    23    51    1
    56    24    52    1
    57    26    53    1
    58    27    54    1
    59    29    55    1
    60    29    56    1
    61    30    57    1
    62    30    58    1
    63    32    59    1
    64    32    60    1
    65    33    61    1
    66    33    62    1
@<TRIPOS>MOLECULE
*****
 49 52 0 0 0
SMALL
GASTEIGER

@<TRIPOS>ATOM
      1 CL          5.4623   -2.7056    0.4504 Cl      1  UNL1       -0.0835
      2 C           4.7028   -1.1729    0.2131 C.ar    1  UNL1        0.0427
      3 C           5.4883   -0.0307   -0.0197 C.ar    1  UNL1       -0.0219
      4 C           3.3175   -1.0905    0.2756 C.ar    1  UNL1       -0.0433
      5 C           2.7186    0.1495    0.1064 C.ar    1  UNL1       -0.0586
      6 C           3.5025    1.2956   -0.1148 C.ar    1  UNL1       -0.0402
      7 C           4.9049    1.2380   -0.1841 C.ar    1  UNL1        0.0376
      8 N           5.7212    2.4417   -0.3401 N.am    1  UNL1       -0.2704
      9 C           7.1054    2.3448    0.1274 C.3     1  UNL1        0.0086
     10 C           5.1916    3.6297   -0.9176 C.2     1  UNL1        0.2541
     11 O           4.0908    3.6740   -1.4780 O.2     1  UNL1       -0.2695
     12 C           5.9004    4.9620   -0.8962 C.ar    1  UNL1        0.0793
     13 C           5.0792    6.0848   -0.5880 C.ar    1  UNL1       -0.0351
     14 C           7.2297    5.2079   -1.2632 C.ar    1  UNL1        0.1310
     15 O           8.0901    4.2529   -1.7317 O.3     1  UNL1       -0.5059
     16 C           7.7868    6.4946   -1.2449 C.ar    1  UNL1        0.0060
     17 C           6.9451    7.5617   -0.9275 C.ar    1  UNL1        0.0695
     18 C           5.6087    7.3986   -0.5892 C.ar    1  UNL1        0.0239
     19 N           7.1701    8.9102   -0.9046 N.ar    1  UNL1       -0.2766
     20 H           8.0282    9.3980   -1.1344 H       1  UNL1        0.1889
     21 N           6.0999    9.6413   -0.5700 N.ar    1  UNL1       -0.1774
     22 C           5.1406    8.7295   -0.3339 C.ar    1  UNL1        0.0748
     23 C           3.7766    9.1985    0.0526 C.3     1  UNL1        0.0171
     24 C           3.7006    9.2435    1.5649 C.ar    1  UNL1       -0.0413
     25 C           3.0418    8.2205    2.2622 C.ar    1  UNL1       -0.0582
     26 C           2.8257    8.3238    3.6374 C.ar    1  UNL1       -0.0612
     27 C           3.2888    9.4348    4.3392 C.ar    1  UNL1       -0.0588
     28 C           3.9998   10.4425    3.6788 C.ar    1  UNL1       -0.0502
     29 C           4.2029   10.3386    2.2927 C.ar    1  UNL1       -0.0553
     30 C           4.5782   11.5890    4.4555 C.3     1  UNL1       -0.0397
     31 H           6.5593   -0.1779   -0.0836 H       1  UNL1        0.0651
     32 H           2.7079   -1.9733    0.4594 H       1  UNL1        0.0632
     33 H           1.6330    0.2402    0.1593 H       1  UNL1        0.0619
     34 H           2.9679    2.2382   -0.1883 H       1  UNL1        0.0636
     35 H           7.2226    1.6008    0.9203 H       1  UNL1        0.0433
     36 H           7.4419    3.2911    0.5518 H       1  UNL1        0.0433
     37 H           7.7327    2.0543   -0.7213 H       1  UNL1        0.0433
     38 H           4.0212    5.9391   -0.3809 H       1  UNL1        0.0633
     39 H           7.5864    3.6816   -2.3302 H       1  UNL1        0.2922
     40 H           8.8236    6.6561   -1.5238 H       1  UNL1        0.0675
     41 H           3.0046    8.5389   -0.3569 H       1  UNL1        0.0377
     42 H           3.5719   10.1984   -0.3516 H       1  UNL1        0.0377
     43 H           2.6613    7.3525    1.7345 H       1  UNL1        0.0620
     44 H           2.2808    7.5405    4.1610 H       1  UNL1        0.0618
     45 H           3.0957    9.5071    5.4065 H       1  UNL1        0.0620
     46 H           4.7469   11.1229    1.7681 H       1  UNL1        0.0623
     47 H           4.0834   11.6996    5.4279 H       1  UNL1        0.0278
     48 H           4.4502   12.5331    3.9166 H       1  UNL1        0.0278
     49 H           5.6448   11.4176    4.6332 H       1  UNL1        0.0278
@<TRIPOS>BOND
     1     1     2    1
     2     2     3   ar
     3     2     4   ar
     4     4     5   ar
     5     5     6   ar
     6     6     7   ar
     7     3     7   ar
     8     7     8    1
     9     8     9    1
    10     8    10   am
    11    10    11    2
    12    10    12    1
    13    12    13   ar
    14    12    14   ar
    15    14    15    1
    16    14    16   ar
    17    16    17   ar
    18    17    18   ar
    19    13    18   ar
    20    17    19   ar
    21    19    20    1
    22    19    21   ar
    23    21    22   ar
    24    18    22   ar
    25    22    23    1
    26    23    24    1
    27    24    25   ar
    28    25    26   ar
    29    26    27   ar
    30    27    28   ar
    31    28    29   ar
    32    24    29   ar
    33    28    30    1
    34     3    31    1
    35     4    32    1
    36     5    33    1
    37     6    34    1
    38     9    35    1
    39     9    36    1
    40     9    37    1
    41    13    38    1
    42    15    39    1
    43    16    40    1
    44    23    41    1
    45    23    42    1
    46    25    43    1
    47    26    44    1
    48    27    45    1
    49    29    46    1
    50    30    47    1
    51    30    48    1
    52    30    49    1
@<TRIPOS>MOLECULE
*****
 49 52 0 0 0
SMALL
GASTEIGER

@<TRIPOS>ATOM
      1 C          -0.4693   -0.7047   -0.3275 C.ar    1  UNL1       -0.0403
      2 C           0.9149   -0.6532   -0.1188 C.ar    1  UNL1       -0.0600
      3 C           1.5185    0.5442    0.2278 C.ar    1  UNL1       -0.0616
      4 C           0.7360    1.6864    0.3432 C.ar    1  UNL1       -0.0600
      5 C          -0.6513    1.6316    0.1209 C.ar    1  UNL1       -0.0403
      6 C          -1.2987    0.4328   -0.2120 C.ar    1  UNL1        0.0363
      7 N          -2.7380    0.3238   -0.4320 N.am    1  UNL1       -0.2704
      8 C          -3.1937   -0.9265   -1.0524 C.3     1  UNL1        0.0086
      9 C          -3.6558    1.3570   -0.0769 C.2     1  UNL1        0.2541
     10 O          -3.3385    2.4838    0.3193 O.2     1  UNL1       -0.2695
     11 C          -5.1502    1.1566   -0.2148 C.ar    1  UNL1        0.0793
     12 C          -5.7818   -0.0885   -0.0067 C.ar    1  UNL1       -0.0351
     13 C          -5.9546    2.2626   -0.5527 C.ar    1  UNL1        0.1310
     14 O          -5.4612    3.5390   -0.6841 O.3     1  UNL1       -0.5059
     15 C          -7.3308    2.1424   -0.7813 C.ar    1  UNL1        0.0060
     16 C          -7.8705    0.8561   -0.7301 C.ar    1  UNL1        0.0695
     17 C          -7.1294   -0.2695   -0.3845 C.ar    1  UNL1        0.0239
     18 N          -9.1342    0.3931   -0.9627 N.ar    1  UNL1       -0.2766
     19 H          -9.9572    0.9383   -1.1922 H       1  UNL1        0.1889
     20 N          -9.2504   -0.9433   -0.9112 N.ar    1  UNL1       -0.1774
     21 C          -8.0203   -1.3759   -0.5848 C.ar    1  UNL1        0.0748
     22 C          -7.7722   -2.8624   -0.5077 C.3     1  UNL1        0.0171
     23 C          -6.8696   -3.3432   -1.6415 C.ar    1  UNL1       -0.0413
     24 C          -6.6967   -2.6428   -2.8445 C.ar    1  UNL1       -0.0582
     25 C          -5.8480   -3.1216   -3.8452 C.ar    1  UNL1       -0.0612
     26 C          -5.2198   -4.3548   -3.7058 C.ar    1  UNL1       -0.0588
     27 C          -5.4698   -5.1448   -2.5820 C.ar    1  UNL1       -0.0502
     28 C          -6.2606   -4.6185   -1.5396 C.ar    1  UNL1       -0.0553
     29 C          -4.8948   -6.5332   -2.5260 C.3     1  UNL1       -0.0397
     30 H          -0.8684   -1.6864   -0.5616 H       1  UNL1        0.0636
     31 H           1.5104   -1.5568   -0.2197 H       1  UNL1        0.0618
     32 H           2.5892    0.5870    0.4079 H       1  UNL1        0.0618
     33 H           1.2015    2.6335    0.6068 H       1  UNL1        0.0618
     34 H          -1.1816    2.5731    0.2021 H       1  UNL1        0.0636
     35 H          -2.4736   -1.3210   -1.7715 H       1  UNL1        0.0433
     36 H          -4.1018   -0.7752   -1.6364 H       1  UNL1        0.0433
     37 H          -3.3591   -1.6597   -0.2554 H       1  UNL1        0.0433
     38 H          -5.2410   -0.9396    0.3832 H       1  UNL1        0.0633
     39 H          -4.5447    3.5447   -0.3245 H       1  UNL1        0.2922
     40 H          -7.9317    3.0114   -1.0320 H       1  UNL1        0.0675
     41 H          -8.7250   -3.4022   -0.5863 H       1  UNL1        0.0377
     42 H          -7.3242   -3.1038    0.4625 H       1  UNL1        0.0377
     43 H          -7.2302   -1.7144   -3.0341 H       1  UNL1        0.0620
     44 H          -5.7025   -2.5414   -4.7527 H       1  UNL1        0.0618
     45 H          -4.5710   -4.7150   -4.5010 H       1  UNL1        0.0620
     46 H          -6.4358   -5.2293   -0.6546 H       1  UNL1        0.0623
     47 H          -4.7163   -6.9144   -3.5400 H       1  UNL1        0.0278
     48 H          -5.5943   -7.2300   -2.0521 H       1  UNL1        0.0278
     49 H          -3.9442   -6.5435   -1.9852 H       1  UNL1        0.0278
@<TRIPOS>BOND
     1     1     2   ar
     2     2     3   ar
     3     3     4   ar
     4     4     5   ar
     5     5     6   ar
     6     1     6   ar
     7     6     7    1
     8     7     8    1
     9     7     9   am
    10     9    10    2
    11     9    11    1
    12    11    12   ar
    13    11    13   ar
    14    13    14    1
    15    13    15   ar
    16    15    16   ar
    17    16    17   ar
    18    12    17   ar
    19    16    18   ar
    20    18    19    1
    21    18    20   ar
    22    20    21   ar
    23    17    21   ar
    24    21    22    1
    25    22    23    1
    26    23    24   ar
    27    24    25   ar
    28    25    26   ar
    29    26    27   ar
    30    27    28   ar
    31    23    28   ar
    32    27    29    1
    33     1    30    1
    34     2    31    1
    35     3    32    1
    36     4    33    1
    37     5    34    1
    38     8    35    1
    39     8    36    1
    40     8    37    1
    41    12    38    1
    42    14    39    1
    43    15    40    1
    44    22    41    1
    45    22    42    1
    46    24    43    1
    47    25    44    1
    48    26    45    1
    49    28    46    1
    50    29    47    1
    51    29    48    1
    52    29    49    1
@<TRIPOS>MOLECULE
*****
 66 70 0 0 0
SMALL
GASTEIGER

@<TRIPOS>ATOM
      1 C           6.5543   -2.2917    1.6761 C.3     1  UNL1       -0.0075
      2 C           8.0314   -2.6950    1.7511 C.3     1  UNL1        0.0878
      3 O           8.5924   -2.8178    0.4417 O.3     1  UNL1       -0.3693
      4 C           8.5625   -1.5693   -0.2532 C.3     1  UNL1        0.0878
      5 C           7.1234   -1.0847   -0.4486 C.3     1  UNL1       -0.0075
      6 N           6.3965   -0.9921    0.8967 N.4     1  UNL1        0.2417
      7 H           6.8552   -0.2402    1.4258 H       1  UNL1        0.2038
      8 C           4.9311   -0.5969    0.7629 C.3     1  UNL1       -0.0058
      9 C           4.7568    0.7441    0.0970 C.ar    1  UNL1       -0.0028
     10 C           4.6793    0.8188   -1.3022 C.ar    1  UNL1       -0.0518
     11 C           4.8357    2.0427   -1.9511 C.ar    1  UNL1       -0.0398
     12 C           4.8145    1.9364    0.8331 C.ar    1  UNL1       -0.0518
     13 C           4.9074    3.1718    0.1793 C.ar    1  UNL1       -0.0398
     14 C           4.9968    3.2188   -1.2176 C.ar    1  UNL1        0.0363
     15 N           5.2921    4.4449   -1.8793 N.am    1  UNL1       -0.2704
     16 C           4.2341    5.4585   -1.8030 C.3     1  UNL1        0.0086
     17 C           6.4239    4.4975   -2.7225 C.2     1  UNL1        0.2541
     18 O           7.1841    3.5390   -2.8811 O.2     1  UNL1       -0.2695
     19 C           6.7928    5.7588   -3.4333 C.ar    1  UNL1        0.0793
     20 C           6.7933    7.0239   -2.8306 C.ar    1  UNL1        0.1310
     21 C           7.1117    8.1806   -3.5527 C.ar    1  UNL1        0.0060
     22 O           6.5314    7.2352   -1.5032 O.3     1  UNL1       -0.5059
     23 C           7.2354    5.6274   -4.7696 C.ar    1  UNL1       -0.0351
     24 C           7.5745    6.7797   -5.5123 C.ar    1  UNL1        0.0239
     25 C           7.4980    8.0178   -4.8852 C.ar    1  UNL1        0.0695
     26 C           8.0068    7.0717   -6.8420 C.ar    1  UNL1        0.0748
     27 N           8.2242    8.3873   -7.0086 N.ar    1  UNL1       -0.1774
     28 N           7.8869    8.9287   -5.8297 N.ar    1  UNL1       -0.2766
     29 H           7.9582    9.9350   -5.7278 H       1  UNL1        0.1889
     30 C           8.2588    6.1309   -7.9812 C.3     1  UNL1        0.0171
     31 C           6.9323    5.8727   -8.6665 C.ar    1  UNL1       -0.0413
     32 C           6.1873    6.9199   -9.2329 C.ar    1  UNL1       -0.0582
     33 C           4.9769    6.6695   -9.8800 C.ar    1  UNL1       -0.0612
     34 C           4.5052    5.3646   -9.9958 C.ar    1  UNL1       -0.0588
     35 C           5.2431    4.2971   -9.4727 C.ar    1  UNL1       -0.0502
     36 C           6.4586    4.5583   -8.8206 C.ar    1  UNL1       -0.0553
     37 C           4.7752    2.8880   -9.6875 C.3     1  UNL1       -0.0397
     38 H           6.1401   -2.1287    2.6755 H       1  UNL1        0.0837
     39 H           5.9722   -3.0497    1.1412 H       1  UNL1        0.0837
     40 H           8.1244   -3.6687    2.2421 H       1  UNL1        0.0613
     41 H           8.6160   -1.9714    2.3309 H       1  UNL1        0.0613
     42 H           9.0340   -1.7175   -1.2301 H       1  UNL1        0.0613
     43 H           9.1593   -0.8311    0.2950 H       1  UNL1        0.0613
     44 H           6.5511   -1.7860   -1.0646 H       1  UNL1        0.0837
     45 H           7.1384   -0.0893   -0.8970 H       1  UNL1        0.0837
     46 H           4.5147   -0.5745    1.7775 H       1  UNL1        0.0867
     47 H           4.4235   -1.3922    0.2043 H       1  UNL1        0.0867
     48 H           4.5727   -0.0777   -1.9103 H       1  UNL1        0.0623
     49 H           4.8502    2.0754   -3.0391 H       1  UNL1        0.0636
     50 H           4.8231    1.9234    1.9237 H       1  UNL1        0.0623
     51 H           4.9886    4.0817    0.7663 H       1  UNL1        0.0636
     52 H           3.2548    4.9729   -1.7290 H       1  UNL1        0.0433
     53 H           4.2267    6.0865   -2.6963 H       1  UNL1        0.0433
     54 H           4.3847    6.0698   -0.9090 H       1  UNL1        0.0433
     55 H           7.0836    9.1590   -3.0829 H       1  UNL1        0.0675
     56 H           6.6305    6.3939   -1.0256 H       1  UNL1        0.2922
     57 H           7.3205    4.6452   -5.2272 H       1  UNL1        0.0633
     58 H           8.6979    5.2003   -7.6042 H       1  UNL1        0.0377
     59 H           8.9661    6.5541   -8.7038 H       1  UNL1        0.0377
     60 H           6.5502    7.9450   -9.1753 H       1  UNL1        0.0620
     61 H           4.4093    7.4936  -10.3044 H       1  UNL1        0.0618
     62 H           3.5648    5.1839  -10.5121 H       1  UNL1        0.0620
     63 H           7.0492    3.7250   -8.4447 H       1  UNL1        0.0623
     64 H           3.6812    2.8388   -9.7049 H       1  UNL1        0.0278
     65 H           5.1182    2.2322   -8.8809 H       1  UNL1        0.0278
     66 H           5.1594    2.5092  -10.6399 H       1  UNL1        0.0278
@<TRIPOS>BOND
     1     1     2    1
     2     2     3    1
     3     3     4    1
     4     4     5    1
     5     5     6    1
     6     6     7    1
     7     1     6    1
     8     6     8    1
     9     8     9    1
    10     9    10   ar
    11    10    11   ar
    12     9    12   ar
    13    12    13   ar
    14    13    14   ar
    15    11    14   ar
    16    14    15    1
    17    15    16    1
    18    15    17   am
    19    17    18    2
    20    17    19    1
    21    19    20   ar
    22    20    21   ar
    23    20    22    1
    24    19    23   ar
    25    23    24   ar
    26    24    25   ar
    27    21    25   ar
    28    24    26   ar
    29    26    27   ar
    30    27    28   ar
    31    28    29    1
    32    25    28   ar
    33    26    30    1
    34    30    31    1
    35    31    32   ar
    36    32    33   ar
    37    33    34   ar
    38    34    35   ar
    39    35    36   ar
    40    31    36   ar
    41    35    37    1
    42     1    38    1
    43     1    39    1
    44     2    40    1
    45     2    41    1
    46     4    42    1
    47     4    43    1
    48     5    44    1
    49     5    45    1
    50     8    46    1
    51     8    47    1
    52    10    48    1
    53    11    49    1
    54    12    50    1
    55    13    51    1
    56    16    52    1
    57    16    53    1
    58    16    54    1
    59    21    55    1
    60    22    56    1
    61    23    57    1
    62    30    58    1
    63    30    59    1
    64    32    60    1
    65    33    61    1
    66    34    62    1
    67    36    63    1
    68    37    64    1
    69    37    65    1
    70    37    66    1
@<TRIPOS>MOLECULE
*****
 62 65 0 0 0
SMALL
GASTEIGER

@<TRIPOS>ATOM
      1 N           4.9137   -4.3477   -3.8545 N.4     1  UNL1        0.2202
      2 H           4.4104   -3.5609   -3.4171 H       1  UNL1        0.1995
      3 H           5.9096   -4.0949   -3.8636 H       1  UNL1        0.1995
      4 H           4.5889   -4.4496   -4.8229 H       1  UNL1        0.1995
      5 C           4.6601   -5.5705   -3.0404 C.3     1  UNL1       -0.0114
      6 C           5.0983   -5.3056   -1.6039 C.3     1  UNL1        0.0878
      7 O           4.4468   -4.1100   -1.1454 O.3     1  UNL1       -0.3700
      8 C           4.7367   -3.8316    0.2450 C.3     1  UNL1        0.0729
      9 C           6.2005   -3.5224    0.4017 C.ar    1  UNL1       -0.0218
     10 C           6.7511   -2.4792   -0.3287 C.ar    1  UNL1       -0.0546
     11 C           8.1442   -2.3203   -0.3872 C.ar    1  UNL1       -0.0399
     12 C           7.0485   -4.3340    1.1543 C.ar    1  UNL1       -0.0546
     13 C           8.4420   -4.1616    1.0980 C.ar    1  UNL1       -0.0399
     14 C           9.0365   -3.1779    0.2914 C.ar    1  UNL1        0.0363
     15 N          10.4800   -3.0432    0.1275 N.am    1  UNL1       -0.2704
     16 C          10.9616   -1.7766   -0.4168 C.3     1  UNL1        0.0086
     17 C          11.3932   -4.0999    0.4454 C.2     1  UNL1        0.2541
     18 O          11.0279   -5.2166    0.8383 O.2     1  UNL1       -0.2695
     19 C          12.8840   -3.9911    0.1703 C.ar    1  UNL1        0.0793
     20 C          13.5898   -2.7690    0.1761 C.ar    1  UNL1       -0.0351
     21 C          13.6072   -5.1555   -0.1623 C.ar    1  UNL1        0.1310
     22 O          13.0593   -6.4160   -0.1304 O.3     1  UNL1       -0.5059
     23 C          14.9541   -5.1152   -0.5500 C.ar    1  UNL1        0.0060
     24 C          15.5392   -3.8551   -0.6827 C.ar    1  UNL1        0.0695
     25 C          14.8800   -2.6714   -0.3828 C.ar    1  UNL1        0.0239
     26 N          16.7929   -3.4652   -1.0795 N.ar    1  UNL1       -0.2766
     27 H          17.5717   -4.0616   -1.3359 H       1  UNL1        0.1889
     28 N          16.9568   -2.1355   -1.1582 N.ar    1  UNL1       -0.1774
     29 C          15.7644   -1.6229   -0.8050 C.ar    1  UNL1        0.0748
     30 C          15.5318   -0.1266   -0.9156 C.3     1  UNL1        0.0171
     31 C          15.0596    0.2584   -2.3257 C.ar    1  UNL1       -0.0413
     32 C          15.3186   -0.5347   -3.4542 C.ar    1  UNL1       -0.0582
     33 C          14.8720   -0.1741   -4.7263 C.ar    1  UNL1       -0.0612
     34 C          14.2309    1.0404   -4.9261 C.ar    1  UNL1       -0.0588
     35 C          14.0664    1.9290   -3.8587 C.ar    1  UNL1       -0.0502
     36 C          14.4448    1.5171   -2.5597 C.ar    1  UNL1       -0.0553
     37 C          13.5069    3.2948   -4.1509 C.3     1  UNL1       -0.0397
     38 H           5.2145   -6.3934   -3.4965 H       1  UNL1        0.0836
     39 H           3.5837   -5.7524   -3.1008 H       1  UNL1        0.0836
     40 H           6.1852   -5.1676   -1.5943 H       1  UNL1        0.0613
     41 H           4.8348   -6.1515   -0.9618 H       1  UNL1        0.0613
     42 H           4.4189   -4.6784    0.8622 H       1  UNL1        0.0610
     43 H           4.1405   -2.9611    0.5410 H       1  UNL1        0.0610
     44 H           6.1226   -1.7984   -0.8944 H       1  UNL1        0.0622
     45 H           8.4662   -1.5283   -1.0453 H       1  UNL1        0.0636
     46 H           6.6469   -5.1369    1.7696 H       1  UNL1        0.0622
     47 H           9.0433   -4.8239    1.7185 H       1  UNL1        0.0636
     48 H          10.2305   -1.1242   -0.8784 H       1  UNL1        0.0433
     49 H          11.7094   -1.9591   -1.1915 H       1  UNL1        0.0433
     50 H          11.3609   -1.1942    0.4221 H       1  UNL1        0.0433
     51 H          13.1701   -1.8622    0.5771 H       1  UNL1        0.0633
     52 H          12.1837   -6.3529    0.3123 H       1  UNL1        0.2922
     53 H          15.4946   -6.0286   -0.7798 H       1  UNL1        0.0675
     54 H          16.4665    0.4083   -0.7040 H       1  UNL1        0.0377
     55 H          14.7848    0.1858   -0.1766 H       1  UNL1        0.0377
     56 H          15.8994   -1.4492   -3.3745 H       1  UNL1        0.0620
     57 H          15.0620   -0.8327   -5.5690 H       1  UNL1        0.0618
     58 H          13.9093    1.3110   -5.9296 H       1  UNL1        0.0620
     59 H          14.2946    2.2090   -1.7313 H       1  UNL1        0.0623
     60 H          13.6477    3.5524   -5.2108 H       1  UNL1        0.0278
     61 H          14.0287    4.0664   -3.5778 H       1  UNL1        0.0278
     62 H          12.4354    3.3353   -3.9388 H       1  UNL1        0.0278
@<TRIPOS>BOND
     1     1     2    1
     2     1     3    1
     3     1     4    1
     4     1     5    1
     5     5     6    1
     6     6     7    1
     7     7     8    1
     8     8     9    1
     9     9    10   ar
    10    10    11   ar
    11     9    12   ar
    12    12    13   ar
    13    13    14   ar
    14    11    14   ar
    15    14    15    1
    16    15    16    1
    17    15    17   am
    18    17    18    2
    19    17    19    1
    20    19    20   ar
    21    19    21   ar
    22    21    22    1
    23    21    23   ar
    24    23    24   ar
    25    24    25   ar
    26    20    25   ar
    27    24    26   ar
    28    26    27    1
    29    26    28   ar
    30    28    29   ar
    31    25    29   ar
    32    29    30    1
    33    30    31    1
    34    31    32   ar
    35    32    33   ar
    36    33    34   ar
    37    34    35   ar
    38    35    36   ar
    39    31    36   ar
    40    35    37    1
    41     5    38    1
    42     5    39    1
    43     6    40    1
    44     6    41    1
    45     8    42    1
    46     8    43    1
    47    10    44    1
    48    11    45    1
    49    12    46    1
    50    13    47    1
    51    16    48    1
    52    16    49    1
    53    16    50    1
    54    20    51    1
    55    22    52    1
    56    23    53    1
    57    30    54    1
    58    30    55    1
    59    32    56    1
    60    33    57    1
    61    34    58    1
    62    36    59    1
    63    37    60    1
    64    37    61    1
    65    37    62    1
@<TRIPOS>MOLECULE
*****
 53 56 0 0 0
SMALL
GASTEIGER

@<TRIPOS>ATOM
      1 C          -1.6339   -1.1734   -2.1672 C.ar    1  UNL1       -0.0553
      2 C          -1.6606   -1.7438   -3.4468 C.ar    1  UNL1       -0.0502
      3 C          -0.3896   -1.9417   -4.2126 C.3     1  UNL1       -0.0397
      4 C          -2.8967   -2.0343   -4.0445 C.ar    1  UNL1       -0.0588
      5 C          -4.0800   -1.7711   -3.3544 C.ar    1  UNL1       -0.0612
      6 C          -4.0427   -1.1785   -2.0959 C.ar    1  UNL1       -0.0582
      7 C          -2.8265   -0.8502   -1.4976 C.ar    1  UNL1       -0.0413
      8 C          -2.7666   -0.1852   -0.1480 C.3     1  UNL1        0.0171
      9 C          -3.3880    1.1721   -0.2730 C.ar    1  UNL1        0.0748
     10 N          -4.7028    1.3206   -0.0348 N.ar    1  UNL1       -0.1774
     11 N          -4.8946    2.6449   -0.0787 N.ar    1  UNL1       -0.2766
     12 H          -5.8323    2.9985    0.0714 H       1  UNL1        0.1889
     13 C          -2.7452    2.4335   -0.4726 C.ar    1  UNL1        0.0239
     14 C          -3.7473    3.3698   -0.2390 C.ar    1  UNL1        0.0695
     15 C          -1.4385    2.8932   -0.7497 C.ar    1  UNL1       -0.0351
     16 C          -1.1783    4.2783   -0.7072 C.ar    1  UNL1        0.0793
     17 C          -2.1953    5.1646   -0.3193 C.ar    1  UNL1        0.1310
     18 C          -3.5135    4.7428   -0.1520 C.ar    1  UNL1        0.0060
     19 O          -1.9584    6.4860   -0.0391 O.3     1  UNL1       -0.5059
     20 C           0.1810    4.8198   -1.0038 C.2     1  UNL1        0.2541
     21 O           0.5944    5.6702   -0.2087 O.2     1  UNL1       -0.2695
     22 N           0.9455    4.3368   -2.0889 N.am    1  UNL1       -0.2704
     23 C           2.3625    4.6899   -2.1264 C.3     1  UNL1        0.0086
     24 C           0.4186    3.6429   -3.2248 C.ar    1  UNL1        0.0365
     25 C          -0.8606    3.9228   -3.7093 C.ar    1  UNL1       -0.0368
     26 C          -1.4230    3.1567   -4.7319 C.ar    1  UNL1       -0.0182
     27 C          -0.7008    2.1325   -5.3372 C.ar    1  UNL1        0.1202
     28 O          -1.4133    1.3984   -6.2396 O.3     1  UNL1       -0.4951
     29 C          -0.6925    0.7794   -7.2937 C.3     1  UNL1        0.0788
     30 C           0.6131    1.9015   -4.9338 C.ar    1  UNL1       -0.0182
     31 C           1.1713    2.6615   -3.8903 C.ar    1  UNL1       -0.0368
     32 H          -0.6772   -0.9679   -1.6946 H       1  UNL1        0.0623
     33 H           0.4873   -1.8684   -3.5603 H       1  UNL1        0.0278
     34 H          -0.3073   -1.1719   -4.9795 H       1  UNL1        0.0278
     35 H          -0.3707   -2.9274   -4.6892 H       1  UNL1        0.0278
     36 H          -2.9346   -2.4527   -5.0402 H       1  UNL1        0.0620
     37 H          -5.0363   -1.9982   -3.8236 H       1  UNL1        0.0618
     38 H          -4.9858   -0.9629   -1.5877 H       1  UNL1        0.0620
     39 H          -1.7327   -0.0906    0.2061 H       1  UNL1        0.0377
     40 H          -3.2994   -0.7943    0.5935 H       1  UNL1        0.0377
     41 H          -0.6472    2.1862   -0.9778 H       1  UNL1        0.0633
     42 H          -4.2992    5.4446    0.1071 H       1  UNL1        0.0675
     43 H          -1.0175    6.5528    0.2397 H       1  UNL1        0.2922
     44 H           2.6049    5.4838   -1.4141 H       1  UNL1        0.0433
     45 H           2.6335    5.0464   -3.1263 H       1  UNL1        0.0433
     46 H           2.9609    3.8103   -1.8678 H       1  UNL1        0.0433
     47 H          -1.4513    4.7423   -3.3062 H       1  UNL1        0.0637
     48 H          -2.4432    3.3595   -5.0532 H       1  UNL1        0.0655
     49 H          -1.4138    0.2027   -7.8828 H       1  UNL1        0.0660
     50 H           0.0645    0.0780   -6.9348 H       1  UNL1        0.0660
     51 H          -0.2498    1.5352   -7.9483 H       1  UNL1        0.0660
     52 H           1.2093    1.1096   -5.3738 H       1  UNL1        0.0655
     53 H           2.1800    2.4152   -3.5677 H       1  UNL1        0.0637
@<TRIPOS>BOND
     1     1     2   ar
     2     2     3    1
     3     2     4   ar
     4     4     5   ar
     5     5     6   ar
     6     6     7   ar
     7     1     7   ar
     8     7     8    1
     9     8     9    1
    10     9    10   ar
    11    10    11   ar
    12    11    12    1
    13     9    13   ar
    14    13    14   ar
    15    11    14   ar
    16    13    15   ar
    17    15    16   ar
    18    16    17   ar
    19    17    18   ar
    20    14    18   ar
    21    17    19    1
    22    16    20    1
    23    20    21    2
    24    20    22   am
    25    22    23    1
    26    22    24    1
    27    24    25   ar
    28    25    26   ar
    29    26    27   ar
    30    27    28    1
    31    28    29    1
    32    27    30   ar
    33    30    31   ar
    34    24    31   ar
    35     1    32    1
    36     3    33    1
    37     3    34    1
    38     3    35    1
    39     4    36    1
    40     5    37    1
    41     6    38    1
    42     8    39    1
    43     8    40    1
    44    15    41    1
    45    18    42    1
    46    19    43    1
    47    23    44    1
    48    23    45    1
    49    23    46    1
    50    25    47    1
    51    26    48    1
    52    29    49    1
    53    29    50    1
    54    29    51    1
    55    30    52    1
    56    31    53    1
@<TRIPOS>MOLECULE
*****
 49 52 0 0 0
SMALL
GASTEIGER

@<TRIPOS>ATOM
      1 C          -1.6638   -1.1966   -2.1748 C.ar    1  UNL1       -0.0553
      2 C          -1.6990   -1.7662   -3.4535 C.ar    1  UNL1       -0.0502
      3 C          -0.4301   -1.9987   -4.2163 C.3     1  UNL1       -0.0397
      4 C          -2.9364   -2.0365   -4.0479 C.ar    1  UNL1       -0.0588
      5 C          -4.1203   -1.7578   -3.3675 C.ar    1  UNL1       -0.0612
      6 C          -4.0762   -1.1703   -2.1041 C.ar    1  UNL1       -0.0582
      7 C          -2.8476   -0.8503   -1.5063 C.ar    1  UNL1       -0.0413
      8 C          -2.7781   -0.1760   -0.1593 C.3     1  UNL1        0.0171
      9 C          -3.3962    1.1835   -0.2835 C.ar    1  UNL1        0.0748
     10 N          -4.7105    1.3375   -0.0466 N.ar    1  UNL1       -0.1774
     11 N          -4.8954    2.6635   -0.0764 N.ar    1  UNL1       -0.2766
     12 H          -5.8304    3.0211    0.0821 H       1  UNL1        0.1889
     13 C          -2.7477    2.4433   -0.4758 C.ar    1  UNL1        0.0239
     14 C          -3.7455    3.3838   -0.2398 C.ar    1  UNL1        0.0695
     15 C          -1.4384    2.8971   -0.7500 C.ar    1  UNL1       -0.0351
     16 C          -1.1716    4.2807   -0.7070 C.ar    1  UNL1        0.0793
     17 C          -2.1855    5.1718   -0.3221 C.ar    1  UNL1        0.1310
     18 C          -3.5055    4.7558   -0.1533 C.ar    1  UNL1        0.0060
     19 O          -1.9439    6.4936   -0.0475 O.3     1  UNL1       -0.5059
     20 C           0.1902    4.8165   -1.0010 C.2     1  UNL1        0.2541
     21 O           0.5992    5.6766   -0.2140 O.2     1  UNL1       -0.2695
     22 N           0.9582    4.3203   -2.0735 N.am    1  UNL1       -0.2704
     23 C           2.3764    4.6808   -2.1106 C.3     1  UNL1        0.0086
     24 C           0.4458    3.6129   -3.2060 C.ar    1  UNL1        0.0363
     25 C          -0.8275    3.8982   -3.7216 C.ar    1  UNL1       -0.0389
     26 C          -1.3691    3.1466   -4.7745 C.ar    1  UNL1       -0.0416
     27 C          -0.6149    2.1287   -5.3564 C.ar    1  UNL1        0.0411
     28 CL         -1.2927    1.1949   -6.6219 Cl      1  UNL1       -0.0835
     29 C           0.6801    1.8846   -4.9085 C.ar    1  UNL1       -0.0416
     30 C           1.2153    2.6335   -3.8450 C.ar    1  UNL1       -0.0389
     31 H          -0.7028   -1.0081   -1.7011 H       1  UNL1        0.0623
     32 H           0.4474   -1.9266   -3.5655 H       1  UNL1        0.0278
     33 H          -0.3336   -1.2403   -4.9978 H       1  UNL1        0.0278
     34 H          -0.4256   -2.9906   -4.6776 H       1  UNL1        0.0278
     35 H          -2.9847   -2.4549   -5.0504 H       1  UNL1        0.0620
     36 H          -5.0796   -1.9746   -3.8299 H       1  UNL1        0.0618
     37 H          -5.0100   -0.9391   -1.5936 H       1  UNL1        0.0620
     38 H          -1.7400   -0.0802    0.1804 H       1  UNL1        0.0377
     39 H          -3.3024   -0.7796    0.5909 H       1  UNL1        0.0377
     40 H          -0.6511    2.1857   -0.9769 H       1  UNL1        0.0633
     41 H          -4.2872    5.4624    0.1051 H       1  UNL1        0.0675
     42 H          -1.0056    6.5558    0.2412 H       1  UNL1        0.2922
     43 H           2.6122    5.4815   -1.4037 H       1  UNL1        0.0433
     44 H           2.6457    5.0322   -3.1134 H       1  UNL1        0.0433
     45 H           2.9785    3.8071   -1.8459 H       1  UNL1        0.0433
     46 H          -1.4248    4.7149   -3.3214 H       1  UNL1        0.0637
     47 H          -2.3688    3.3709   -5.1284 H       1  UNL1        0.0633
     48 H           1.2712    1.1020   -5.3742 H       1  UNL1        0.0633
     49 H           2.2179    2.3871   -3.5117 H       1  UNL1        0.0637
@<TRIPOS>BOND
     1     1     2   ar
     2     2     3    1
     3     2     4   ar
     4     4     5   ar
     5     5     6   ar
     6     6     7   ar
     7     1     7   ar
     8     7     8    1
     9     8     9    1
    10     9    10   ar
    11    10    11   ar
    12    11    12    1
    13     9    13   ar
    14    13    14   ar
    15    11    14   ar
    16    13    15   ar
    17    15    16   ar
    18    16    17   ar
    19    17    18   ar
    20    14    18   ar
    21    17    19    1
    22    16    20    1
    23    20    21    2
    24    20    22   am
    25    22    23    1
    26    22    24    1
    27    24    25   ar
    28    25    26   ar
    29    26    27   ar
    30    27    28    1
    31    27    29   ar
    32    29    30   ar
    33    24    30   ar
    34     1    31    1
    35     3    32    1
    36     3    33    1
    37     3    34    1
    38     4    35    1
    39     5    36    1
    40     6    37    1
    41     8    38    1
    42     8    39    1
    43    15    40    1
    44    18    41    1
    45    19    42    1
    46    23    43    1
    47    23    44    1
    48    23    45    1
    49    25    46    1
    50    26    47    1
    51    29    48    1
    52    30    49    1
@<TRIPOS>MOLECULE
*****
 60 63 0 0 0
SMALL
GASTEIGER

@<TRIPOS>ATOM
      1 O           3.0989   -1.4252   -0.5720 O.2     1  UNL1       -0.2695
      2 C           2.3154   -0.4762   -0.6715 C.2     1  UNL1        0.2541
      3 N           0.9219   -0.5687   -0.3970 N.am    1  UNL1       -0.2704
      4 C          -0.0334    0.4013   -0.9337 C.3     1  UNL1        0.0086
      5 C           0.3811   -1.7174    0.3094 C.ar    1  UNL1        0.0365
      6 C           1.2076   -2.5568    1.0690 C.ar    1  UNL1       -0.0368
      7 C           0.7245   -3.7108    1.6960 C.ar    1  UNL1       -0.0182
      8 C          -0.6152   -4.0620    1.6050 C.ar    1  UNL1        0.1206
      9 O          -1.1718   -5.1921    2.1474 O.3     1  UNL1       -0.4919
     10 C          -0.2403   -6.0766    2.7756 C.3     1  UNL1        0.0905
     11 C          -0.9463   -7.3262    3.2787 C.3     1  UNL1       -0.0059
     12 C          -1.5416   -8.1337    2.1355 C.3     1  UNL1        0.0379
     13 C          -2.1910   -9.3894    2.6939 C.1     1  UNL1        0.0626
     14 N          -2.7297  -10.4312    3.1570 N.1     1  UNL1       -0.1966
     15 C          -1.4748   -3.2137    0.9144 C.ar    1  UNL1       -0.0182
     16 C          -0.9848   -2.0517    0.2869 C.ar    1  UNL1       -0.0368
     17 C           2.9487    0.7802   -1.1829 C.ar    1  UNL1        0.0793
     18 C           4.0786    0.6635   -2.0208 C.ar    1  UNL1        0.1310
     19 O           4.6293   -0.5466   -2.3740 O.3     1  UNL1       -0.5059
     20 C           4.7432    1.7758   -2.5399 C.ar    1  UNL1        0.0060
     21 C           4.2490    3.0293   -2.1814 C.ar    1  UNL1        0.0695
     22 N           4.6686    4.2873   -2.5117 N.ar    1  UNL1       -0.2766
     23 H           5.4447    4.5394   -3.1132 H       1  UNL1        0.1889
     24 N           3.9506    5.2720   -1.9528 N.ar    1  UNL1       -0.1774
     25 C           3.0367    4.6306   -1.2060 C.ar    1  UNL1        0.0748
     26 C           2.0707    5.4412   -0.3877 C.3     1  UNL1        0.0171
     27 C           2.1776    4.9669    1.0444 C.ar    1  UNL1       -0.0413
     28 C           3.4263    4.8429    1.6759 C.ar    1  UNL1       -0.0553
     29 C           3.5405    4.2409    2.9321 C.ar    1  UNL1       -0.0502
     30 C           4.8931    3.8836    3.4715 C.3     1  UNL1       -0.0397
     31 C           2.3801    3.8661    3.6158 C.ar    1  UNL1       -0.0588
     32 C           1.1258    4.0796    3.0441 C.ar    1  UNL1       -0.0612
     33 C           1.0238    4.6167    1.7603 C.ar    1  UNL1       -0.0582
     34 C           3.1665    3.2088   -1.3287 C.ar    1  UNL1        0.0239
     35 C           2.5253    2.0664   -0.7946 C.ar    1  UNL1       -0.0351
     36 H           0.4116    1.0419   -1.6949 H       1  UNL1        0.0433
     37 H          -0.4036    1.0119   -0.1040 H       1  UNL1        0.0433
     38 H          -0.8655   -0.0915   -1.4395 H       1  UNL1        0.0433
     39 H           2.2615   -2.3464    1.2150 H       1  UNL1        0.0637
     40 H           1.4462   -4.3080    2.2433 H       1  UNL1        0.0655
     41 H           0.2177   -5.5774    3.6362 H       1  UNL1        0.0697
     42 H           0.5346   -6.3798    2.0599 H       1  UNL1        0.0697
     43 H          -1.7415   -7.0427    3.9830 H       1  UNL1        0.0308
     44 H          -0.2259   -7.9396    3.8318 H       1  UNL1        0.0308
     45 H          -0.7682   -8.4232    1.4157 H       1  UNL1        0.0419
     46 H          -2.3026   -7.5551    1.6005 H       1  UNL1        0.0419
     47 H          -2.5334   -3.4546    0.8425 H       1  UNL1        0.0655
     48 H          -1.7197   -1.4538   -0.2421 H       1  UNL1        0.0637
     49 H           4.2519   -1.2274   -1.7704 H       1  UNL1        0.2922
     50 H           5.6144    1.6567   -3.1758 H       1  UNL1        0.0675
     51 H           1.0584    5.2944   -0.7813 H       1  UNL1        0.0377
     52 H           2.2995    6.5124   -0.4340 H       1  UNL1        0.0377
     53 H           4.3274    5.1575    1.1494 H       1  UNL1        0.0623
     54 H           5.6902    4.4045    2.9303 H       1  UNL1        0.0278
     55 H           5.0528    2.8067    3.3493 H       1  UNL1        0.0278
     56 H           4.9777    4.1439    4.5300 H       1  UNL1        0.0278
     57 H           2.4494    3.3896    4.5909 H       1  UNL1        0.0620
     58 H           0.2286    3.7944    3.5875 H       1  UNL1        0.0618
     59 H           0.0387    4.7376    1.3155 H       1  UNL1        0.0620
     60 H           1.7229    2.1970   -0.0779 H       1  UNL1        0.0633
@<TRIPOS>BOND
     1     1     2    2
     2     2     3   am
     3     3     4    1
     4     3     5    1
     5     5     6   ar
     6     6     7   ar
     7     7     8   ar
     8     8     9    1
     9     9    10    1
    10    10    11    1
    11    11    12    1
    12    12    13    1
    13    13    14    3
    14     8    15   ar
    15    15    16   ar
    16     5    16   ar
    17     2    17    1
    18    17    18   ar
    19    18    19    1
    20    18    20   ar
    21    20    21   ar
    22    21    22   ar
    23    22    23    1
    24    22    24   ar
    25    24    25   ar
    26    25    26    1
    27    26    27    1
    28    27    28   ar
    29    28    29   ar
    30    29    30    1
    31    29    31   ar
    32    31    32   ar
    33    32    33   ar
    34    27    33   ar
    35    25    34   ar
    36    21    34   ar
    37    34    35   ar
    38    17    35   ar
    39     4    36    1
    40     4    37    1
    41     4    38    1
    42     6    39    1
    43     7    40    1
    44    10    41    1
    45    10    42    1
    46    11    43    1
    47    11    44    1
    48    12    45    1
    49    12    46    1
    50    15    47    1
    51    16    48    1
    52    19    49    1
    53    20    50    1
    54    26    51    1
    55    26    52    1
    56    28    53    1
    57    30    54    1
    58    30    55    1
    59    30    56    1
    60    31    57    1
    61    32    58    1
    62    33    59    1
    63    35    60    1
@<TRIPOS>MOLECULE
*****
 50 53 0 0 0
SMALL
GASTEIGER

@<TRIPOS>ATOM
      1 C          -0.3916   -0.5351   -0.8716 C.ar    1  UNL1       -0.0368
      2 C           0.9808   -0.5562   -0.6001 C.ar    1  UNL1       -0.0184
      3 C           1.5253    0.4269    0.2001 C.ar    1  UNL1        0.1170
      4 O           2.8432    0.4067    0.5413 O.3     1  UNL1       -0.5068
      5 C           0.7249    1.4542    0.6743 C.ar    1  UNL1       -0.0184
      6 C          -0.6591    1.4562    0.4116 C.ar    1  UNL1       -0.0368
      7 C          -1.2694    0.4286   -0.3242 C.ar    1  UNL1        0.0365
      8 N          -2.7177    0.3009   -0.4874 N.am    1  UNL1       -0.2704
      9 C          -3.2046   -1.0208   -0.8870 C.3     1  UNL1        0.0086
     10 C          -3.6362    1.3471   -0.1493 C.2     1  UNL1        0.2541
     11 O          -3.2928    2.4952    0.1430 O.2     1  UNL1       -0.2695
     12 C          -5.1448    1.1528   -0.2313 C.ar    1  UNL1        0.0793
     13 C          -5.7910   -0.0849   -0.0234 C.ar    1  UNL1       -0.0351
     14 C          -5.9555    2.2620   -0.5479 C.ar    1  UNL1        0.1310
     15 O          -5.4693    3.5432   -0.6677 O.3     1  UNL1       -0.5059
     16 C          -7.3366    2.1448   -0.7648 C.ar    1  UNL1        0.0060
     17 C          -7.8788    0.8565   -0.7319 C.ar    1  UNL1        0.0695
     18 C          -7.1385   -0.2692   -0.3994 C.ar    1  UNL1        0.0239
     19 N          -9.1431    0.3942   -0.9683 N.ar    1  UNL1       -0.2766
     20 H          -9.9682    0.9407   -1.1875 H       1  UNL1        0.1889
     21 N          -9.2577   -0.9439   -0.9252 N.ar    1  UNL1       -0.1774
     22 C          -8.0271   -1.3785   -0.6009 C.ar    1  UNL1        0.0748
     23 C          -7.7751   -2.8686   -0.5240 C.3     1  UNL1        0.0171
     24 C          -6.8902   -3.3525   -1.6704 C.ar    1  UNL1       -0.0413
     25 C          -6.7519   -2.6573   -2.8793 C.ar    1  UNL1       -0.0582
     26 C          -5.9179   -3.1288   -3.8955 C.ar    1  UNL1       -0.0612
     27 C          -5.2770   -4.3556   -3.7713 C.ar    1  UNL1       -0.0588
     28 C          -5.4993   -5.1499   -2.6454 C.ar    1  UNL1       -0.0502
     29 C          -6.2676   -4.6241   -1.5834 C.ar    1  UNL1       -0.0553
     30 C          -4.9230   -6.5391   -2.6127 C.3     1  UNL1       -0.0397
     31 H          -0.7192   -1.3087   -1.5541 H       1  UNL1        0.0637
     32 H           1.5907   -1.3468   -1.0251 H       1  UNL1        0.0655
     33 H           3.2097   -0.4591    0.2935 H       1  UNL1        0.2921
     34 H           1.1651    2.2472    1.2731 H       1  UNL1        0.0655
     35 H          -1.2261    2.2725    0.8464 H       1  UNL1        0.0637
     36 H          -2.5163   -1.6389   -1.4514 H       1  UNL1        0.0433
     37 H          -4.0744   -0.9262   -1.5371 H       1  UNL1        0.0433
     38 H          -3.4299   -1.5697    0.0333 H       1  UNL1        0.0433
     39 H          -5.2791   -0.9460    0.3733 H       1  UNL1        0.0633
     40 H          -4.5319    3.5394   -0.3662 H       1  UNL1        0.2922
     41 H          -7.9388    3.0172   -1.0001 H       1  UNL1        0.0675
     42 H          -8.7287   -3.4087   -0.5835 H       1  UNL1        0.0377
     43 H          -7.3107   -3.1060    0.4392 H       1  UNL1        0.0377
     44 H          -7.3068   -1.7409   -3.0615 H       1  UNL1        0.0620
     45 H          -5.7948   -2.5448   -4.8022 H       1  UNL1        0.0618
     46 H          -4.6413   -4.7085   -4.5813 H       1  UNL1        0.0620
     47 H          -6.4172   -5.2373   -0.6936 H       1  UNL1        0.0623
     48 H          -4.7398   -6.9018   -3.6325 H       1  UNL1        0.0278
     49 H          -5.6245   -7.2451   -2.1570 H       1  UNL1        0.0278
     50 H          -3.9742   -6.5608   -2.0697 H       1  UNL1        0.0278
@<TRIPOS>BOND
     1     1     2   ar
     2     2     3   ar
     3     3     4    1
     4     3     5   ar
     5     5     6   ar
     6     6     7   ar
     7     1     7   ar
     8     7     8    1
     9     8     9    1
    10     8    10   am
    11    10    11    2
    12    10    12    1
    13    12    13   ar
    14    12    14   ar
    15    14    15    1
    16    14    16   ar
    17    16    17   ar
    18    17    18   ar
    19    13    18   ar
    20    17    19   ar
    21    19    20    1
    22    19    21   ar
    23    21    22   ar
    24    18    22   ar
    25    22    23    1
    26    23    24    1
    27    24    25   ar
    28    25    26   ar
    29    26    27   ar
    30    27    28   ar
    31    28    29   ar
    32    24    29   ar
    33    28    30    1
    34     1    31    1
    35     2    32    1
    36     4    33    1
    37     5    34    1
    38     6    35    1
    39     9    36    1
    40     9    37    1
    41     9    38    1
    42    13    39    1
    43    15    40    1
    44    16    41    1
    45    23    42    1
    46    23    43    1
    47    25    44    1
    48    26    45    1
    49    27    46    1
    50    29    47    1
    51    30    48    1
    52    30    49    1
    53    30    50    1
@<TRIPOS>MOLECULE
*****
 49 52 0 0 0
SMALL
GASTEIGER

@<TRIPOS>ATOM
      1 C          -1.6740   -1.1153   -2.2039 C.ar    1  UNL1       -0.0553
      2 C          -1.7194   -1.6736   -3.4876 C.ar    1  UNL1       -0.0502
      3 C          -0.4585   -1.8890   -4.2682 C.3     1  UNL1       -0.0397
      4 C          -2.9613   -1.9539   -4.0681 C.ar    1  UNL1       -0.0588
      5 C          -4.1394   -1.6909   -3.3719 C.ar    1  UNL1       -0.0612
      6 C          -4.0857   -1.1181   -2.1022 C.ar    1  UNL1       -0.0582
      7 C          -2.8531   -0.7968   -1.5134 C.ar    1  UNL1       -0.0413
      8 C          -2.7773   -0.1534   -0.1514 C.3     1  UNL1        0.0171
      9 C          -3.3943    1.2079   -0.2441 C.ar    1  UNL1        0.0748
     10 N          -4.7057    1.3629    0.0076 N.ar    1  UNL1       -0.1774
     11 N          -4.8881    2.6902   -0.0158 N.ar    1  UNL1       -0.2766
     12 H          -5.8224    3.0491    0.1435 H       1  UNL1        0.1889
     13 C          -2.7443    2.4671   -0.4269 C.ar    1  UNL1        0.0239
     14 C          -3.7371    3.4091   -0.1775 C.ar    1  UNL1        0.0695
     15 C          -1.4357    2.9176   -0.7065 C.ar    1  UNL1       -0.0351
     16 C          -1.1617    4.2999   -0.6672 C.ar    1  UNL1        0.0793
     17 C          -2.1710    5.1951   -0.2726 C.ar    1  UNL1        0.1310
     18 C          -3.4908    4.7805   -0.0835 C.ar    1  UNL1        0.0060
     19 O          -1.9235    6.5165   -0.0049 O.3     1  UNL1       -0.5059
     20 C           0.1880    4.8254   -0.9821 C.2     1  UNL1        0.2541
     21 O           0.6118    5.7025   -0.2188 O.2     1  UNL1       -0.2695
     22 N           0.9398    4.3264   -2.0691 N.am    1  UNL1       -0.2703
     23 C           2.3556    4.6868   -2.1286 C.3     1  UNL1        0.0086
     24 C           0.4105    3.6063   -3.1899 C.ar    1  UNL1        0.0390
     25 C          -0.8763    3.8559   -3.6821 C.ar    1  UNL1       -0.0050
     26 C          -1.3892    3.0902   -4.7235 C.ar    1  UNL1        0.1252
     27 F          -2.6361    3.3265   -5.1602 F       1  UNL1       -0.2054
     28 C          -0.6343    2.0935   -5.3191 C.ar    1  UNL1       -0.0263
     29 C           0.6667    1.8712   -4.8896 C.ar    1  UNL1       -0.0573
     30 C           1.1909    2.6333   -3.8402 C.ar    1  UNL1       -0.0401
     31 H          -0.7093   -0.9166   -1.7418 H       1  UNL1        0.0623
     32 H           0.4266   -1.8190   -3.6273 H       1  UNL1        0.0278
     33 H          -0.3786   -1.1227   -5.0450 H       1  UNL1        0.0278
     34 H          -0.4536   -2.8771   -4.7383 H       1  UNL1        0.0278
     35 H          -3.0184   -2.3696   -5.0711 H       1  UNL1        0.0620
     36 H          -5.1024   -1.9119   -3.8246 H       1  UNL1        0.0618
     37 H          -5.0153   -0.9010   -1.5781 H       1  UNL1        0.0620
     38 H          -1.7376   -0.0673    0.1864 H       1  UNL1        0.0377
     39 H          -3.2989   -0.7737    0.5869 H       1  UNL1        0.0377
     40 H          -0.6512    2.2035   -0.9368 H       1  UNL1        0.0633
     41 H          -4.2693    5.4878    0.1829 H       1  UNL1        0.0675
     42 H          -0.9697    6.5874    0.2252 H       1  UNL1        0.2922
     43 H           2.5996    5.5042   -1.4414 H       1  UNL1        0.0433
     44 H           2.6101    5.0133   -3.1424 H       1  UNL1        0.0433
     45 H           2.9647    3.8208   -1.8548 H       1  UNL1        0.0433
     46 H          -1.4999    4.6531   -3.2894 H       1  UNL1        0.0665
     47 H          -1.0703    1.5008   -6.1254 H       1  UNL1        0.0646
     48 H           1.2704    1.0992   -5.3606 H       1  UNL1        0.0619
     49 H           2.2006    2.4088   -3.5062 H       1  UNL1        0.0636
@<TRIPOS>BOND
     1     1     2   ar
     2     2     3    1
     3     2     4   ar
     4     4     5   ar
     5     5     6   ar
     6     6     7   ar
     7     1     7   ar
     8     7     8    1
     9     8     9    1
    10     9    10   ar
    11    10    11   ar
    12    11    12    1
    13     9    13   ar
    14    13    14   ar
    15    11    14   ar
    16    13    15   ar
    17    15    16   ar
    18    16    17   ar
    19    17    18   ar
    20    14    18   ar
    21    17    19    1
    22    16    20    1
    23    20    21    2
    24    20    22   am
    25    22    23    1
    26    22    24    1
    27    24    25   ar
    28    25    26   ar
    29    26    27    1
    30    26    28   ar
    31    28    29   ar
    32    29    30   ar
    33    24    30   ar
    34     1    31    1
    35     3    32    1
    36     3    33    1
    37     3    34    1
    38     4    35    1
    39     5    36    1
    40     6    37    1
    41     8    38    1
    42     8    39    1
    43    15    40    1
    44    18    41    1
    45    19    42    1
    46    23    43    1
    47    23    44    1
    48    23    45    1
    49    25    46    1
    50    28    47    1
    51    29    48    1
    52    30    49    1
@<TRIPOS>MOLECULE
*****
 54 57 0 0 0
SMALL
GASTEIGER

@<TRIPOS>ATOM
      1 C          -3.5744   -0.5451   -2.5969 C.ar    1  UNL1       -0.0553
      2 C          -3.8482   -1.4594   -3.6251 C.ar    1  UNL1       -0.0502
      3 C          -4.7648   -1.0749   -4.7492 C.3     1  UNL1       -0.0397
      4 C          -3.3599   -2.7674   -3.5340 C.ar    1  UNL1       -0.0588
      5 C          -2.6111   -3.1589   -2.4290 C.ar    1  UNL1       -0.0612
      6 C          -2.3803   -2.2549   -1.3925 C.ar    1  UNL1       -0.0582
      7 C          -2.8794   -0.9387   -1.4454 C.ar    1  UNL1       -0.0413
      8 C          -2.6955   -0.0945   -0.2034 C.3     1  UNL1        0.0171
      9 C          -3.3585    1.2402   -0.3090 C.ar    1  UNL1        0.0748
     10 N          -4.6735    1.3703   -0.0663 N.ar    1  UNL1       -0.1774
     11 N          -4.8767    2.6962   -0.0653 N.ar    1  UNL1       -0.2766
     12 H          -5.8161    3.0374    0.1071 H       1  UNL1        0.1889
     13 C          -2.7305    2.5079   -0.4783 C.ar    1  UNL1        0.0239
     14 C          -3.7360    3.4343   -0.2235 C.ar    1  UNL1        0.0695
     15 C          -1.4266    2.9679   -0.7447 C.ar    1  UNL1       -0.0351
     16 C          -1.1671    4.3497   -0.6917 C.ar    1  UNL1        0.0793
     17 C          -2.1820    5.2301   -0.2876 C.ar    1  UNL1        0.1310
     18 C          -3.5006    4.8063   -0.1159 C.ar    1  UNL1        0.0060
     19 O          -1.9412    6.5488    0.0002 O.3     1  UNL1       -0.5059
     20 C           0.1883    4.8840   -1.0076 C.2     1  UNL1        0.2541
     21 O           0.6168    5.7403   -0.2252 O.2     1  UNL1       -0.2695
     22 N           0.9357    4.3821   -2.0949 N.am    1  UNL1       -0.2704
     23 C           2.3585    4.7111   -2.1445 C.3     1  UNL1        0.0086
     24 C           0.3851    3.6864   -3.2199 C.ar    1  UNL1        0.0363
     25 C          -0.8934    3.9909   -3.6973 C.ar    1  UNL1       -0.0396
     26 C          -1.4835    3.2301   -4.7081 C.ar    1  UNL1       -0.0495
     27 C          -0.8077    2.1518   -5.2872 C.ar    1  UNL1        0.0172
     28 C          -1.5610    1.3337   -6.2948 C.2     1  UNL1        0.1601
     29 O          -2.7231    1.6489   -6.5678 O.2     1  UNL1       -0.2924
     30 C          -0.9567    0.1213   -6.9408 C.3     1  UNL1       -0.0014
     31 C           0.5042    1.8966   -4.8871 C.ar    1  UNL1       -0.0495
     32 C           1.1041    2.6701   -3.8685 C.ar    1  UNL1       -0.0396
     33 H          -3.9695    0.4647   -2.6862 H       1  UNL1        0.0623
     34 H          -4.9424    0.0052   -4.7705 H       1  UNL1        0.0278
     35 H          -5.7311   -1.5724   -4.6116 H       1  UNL1        0.0278
     36 H          -4.3422   -1.3668   -5.7149 H       1  UNL1        0.0278
     37 H          -3.5906   -3.4943   -4.3088 H       1  UNL1        0.0620
     38 H          -2.2467   -4.1799   -2.3506 H       1  UNL1        0.0618
     39 H          -1.8397   -2.5973   -0.5113 H       1  UNL1        0.0620
     40 H          -1.6268    0.0269    0.0066 H       1  UNL1        0.0377
     41 H          -3.1401   -0.6308    0.6458 H       1  UNL1        0.0377
     42 H          -0.6368    2.2611   -0.9790 H       1  UNL1        0.0633
     43 H          -4.2857    5.5049    0.1563 H       1  UNL1        0.0675
     44 H          -0.9955    6.6145    0.2620 H       1  UNL1        0.2922
     45 H           2.6188    5.4877   -1.4256 H       1  UNL1        0.0433
     46 H           2.6228    5.0734   -3.1439 H       1  UNL1        0.0433
     47 H           2.9440    3.8191   -1.9013 H       1  UNL1        0.0433
     48 H          -1.4594    4.8279   -3.3000 H       1  UNL1        0.0636
     49 H          -2.4943    3.4795   -5.0244 H       1  UNL1        0.0625
     50 H           0.1125    0.0064   -6.7608 H       1  UNL1        0.0309
     51 H          -1.0980    0.1987   -8.0222 H       1  UNL1        0.0309
     52 H          -1.4699   -0.7722   -6.5715 H       1  UNL1        0.0309
     53 H           1.1023    1.0953   -5.3217 H       1  UNL1        0.0625
     54 H           2.1134    2.4167   -3.5616 H       1  UNL1        0.0636
@<TRIPOS>BOND
     1     1     2   ar
     2     2     3    1
     3     2     4   ar
     4     4     5   ar
     5     5     6   ar
     6     6     7   ar
     7     1     7   ar
     8     7     8    1
     9     8     9    1
    10     9    10   ar
    11    10    11   ar
    12    11    12    1
    13     9    13   ar
    14    13    14   ar
    15    11    14   ar
    16    13    15   ar
    17    15    16   ar
    18    16    17   ar
    19    17    18   ar
    20    14    18   ar
    21    17    19    1
    22    16    20    1
    23    20    21    2
    24    20    22   am
    25    22    23    1
    26    22    24    1
    27    24    25   ar
    28    25    26   ar
    29    26    27   ar
    30    27    28    1
    31    28    29    2
    32    28    30    1
    33    27    31   ar
    34    31    32   ar
    35    24    32   ar
    36     1    33    1
    37     3    34    1
    38     3    35    1
    39     3    36    1
    40     4    37    1
    41     5    38    1
    42     6    39    1
    43     8    40    1
    44     8    41    1
    45    15    42    1
    46    18    43    1
    47    19    44    1
    48    23    45    1
    49    23    46    1
    50    23    47    1
    51    25    48    1
    52    26    49    1
    53    30    50    1
    54    30    51    1
    55    30    52    1
    56    31    53    1
    57    32    54    1
@<TRIPOS>MOLECULE
*****
 60 63 0 0 0
SMALL
GASTEIGER

@<TRIPOS>ATOM
      1 C          -3.7258   -1.8784   -1.6942 C.ar    1  UNL1       -0.0553
      2 C          -3.5612   -2.8681   -2.6728 C.ar    1  UNL1       -0.0502
      3 C          -4.5080   -4.0301   -2.7532 C.3     1  UNL1       -0.0397
      4 C          -2.4273   -2.8336   -3.4927 C.ar    1  UNL1       -0.0588
      5 C          -1.4737   -1.8276   -3.3360 C.ar    1  UNL1       -0.0612
      6 C          -1.6216   -0.8723   -2.3295 C.ar    1  UNL1       -0.0582
      7 C          -2.7332   -0.9070   -1.4757 C.ar    1  UNL1       -0.0413
      8 C          -2.7564   -0.0889   -0.2112 C.3     1  UNL1        0.0171
      9 C          -3.4020    1.2351   -0.4298 C.ar    1  UNL1        0.0748
     10 N          -4.7284    1.3725   -0.2373 N.ar    1  UNL1       -0.1774
     11 N          -4.9088    2.7003   -0.1829 N.ar    1  UNL1       -0.2766
     12 H          -5.8430    3.0482    0.0044 H       1  UNL1        0.1889
     13 C          -2.7597    2.5004   -0.5630 C.ar    1  UNL1        0.0239
     14 C          -3.7570    3.4286   -0.2999 C.ar    1  UNL1        0.0695
     15 C          -1.4417    2.9587   -0.7780 C.ar    1  UNL1       -0.0351
     16 C          -1.1740    4.3382   -0.6931 C.ar    1  UNL1        0.0793
     17 C          -2.1885    5.2162   -0.2843 C.ar    1  UNL1        0.1310
     18 C          -3.5115    4.7971   -0.1393 C.ar    1  UNL1        0.0060
     19 O          -1.9430    6.5286    0.0334 O.3     1  UNL1       -0.5059
     20 C           0.1894    4.8724   -0.9848 C.2     1  UNL1        0.2541
     21 O           0.6092    5.7154   -0.1870 O.2     1  UNL1       -0.2695
     22 N           0.9426    4.3874   -2.0737 N.am    1  UNL1       -0.2704
     23 C           2.3678    4.7113   -2.1162 C.3     1  UNL1        0.0086
     24 C           0.4007    3.7147   -3.2159 C.ar    1  UNL1        0.0363
     25 C          -0.8715    4.0374   -3.7005 C.ar    1  UNL1       -0.0400
     26 C          -1.4683    3.2799   -4.7106 C.ar    1  UNL1       -0.0555
     27 C          -0.7915    2.2013   -5.2876 C.ar    1  UNL1       -0.0318
     28 C           0.5259    1.9470   -4.8887 C.ar    1  UNL1       -0.0555
     29 C           1.1208    2.7056   -3.8704 C.ar    1  UNL1       -0.0400
     30 C          -1.5083    1.2747   -6.2423 C.3     1  UNL1        0.0421
     31 N          -2.1627    1.9993   -7.3351 N.3     1  UNL1       -0.1905
     32 S          -3.1146    1.0798   -8.3737 S.O2    1  UNL1        0.0268
     33 O          -3.5031    1.9722   -9.4422 O.2     1  UNL1       -0.1585
     34 O          -2.3963   -0.1493   -8.6400 O.2     1  UNL1       -0.1585
     35 C          -4.5499    0.7169   -7.3782 C.3     1  UNL1        0.0705
     36 H          -4.5969   -1.9074   -1.0403 H       1  UNL1        0.0623
     37 H          -5.4106   -3.8573   -2.1587 H       1  UNL1        0.0278
     38 H          -4.0161   -4.9270   -2.3619 H       1  UNL1        0.0278
     39 H          -4.8143   -4.2145   -3.7868 H       1  UNL1        0.0278
     40 H          -2.2643   -3.6143   -4.2324 H       1  UNL1        0.0620
     41 H          -0.5824   -1.8287   -3.9574 H       1  UNL1        0.0618
     42 H          -0.8286   -0.1461   -2.1702 H       1  UNL1        0.0620
     43 H          -1.7340    0.0368    0.1671 H       1  UNL1        0.0377
     44 H          -3.2913   -0.6387    0.5739 H       1  UNL1        0.0377
     45 H          -0.6513    2.2531   -1.0088 H       1  UNL1        0.0633
     46 H          -4.2915    5.4951    0.1450 H       1  UNL1        0.0675
     47 H          -0.9947    6.5901    0.2879 H       1  UNL1        0.2922
     48 H           2.6320    5.4775   -1.3820 H       1  UNL1        0.0433
     49 H           2.6316    5.0922   -3.1089 H       1  UNL1        0.0433
     50 H           2.9517    3.8131   -1.8934 H       1  UNL1        0.0433
     51 H          -1.4265    4.8803   -3.2994 H       1  UNL1        0.0636
     52 H          -2.4822    3.5245   -5.0230 H       1  UNL1        0.0621
     53 H           1.0893    1.1312   -5.3383 H       1  UNL1        0.0621
     54 H           2.1273    2.4379   -3.5595 H       1  UNL1        0.0636
     55 H          -2.2519    0.7275   -5.6542 H       1  UNL1        0.0490
     56 H          -0.7998    0.5506   -6.6580 H       1  UNL1        0.0490
     57 H          -1.5400    2.6031   -7.8742 H       1  UNL1        0.1480
     58 H          -5.0120    1.6542   -7.0632 H       1  UNL1        0.0479
     59 H          -4.2505    0.1142   -6.5201 H       1  UNL1        0.0479
     60 H          -5.2461    0.1443   -7.9939 H       1  UNL1        0.0479
@<TRIPOS>BOND
     1     1     2   ar
     2     2     3    1
     3     2     4   ar
     4     4     5   ar
     5     5     6   ar
     6     6     7   ar
     7     1     7   ar
     8     7     8    1
     9     8     9    1
    10     9    10   ar
    11    10    11   ar
    12    11    12    1
    13     9    13   ar
    14    13    14   ar
    15    11    14   ar
    16    13    15   ar
    17    15    16   ar
    18    16    17   ar
    19    17    18   ar
    20    14    18   ar
    21    17    19    1
    22    16    20    1
    23    20    21    2
    24    20    22   am
    25    22    23    1
    26    22    24    1
    27    24    25   ar
    28    25    26   ar
    29    26    27   ar
    30    27    28   ar
    31    28    29   ar
    32    24    29   ar
    33    27    30    1
    34    30    31    1
    35    31    32    1
    36    32    33    2
    37    32    34    2
    38    32    35    1
    39     1    36    1
    40     3    37    1
    41     3    38    1
    42     3    39    1
    43     4    40    1
    44     5    41    1
    45     6    42    1
    46     8    43    1
    47     8    44    1
    48    15    45    1
    49    18    46    1
    50    19    47    1
    51    23    48    1
    52    23    49    1
    53    23    50    1
    54    25    51    1
    55    26    52    1
    56    28    53    1
    57    29    54    1
    58    30    55    1
    59    30    56    1
    60    31    57    1
    61    35    58    1
    62    35    59    1
    63    35    60    1
@<TRIPOS>MOLECULE
*****
 55 59 0 0 0
SMALL
GASTEIGER

@<TRIPOS>ATOM
      1 C          -3.0009   -0.3888   -2.6996 C.ar    1  UNL1       -0.0553
      2 C          -3.3466   -1.1720   -3.8091 C.ar    1  UNL1       -0.0502
      3 C          -3.6910   -0.5199   -5.1143 C.3     1  UNL1       -0.0397
      4 C          -3.4846   -2.5557   -3.6595 C.ar    1  UNL1       -0.0588
      5 C          -3.3019   -3.1466   -2.4126 C.ar    1  UNL1       -0.0612
      6 C          -3.0269   -2.3510   -1.3010 C.ar    1  UNL1       -0.0582
      7 C          -2.9090   -0.9548   -1.4198 C.ar    1  UNL1       -0.0413
      8 C          -2.6630   -0.1536   -0.1622 C.3     1  UNL1        0.0171
      9 C          -3.3297    1.1840   -0.2529 C.ar    1  UNL1        0.0748
     10 N          -4.6447    1.3193   -0.0171 N.ar    1  UNL1       -0.1774
     11 N          -4.8439    2.6468   -0.0284 N.ar    1  UNL1       -0.2766
     12 H          -5.7827    2.9928    0.1353 H       1  UNL1        0.1889
     13 C          -2.6987    2.4492   -0.4334 C.ar    1  UNL1        0.0239
     14 C          -3.7015    3.3810   -0.1946 C.ar    1  UNL1        0.0695
     15 C          -1.3936    2.9004   -0.7115 C.ar    1  UNL1       -0.0351
     16 C          -1.1309    4.2806   -0.6878 C.ar    1  UNL1        0.0793
     17 C          -2.1431    5.1717   -0.2967 C.ar    1  UNL1        0.1310
     18 C          -3.4630    4.7539   -0.1111 C.ar    1  UNL1        0.0060
     19 O          -1.9014    6.4946   -0.0291 O.3     1  UNL1       -0.5059
     20 C           0.2323    4.7939   -1.0106 C.2     1  UNL1        0.2541
     21 O           0.6573    5.6725   -0.2544 O.2     1  UNL1       -0.2695
     22 N           0.9877    4.2410   -2.0672 N.am    1  UNL1       -0.2703
     23 C           2.4149    4.5600   -2.1129 C.3     1  UNL1        0.0086
     24 C           0.4497    3.5404   -3.2003 C.ar    1  UNL1        0.0400
     25 C          -0.8168    3.8556   -3.7017 C.ar    1  UNL1       -0.0366
     26 C          -1.3733    3.1448   -4.7705 C.ar    1  UNL1       -0.0145
     27 C           1.1870    2.5330   -3.8535 C.ar    1  UNL1        0.0051
     28 C           0.6232    1.8078   -4.9143 C.ar    1  UNL1        0.1638
     29 C          -0.6553    2.1168   -5.3703 C.ar    1  UNL1        0.1622
     30 O           1.3878    0.8036   -5.4577 O.3     1  UNL1       -0.4849
     31 C           0.5880   -0.0984   -6.2378 C.3     1  UNL1        0.1237
     32 C          -0.3560    0.6637   -7.1556 C.3     1  UNL1        0.1237
     33 O          -1.2737    1.4679   -6.4061 O.3     1  UNL1       -0.4849
     34 H          -2.8652    0.6816   -2.8371 H       1  UNL1        0.0623
     35 H          -3.4541    0.5479   -5.1018 H       1  UNL1        0.0278
     36 H          -4.7684   -0.6140   -5.2879 H       1  UNL1        0.0278
     37 H          -3.1482   -0.9843   -5.9420 H       1  UNL1        0.0278
     38 H          -3.7649   -3.1749   -4.5079 H       1  UNL1        0.0620
     39 H          -3.4155   -4.2210   -2.2961 H       1  UNL1        0.0618
     40 H          -2.9326   -2.8273   -0.3269 H       1  UNL1        0.0620
     41 H          -1.5870   -0.0529    0.0137 H       1  UNL1        0.0377
     42 H          -3.0896   -0.6809    0.7015 H       1  UNL1        0.0377
     43 H          -0.6060    2.1866   -0.9317 H       1  UNL1        0.0633
     44 H          -4.2436    5.4605    0.1514 H       1  UNL1        0.0675
     45 H          -0.9643    6.5581    0.2618 H       1  UNL1        0.2922
     46 H           2.6773    5.3483   -1.4061 H       1  UNL1        0.0433
     47 H           2.6880    4.9035   -3.1148 H       1  UNL1        0.0433
     48 H           2.9934    3.6675   -1.8545 H       1  UNL1        0.0433
     49 H          -1.4011    4.6882   -3.2946 H       1  UNL1        0.0637
     50 H          -2.3651    3.3920   -5.1307 H       1  UNL1        0.0656
     51 H           2.1820    2.2543   -3.5158 H       1  UNL1        0.0674
     52 H           0.0375   -0.7592   -5.5563 H       1  UNL1        0.0731
     53 H           1.2660   -0.7165   -6.8352 H       1  UNL1        0.0731
     54 H          -0.9463   -0.0376   -7.7545 H       1  UNL1        0.0731
     55 H           0.1920    1.3184   -7.8407 H       1  UNL1        0.0731
@<TRIPOS>BOND
     1     1     2   ar
     2     2     3    1
     3     2     4   ar
     4     4     5   ar
     5     5     6   ar
     6     6     7   ar
     7     1     7   ar
     8     7     8    1
     9     8     9    1
    10     9    10   ar
    11    10    11   ar
    12    11    12    1
    13     9    13   ar
    14    13    14   ar
    15    11    14   ar
    16    13    15   ar
    17    15    16   ar
    18    16    17   ar
    19    17    18   ar
    20    14    18   ar
    21    17    19    1
    22    16    20    1
    23    20    21    2
    24    20    22   am
    25    22    23    1
    26    22    24    1
    27    24    25   ar
    28    25    26   ar
    29    24    27   ar
    30    27    28   ar
    31    28    29   ar
    32    26    29   ar
    33    28    30    1
    34    30    31    1
    35    31    32    1
    36    32    33    1
    37    29    33    1
    38     1    34    1
    39     3    35    1
    40     3    36    1
    41     3    37    1
    42     4    38    1
    43     5    39    1
    44     6    40    1
    45     8    41    1
    46     8    42    1
    47    15    43    1
    48    18    44    1
    49    19    45    1
    50    23    46    1
    51    23    47    1
    52    23    48    1
    53    25    49    1
    54    26    50    1
    55    27    51    1
    56    31    52    1
    57    31    53    1
    58    32    54    1
    59    32    55    1
@<TRIPOS>MOLECULE
*****
 62 66 0 0 0
SMALL
GASTEIGER

@<TRIPOS>ATOM
      1 O           1.5058   -7.7169    1.6655 O.3     1  UNL1       -0.3746
      2 C           2.8102   -7.1858    1.7915 C.3     1  UNL1        0.1190
      3 H           3.3240   -7.2621    0.8255 H       1  UNL1        0.0804
      4 C           3.5256   -8.0639    2.8032 C.3     1  UNL1       -0.0219
      5 N           2.6481   -5.8055    2.2084 N.pl3   1  UNL1       -0.3044
      6 C           3.6195   -5.1271    3.0801 C.3     1  UNL1        0.0186
      7 C           3.4511   -3.6045    2.8830 C.3     1  UNL1       -0.0101
      8 C           2.3252   -4.8444    1.2286 C.ar    1  UNL1        0.0366
      9 C           2.7229   -3.5588    1.5834 C.ar    1  UNL1       -0.0247
     10 C           1.6409   -5.0506    0.0360 C.ar    1  UNL1       -0.0189
     11 C           1.2975   -3.9787   -0.8029 C.ar    1  UNL1        0.0380
     12 C           1.6997   -2.6829   -0.3983 C.ar    1  UNL1       -0.0399
     13 C           2.4203   -2.4648    0.7918 C.ar    1  UNL1       -0.0550
     14 N           0.6066   -4.2118   -2.0635 N.am    1  UNL1       -0.2704
     15 C           0.8150   -3.2027   -3.1055 C.3     1  UNL1        0.0086
     16 C          -0.2005   -5.3672   -2.2456 C.2     1  UNL1        0.2541
     17 O          -0.5486   -6.1225   -1.3352 O.2     1  UNL1       -0.2695
     18 C          -0.7132   -5.7797   -3.5858 C.ar    1  UNL1        0.0793
     19 C          -0.5032   -7.1353   -3.9500 C.ar    1  UNL1       -0.0351
     20 C          -1.4619   -4.9597   -4.4339 C.ar    1  UNL1        0.1310
     21 O          -1.8873   -3.7038   -4.0915 O.3     1  UNL1       -0.5059
     22 C          -1.8779   -5.3943   -5.6980 C.ar    1  UNL1        0.0060
     23 C          -1.6048   -6.7152   -6.0456 C.ar    1  UNL1        0.0695
     24 C          -0.9488   -7.6092   -5.2055 C.ar    1  UNL1        0.0239
     25 N          -1.9224   -7.4373   -7.1658 N.ar    1  UNL1       -0.2766
     26 H          -2.4201   -7.1127   -7.9848 H       1  UNL1        0.1889
     27 N          -1.5594   -8.7256   -7.1144 N.ar    1  UNL1       -0.1774
     28 C          -0.9428   -8.8470   -5.9262 C.ar    1  UNL1        0.0748
     29 C          -0.4552  -10.1918   -5.4949 C.3     1  UNL1        0.0171
     30 C           1.0027  -10.3210   -5.8743 C.ar    1  UNL1       -0.0413
     31 C           1.9912  -10.2264   -4.8852 C.ar    1  UNL1       -0.0582
     32 C           3.3267  -10.4912   -5.1882 C.ar    1  UNL1       -0.0612
     33 C           3.7001  -10.8143   -6.4914 C.ar    1  UNL1       -0.0588
     34 C           2.7455  -10.8443   -7.5129 C.ar    1  UNL1       -0.0502
     35 C           1.3964  -10.6163   -7.1935 C.ar    1  UNL1       -0.0553
     36 C           3.1671  -11.0680   -8.9363 C.3     1  UNL1       -0.0397
     37 H           0.9577   -6.9694    1.9665 H       1  UNL1        0.2117
     38 H           4.5767   -7.7857    2.9154 H       1  UNL1        0.0271
     39 H           3.4822   -9.1117    2.4826 H       1  UNL1        0.0271
     40 H           3.0400   -8.0164    3.7838 H       1  UNL1        0.0271
     41 H           4.6452   -5.4194    2.8221 H       1  UNL1        0.0468
     42 H           3.4476   -5.3976    4.1292 H       1  UNL1        0.0468
     43 H           4.4228   -3.1056    2.8416 H       1  UNL1        0.0329
     44 H           2.8430   -3.1675    3.6834 H       1  UNL1        0.0329
     45 H           1.4033   -6.0673   -0.2514 H       1  UNL1        0.0655
     46 H           1.4367   -1.8063   -0.9838 H       1  UNL1        0.0636
     47 H           2.7035   -1.4588    1.0751 H       1  UNL1        0.0621
     48 H           1.8041   -2.7421   -3.0221 H       1  UNL1        0.0433
     49 H           0.0481   -2.4288   -2.9939 H       1  UNL1        0.0433
     50 H           0.7627   -3.6386   -4.1030 H       1  UNL1        0.0433
     51 H          -0.0193   -7.8153   -3.2521 H       1  UNL1        0.0633
     52 H          -1.9617   -3.6660   -3.1174 H       1  UNL1        0.2922
     53 H          -2.4232   -4.7295   -6.3609 H       1  UNL1        0.0675
     54 H          -1.0286  -10.9947   -5.9768 H       1  UNL1        0.0377
     55 H          -0.5905  -10.3261   -4.4150 H       1  UNL1        0.0377
     56 H           1.7233   -9.9713   -3.8628 H       1  UNL1        0.0620
     57 H           4.0784  -10.4492   -4.4048 H       1  UNL1        0.0618
     58 H           4.7440  -11.0310   -6.7060 H       1  UNL1        0.0620
     59 H           0.6419  -10.6721   -7.9781 H       1  UNL1        0.0623
     60 H           4.2341  -11.3093   -9.0045 H       1  UNL1        0.0278
     61 H           2.9982  -10.1550   -9.5169 H       1  UNL1        0.0278
     62 H           2.6091  -11.8935   -9.3878 H       1  UNL1        0.0278
@<TRIPOS>BOND
     1     2     4    1
     2     2     5    1
     3     5     6    1
     4     6     7    1
     5     5     8    1
     6     8     9   ar
     7     7     9    1
     8     8    10   ar
     9    10    11   ar
    10    11    12   ar
    11    12    13   ar
    12     9    13   ar
    13    11    14    1
    14    14    15    1
    15    14    16   am
    16    16    17    2
    17    16    18    1
    18    18    19   ar
    19    18    20   ar
    20    20    21    1
    21    20    22   ar
    22    22    23   ar
    23    23    24   ar
    24    19    24   ar
    25    23    25   ar
    26    25    26    1
    27    25    27   ar
    28    27    28   ar
    29    24    28   ar
    30    28    29    1
    31    29    30    1
    32    30    31   ar
    33    31    32   ar
    34    32    33   ar
    35    33    34   ar
    36    34    35   ar
    37    30    35   ar
    38    34    36    1
    39     2     3    1
    40     2     1    1
    41     1    37    1
    42     4    38    1
    43     4    39    1
    44     4    40    1
    45     6    41    1
    46     6    42    1
    47     7    43    1
    48     7    44    1
    49    10    45    1
    50    12    46    1
    51    13    47    1
    52    15    48    1
    53    15    49    1
    54    15    50    1
    55    19    51    1
    56    21    52    1
    57    22    53    1
    58    29    54    1
    59    29    55    1
    60    31    56    1
    61    32    57    1
    62    33    58    1
    63    35    59    1
    64    36    60    1
    65    36    61    1
    66    36    62    1
@<TRIPOS>MOLECULE
*****
 57 60 0 0 0
SMALL
GASTEIGER

@<TRIPOS>ATOM
      1 C           1.7854   -2.3255   -3.3543 C.3     1  UNL1       -0.0377
      2 C           0.9620   -3.5696   -3.1650 C.ar    1  UNL1       -0.0264
      3 C           0.4732   -4.2213   -4.3216 C.ar    1  UNL1       -0.0569
      4 C          -0.0988   -5.4925   -4.2518 C.ar    1  UNL1       -0.0614
      5 C          -0.1832   -6.1427   -3.0274 C.ar    1  UNL1       -0.0598
      6 C           0.2700   -5.5029   -1.8780 C.ar    1  UNL1       -0.0374
      7 C           0.8128   -4.2004   -1.9197 C.ar    1  UNL1        0.0558
      8 N           1.2974   -3.6816   -0.6982 N.ar    1  UNL1       -0.2434
      9 C           2.2795   -4.3454    0.0064 C.ar    1  UNL1        0.3489
     10 O           2.8879   -5.3680   -0.2731 O.2     1  UNL1       -0.2446
     11 N           2.5016   -3.5845    1.1487 N.ar    1  UNL1       -0.2260
     12 H           3.1863   -3.7807    1.8561 H       1  UNL1        0.1937
     13 N           1.7130   -2.4773    1.1458 N.ar    1  UNL1       -0.1507
     14 C           1.0101   -2.5573    0.0454 C.ar    1  UNL1        0.1727
     15 C           0.0160   -1.4951   -0.2572 C.ar    1  UNL1        0.0619
     16 C          -1.2464   -1.6938   -0.8083 C.ar    1  UNL1        0.1310
     17 O          -1.8104   -2.9046   -1.0857 O.3     1  UNL1       -0.5059
     18 C          -2.0687   -0.5955   -1.0716 C.ar    1  UNL1        0.0228
     19 C          -1.6429    0.7134   -0.7849 C.ar    1  UNL1        0.1325
     20 O          -2.5108    1.7307   -1.0726 O.3     1  UNL1       -0.5059
     21 C           0.4082   -0.1692    0.0893 C.ar    1  UNL1       -0.0319
     22 C          -0.3804    0.9612   -0.2033 C.ar    1  UNL1        0.0791
     23 C           0.1997    2.3674   -0.1855 C.2     1  UNL1        0.2502
     24 O          -0.1965    3.1412   -1.0613 O.2     1  UNL1       -0.2699
     25 N           1.2422    2.7682    0.6773 N.am    1  UNL1       -0.2961
     26 C           1.6002    2.1101    1.9189 C.3     1  UNL1        0.0038
     27 C           2.0272    3.9815    0.3370 C.3     1  UNL1        0.0400
     28 C           3.2882    3.6856   -0.4671 C.ar    1  UNL1       -0.0272
     29 C           3.1099    3.2071   -1.7807 C.ar    1  UNL1       -0.0568
     30 C           4.1899    2.9165   -2.6122 C.ar    1  UNL1       -0.0614
     31 C           5.4848    3.1111   -2.1544 C.ar    1  UNL1       -0.0615
     32 C           5.6922    3.6120   -0.8736 C.ar    1  UNL1       -0.0585
     33 C           4.6124    3.9034   -0.0118 C.ar    1  UNL1       -0.0458
     34 C           4.9529    4.4997    1.3270 C.3     1  UNL1       -0.0394
     35 H           1.8791   -2.0697   -4.4188 H       1  UNL1        0.0278
     36 H           2.8028   -2.5009   -2.9863 H       1  UNL1        0.0278
     37 H           1.3456   -1.4717   -2.8450 H       1  UNL1        0.0278
     38 H           0.5885   -3.7636   -5.3023 H       1  UNL1        0.0621
     39 H          -0.4339   -5.9934   -5.1568 H       1  UNL1        0.0618
     40 H          -0.5773   -7.1552   -2.9701 H       1  UNL1        0.0618
     41 H           0.2140   -6.0437   -0.9344 H       1  UNL1        0.0638
     42 H          -1.2812   -3.6219   -0.7027 H       1  UNL1        0.2922
     43 H          -3.0494   -0.7718   -1.5035 H       1  UNL1        0.0691
     44 H          -3.1576    1.4355   -1.7403 H       1  UNL1        0.2922
     45 H           1.3838   -0.0397    0.5463 H       1  UNL1        0.0634
     46 H           0.7380    1.5854    2.3361 H       1  UNL1        0.0429
     47 H           1.9314    2.8546    2.6503 H       1  UNL1        0.0429
     48 H           2.4261    1.4204    1.7323 H       1  UNL1        0.0429
     49 H           2.2593    4.5242    1.2596 H       1  UNL1        0.0514
     50 H           1.4092    4.6711   -0.2517 H       1  UNL1        0.0514
     51 H           2.1020    3.0795   -2.1760 H       1  UNL1        0.0621
     52 H           4.0184    2.5485   -3.6186 H       1  UNL1        0.0618
     53 H           6.3293    2.8894   -2.8004 H       1  UNL1        0.0618
     54 H           6.7178    3.7856   -0.5489 H       1  UNL1        0.0620
     55 H           6.0237    4.3845    1.5457 H       1  UNL1        0.0278
     56 H           4.4142    4.0010    2.1351 H       1  UNL1        0.0278
     57 H           4.7366    5.5727    1.3335 H       1  UNL1        0.0278
@<TRIPOS>BOND
     1     1     2    1
     2     2     3   ar
     3     3     4   ar
     4     4     5   ar
     5     5     6   ar
     6     6     7   ar
     7     2     7   ar
     8     7     8    1
     9     8     9   ar
    10     9    10    2
    11     9    11   ar
    12    11    12    1
    13    11    13   ar
    14    13    14   ar
    15     8    14   ar
    16    14    15    1
    17    15    16   ar
    18    16    17    1
    19    16    18   ar
    20    18    19   ar
    21    19    20    1
    22    15    21   ar
    23    21    22   ar
    24    19    22   ar
    25    22    23    1
    26    23    24    2
    27    23    25   am
    28    25    26    1
    29    25    27    1
    30    27    28    1
    31    28    29   ar
    32    29    30   ar
    33    30    31   ar
    34    31    32   ar
    35    32    33   ar
    36    28    33   ar
    37    33    34    1
    38     1    35    1
    39     1    36    1
    40     1    37    1
    41     3    38    1
    42     4    39    1
    43     5    40    1
    44     6    41    1
    45    17    42    1
    46    18    43    1
    47    20    44    1
    48    21    45    1
    49    26    46    1
    50    26    47    1
    51    26    48    1
    52    27    49    1
    53    27    50    1
    54    29    51    1
    55    30    52    1
    56    31    53    1
    57    32    54    1
    58    34    55    1
    59    34    56    1
    60    34    57    1
@<TRIPOS>MOLECULE
*****
 58 61 0 0 0
SMALL
GASTEIGER

@<TRIPOS>ATOM
      1 C           2.6843   -0.9648   -2.1566 C.3     1  UNL1       -0.0377
      2 C           3.4556   -0.8090   -0.8701 C.ar    1  UNL1       -0.0264
      3 C           4.4703    0.1589   -0.8258 C.ar    1  UNL1       -0.0569
      4 C           5.4817    0.0950    0.1343 C.ar    1  UNL1       -0.0614
      5 C           5.4855   -0.9395    1.0587 C.ar    1  UNL1       -0.0598
      6 C           4.4160   -1.8363    1.0938 C.ar    1  UNL1       -0.0374
      7 C           3.3567   -1.7474    0.1756 C.ar    1  UNL1        0.0558
      8 N           2.3297   -2.7064    0.2367 N.ar    1  UNL1       -0.2434
      9 C           2.6507   -4.0648    0.2293 C.ar    1  UNL1        0.3489
     10 O           3.7451   -4.6188    0.2932 O.2     1  UNL1       -0.2446
     11 N           1.4629   -4.7292    0.0120 N.ar    1  UNL1       -0.2260
     12 H           1.3889   -5.7080   -0.2248 H       1  UNL1        0.1937
     13 N           0.4431   -3.8463   -0.1578 N.ar    1  UNL1       -0.1507
     14 C           0.9724   -2.6540   -0.0208 C.ar    1  UNL1        0.1727
     15 C           0.0750   -1.4431   -0.1591 C.ar    1  UNL1        0.0619
     16 C          -1.1501   -1.6566   -0.8370 C.ar    1  UNL1        0.1310
     17 O          -1.5728   -2.8679   -1.3270 O.3     1  UNL1       -0.5059
     18 C          -2.0347   -0.6188   -1.1009 C.ar    1  UNL1        0.0228
     19 C          -1.7148    0.6780   -0.7165 C.ar    1  UNL1        0.1325
     20 O          -2.6356    1.6550   -1.0020 O.3     1  UNL1       -0.5059
     21 C           0.3696   -0.1160    0.2609 C.ar    1  UNL1       -0.0319
     22 C          -0.4964    0.9745   -0.0583 C.ar    1  UNL1        0.0791
     23 C          -0.0705    2.4345   -0.0610 C.2     1  UNL1        0.2502
     24 O          -0.3592    3.0672   -1.0837 O.2     1  UNL1       -0.2699
     25 N           0.6796    3.0683    0.9508 N.am    1  UNL1       -0.2960
     26 C           1.1620    2.3995    2.1410 C.3     1  UNL1        0.0038
     27 C           1.3601    4.3321    0.5611 C.3     1  UNL1        0.0432
     28 C           1.2846    5.5299    1.4959 C.ar    1  UNL1        0.0115
     29 C           0.1696    5.7921    2.3005 C.ar    1  UNL1       -0.0536
     30 C           0.1683    6.8705    3.2013 C.ar    1  UNL1       -0.0612
     31 C           1.2882    7.6949    3.3271 C.ar    1  UNL1       -0.0583
     32 C           2.3645    7.5073    2.4640 C.ar    1  UNL1       -0.0196
     33 C           2.3212    6.4872    1.5127 C.ar    1  UNL1        0.1248
     34 O           3.3277    6.4731    0.5775 O.3     1  UNL1       -0.4948
     35 C           2.8475    7.0238   -0.6584 C.3     1  UNL1        0.0788
     36 H           3.1068   -0.3353   -2.9476 H       1  UNL1        0.0278
     37 H           1.6384   -0.7011   -2.0616 H       1  UNL1        0.0278
     38 H           2.7724   -2.0031   -2.5034 H       1  UNL1        0.0278
     39 H           4.5331    0.9234   -1.5974 H       1  UNL1        0.0621
     40 H           6.3017    0.8076    0.1081 H       1  UNL1        0.0618
     41 H           6.3245   -1.0601    1.7435 H       1  UNL1        0.0618
     42 H           4.4471   -2.6356    1.8328 H       1  UNL1        0.0638
     43 H          -0.9630   -3.5669   -1.0029 H       1  UNL1        0.2922
     44 H          -2.9554   -0.8390   -1.6329 H       1  UNL1        0.0691
     45 H          -3.2146    1.3542   -1.7234 H       1  UNL1        0.2922
     46 H           1.3056    0.0773    0.7685 H       1  UNL1        0.0634
     47 H           0.3841    1.7519    2.5504 H       1  UNL1        0.0429
     48 H           1.4526    3.1300    2.9035 H       1  UNL1        0.0429
     49 H           2.0423    1.8078    1.8777 H       1  UNL1        0.0429
     50 H           1.0044    4.6745   -0.4133 H       1  UNL1        0.0515
     51 H           2.4141    4.0520    0.4334 H       1  UNL1        0.0515
     52 H          -0.7168    5.1673    2.2246 H       1  UNL1        0.0622
     53 H          -0.7080    7.0640    3.8165 H       1  UNL1        0.0618
     54 H           1.3050    8.4935    4.0600 H       1  UNL1        0.0619
     55 H           3.2233    8.1760    2.5184 H       1  UNL1        0.0654
     56 H           3.7091    7.3454   -1.2515 H       1  UNL1        0.0660
     57 H           2.1949    7.8944   -0.5118 H       1  UNL1        0.0660
     58 H           2.3200    6.2591   -1.2356 H       1  UNL1        0.0660
@<TRIPOS>BOND
     1     1     2    1
     2     2     3   ar
     3     3     4   ar
     4     4     5   ar
     5     5     6   ar
     6     6     7   ar
     7     2     7   ar
     8     7     8    1
     9     8     9   ar
    10     9    10    2
    11     9    11   ar
    12    11    12    1
    13    11    13   ar
    14    13    14   ar
    15     8    14   ar
    16    14    15    1
    17    15    16   ar
    18    16    17    1
    19    16    18   ar
    20    18    19   ar
    21    19    20    1
    22    15    21   ar
    23    21    22   ar
    24    19    22   ar
    25    22    23    1
    26    23    24    2
    27    23    25   am
    28    25    26    1
    29    25    27    1
    30    27    28    1
    31    28    29   ar
    32    29    30   ar
    33    30    31   ar
    34    31    32   ar
    35    32    33   ar
    36    28    33   ar
    37    33    34    1
    38    34    35    1
    39     1    36    1
    40     1    37    1
    41     1    38    1
    42     3    39    1
    43     4    40    1
    44     5    41    1
    45     6    42    1
    46    17    43    1
    47    18    44    1
    48    20    45    1
    49    21    46    1
    50    26    47    1
    51    26    48    1
    52    26    49    1
    53    27    50    1
    54    27    51    1
    55    29    52    1
    56    30    53    1
    57    31    54    1
    58    32    55    1
    59    35    56    1
    60    35    57    1
    61    35    58    1
@<TRIPOS>MOLECULE
*****
 58 61 0 0 0
SMALL
GASTEIGER

@<TRIPOS>ATOM
      1 C           3.8773   -0.6263   -4.3742 C.3     1  UNL1       -0.0647
      2 C           3.2724    0.7011   -3.9364 C.3     1  UNL1       -0.0478
      3 C           3.3389    0.9530   -2.4168 C.3     1  UNL1        0.0006
      4 H           2.7880    0.1509   -1.9071 H       1  UNL1        0.0362
      5 C           2.5977    2.2681   -2.0986 C.3     1  UNL1       -0.0569
      6 C           4.7577    0.9506   -1.8930 C.ar    1  UNL1        0.0733
      7 N           5.4631    2.0935   -1.8315 N.ar    1  UNL1       -0.1775
      8 N           6.6407    1.7198   -1.3153 N.ar    1  UNL1       -0.2766
      9 H           7.3370    2.4382   -1.1551 H       1  UNL1        0.1889
     10 C           5.5330   -0.1647   -1.4453 C.ar    1  UNL1        0.0239
     11 C           6.7453    0.3816   -1.0535 C.ar    1  UNL1        0.0695
     12 C           5.3639   -1.5625   -1.3318 C.ar    1  UNL1       -0.0351
     13 C           6.3967   -2.3777   -0.8018 C.ar    1  UNL1        0.0793
     14 C           7.5426   -1.7478   -0.3081 C.ar    1  UNL1        0.1310
     15 C           7.7724   -0.3751   -0.4853 C.ar    1  UNL1        0.0060
     16 O           8.4876   -2.3803    0.4540 O.3     1  UNL1       -0.5059
     17 C           6.0812   -3.8415   -0.7385 C.2     1  UNL1        0.2541
     18 O           4.9142   -4.0820   -0.4091 O.2     1  UNL1       -0.2695
     19 N           7.0176   -4.8592   -1.0461 N.am    1  UNL1       -0.2704
     20 C           8.4516   -4.6464   -1.2483 C.3     1  UNL1        0.0086
     21 C           6.5652   -6.2287   -1.1680 C.ar    1  UNL1        0.0364
     22 C           5.3158   -6.5278   -1.7136 C.ar    1  UNL1       -0.0385
     23 C           4.8564   -7.8506   -1.8092 C.ar    1  UNL1       -0.0389
     24 C           5.6076   -8.9406   -1.3543 C.ar    1  UNL1        0.0299
     25 C           6.8871   -8.6363   -0.8702 C.ar    1  UNL1       -0.0389
     26 C           7.3641   -7.3114   -0.7845 C.ar    1  UNL1       -0.0385
     27 N           5.0936  -10.2200   -1.3294 N.pl3   1  UNL1       -0.3255
     28 C           5.9042  -11.4346   -1.5118 C.3     1  UNL1        0.0357
     29 C           5.4882  -12.4931   -0.4750 C.3     1  UNL1        0.0634
     30 O           4.0778  -12.7709   -0.5317 O.3     1  UNL1       -0.3767
     31 C           3.3271  -11.5702   -0.2879 C.3     1  UNL1        0.0634
     32 C           3.6433  -10.4825   -1.3281 C.3     1  UNL1        0.0357
     33 H           3.7044   -0.7857   -5.4426 H       1  UNL1        0.0230
     34 H           3.4282   -1.4632   -3.8305 H       1  UNL1        0.0230
     35 H           4.9597   -0.6431   -4.2172 H       1  UNL1        0.0230
     36 H           2.2213    0.7130   -4.2541 H       1  UNL1        0.0269
     37 H           3.7754    1.5123   -4.4763 H       1  UNL1        0.0269
     38 H           2.6086    2.4813   -1.0257 H       1  UNL1        0.0236
     39 H           1.5520    2.2137   -2.4224 H       1  UNL1        0.0236
     40 H           3.0559    3.1197   -2.6158 H       1  UNL1        0.0236
     41 H           4.4237   -2.0131   -1.6434 H       1  UNL1        0.0633
     42 H           8.6904    0.0862   -0.1368 H       1  UNL1        0.0675
     43 H           8.0168   -2.9952    1.0462 H       1  UNL1        0.2922
     44 H           8.6454   -3.6782   -1.7109 H       1  UNL1        0.0433
     45 H           8.8683   -5.4030   -1.9208 H       1  UNL1        0.0433
     46 H           8.9559   -4.7194   -0.2784 H       1  UNL1        0.0433
     47 H           4.6723   -5.7419   -2.1001 H       1  UNL1        0.0637
     48 H           3.8814   -8.0017   -2.2641 H       1  UNL1        0.0637
     49 H           7.5282   -9.4227   -0.4819 H       1  UNL1        0.0637
     50 H           8.3466   -7.1578   -0.3484 H       1  UNL1        0.0637
     51 H           6.9812  -11.2588   -1.4395 H       1  UNL1        0.0486
     52 H           5.7091  -11.8245   -2.5191 H       1  UNL1        0.0486
     53 H           5.7452  -12.1693    0.5408 H       1  UNL1        0.0575
     54 H           6.0140  -13.4332   -0.6694 H       1  UNL1        0.0575
     55 H           3.5463  -11.2129    0.7262 H       1  UNL1        0.0575
     56 H           2.2635  -11.8256   -0.3277 H       1  UNL1        0.0575
     57 H           3.0496   -9.5998   -1.0709 H       1  UNL1        0.0486
     58 H           3.3450  -10.8219   -2.3274 H       1  UNL1        0.0486
@<TRIPOS>BOND
     1     1     2    1
     2     3     5    1
     3     3     6    1
     4     6     7   ar
     5     7     8   ar
     6     8     9    1
     7     6    10   ar
     8    10    11   ar
     9     8    11   ar
    10    10    12   ar
    11    12    13   ar
    12    13    14   ar
    13    14    15   ar
    14    11    15   ar
    15    14    16    1
    16    13    17    1
    17    17    18    2
    18    17    19   am
    19    19    20    1
    20    19    21    1
    21    21    22   ar
    22    22    23   ar
    23    23    24   ar
    24    24    25   ar
    25    25    26   ar
    26    21    26   ar
    27    24    27    1
    28    27    28    1
    29    28    29    1
    30    29    30    1
    31    30    31    1
    32    31    32    1
    33    27    32    1
    34     3     4    1
    35     3     2    1
    36     1    33    1
    37     1    34    1
    38     1    35    1
    39     2    36    1
    40     2    37    1
    41     5    38    1
    42     5    39    1
    43     5    40    1
    44    12    41    1
    45    15    42    1
    46    16    43    1
    47    20    44    1
    48    20    45    1
    49    20    46    1
    50    22    47    1
    51    23    48    1
    52    25    49    1
    53    26    50    1
    54    28    51    1
    55    28    52    1
    56    29    53    1
    57    29    54    1
    58    31    55    1
    59    31    56    1
    60    32    57    1
    61    32    58    1
@<TRIPOS>MOLECULE
*****
 65 69 0 0 0
SMALL
GASTEIGER

@<TRIPOS>ATOM
      1 O           1.1017   -0.0815   -0.3760 O.2     1  UNL1       -0.2695
      2 C           2.1799    0.0419    0.2083 C.2     1  UNL1        0.2541
      3 N           2.6480    1.2464    0.7867 N.am    1  UNL1       -0.2704
      4 C           3.8165    1.2960    1.6759 C.3     1  UNL1        0.0086
      5 C           1.9568    2.5129    0.5959 C.ar    1  UNL1        0.0364
      6 C           0.6296    2.6231    0.1627 C.ar    1  UNL1       -0.0385
      7 C          -0.0026    3.8753   -0.0050 C.ar    1  UNL1       -0.0389
      8 C           0.6640    5.0758    0.2391 C.ar    1  UNL1        0.0299
      9 N           0.0806    6.3265    0.1274 N.pl3   1  UNL1       -0.3255
     10 C          -1.3793    6.5136    0.0670 C.3     1  UNL1        0.0357
     11 C          -1.7098    7.9339    0.5722 C.3     1  UNL1        0.0634
     12 O          -1.0091    8.9496   -0.1699 O.3     1  UNL1       -0.3767
     13 C           0.4115    8.7403   -0.0869 C.3     1  UNL1        0.0634
     14 C           0.8026    7.3626   -0.6406 C.3     1  UNL1        0.0357
     15 C           1.9841    4.9638    0.6865 C.ar    1  UNL1       -0.0389
     16 C           2.6160    3.7232    0.8567 C.ar    1  UNL1       -0.0385
     17 C           2.9733   -1.2276    0.2374 C.ar    1  UNL1        0.0793
     18 C           2.2996   -2.4665    0.2340 C.ar    1  UNL1        0.1310
     19 O           0.9280   -2.5645    0.2150 O.3     1  UNL1       -0.5059
     20 C           2.9786   -3.6922    0.2092 C.ar    1  UNL1        0.0060
     21 C           4.3738   -3.6384    0.1932 C.ar    1  UNL1        0.0695
     22 N           5.3299   -4.6158    0.1227 N.ar    1  UNL1       -0.2766
     23 H           5.1819   -5.6168    0.0529 H       1  UNL1        0.1889
     24 N           6.5938   -4.1511    0.0870 N.ar    1  UNL1       -0.1777
     25 C           6.4526   -2.8194    0.1189 C.ar    1  UNL1        0.0708
     26 C           7.6132   -1.9045   -0.0999 C.3     1  UNL1       -0.0052
     27 C           8.6781   -1.7146    1.0005 C.3     1  UNL1       -0.0356
     28 C           8.1969   -1.1552    2.3580 C.3     1  UNL1       -0.0499
     29 C           8.2558   -2.0819    3.5778 C.3     1  UNL1       -0.0528
     30 C           9.3965   -3.0878    3.5441 C.3     1  UNL1       -0.0530
     31 C           9.3760   -3.8466    2.2302 C.3     1  UNL1       -0.0528
     32 C           9.6637   -2.8867    1.0902 C.3     1  UNL1       -0.0499
     33 C           5.0801   -2.4440    0.1694 C.ar    1  UNL1        0.0236
     34 C           4.3712   -1.2266    0.1311 C.ar    1  UNL1       -0.0351
     35 H           4.0732    0.3178    2.0819 H       1  UNL1        0.0433
     36 H           3.6062    1.9301    2.5439 H       1  UNL1        0.0433
     37 H           4.6680    1.7002    1.1171 H       1  UNL1        0.0433
     38 H           0.0115    1.7514   -0.0231 H       1  UNL1        0.0637
     39 H          -1.0362    3.8738   -0.3405 H       1  UNL1        0.0637
     40 H          -1.9096    5.7916    0.6972 H       1  UNL1        0.0486
     41 H          -1.7229    6.3989   -0.9688 H       1  UNL1        0.0486
     42 H          -1.4517    8.0352    1.6337 H       1  UNL1        0.0575
     43 H          -2.7813    8.1305    0.4693 H       1  UNL1        0.0575
     44 H           0.7287    8.8436    0.9584 H       1  UNL1        0.0575
     45 H           0.9012    9.5295   -0.6654 H       1  UNL1        0.0575
     46 H           1.8906    7.2579   -0.5950 H       1  UNL1        0.0486
     47 H           0.5077    7.2903   -1.6957 H       1  UNL1        0.0486
     48 H           2.5431    5.8585    0.9503 H       1  UNL1        0.0637
     49 H           3.6484    3.7579    1.1887 H       1  UNL1        0.0637
     50 H           0.5774   -1.6840   -0.0523 H       1  UNL1        0.2922
     51 H           2.4333   -4.6297    0.1698 H       1  UNL1        0.0675
     52 H           7.2209   -0.9105   -0.3522 H       1  UNL1        0.0332
     53 H           8.1198   -2.2387   -1.0165 H       1  UNL1        0.0332
     54 H           9.2802   -0.8933    0.5777 H       1  UNL1        0.0304
     55 H           7.1908   -0.7263    2.2771 H       1  UNL1        0.0268
     56 H           8.8488   -0.3016    2.5959 H       1  UNL1        0.0268
     57 H           7.3066   -2.6225    3.6675 H       1  UNL1        0.0265
     58 H           8.3491   -1.4742    4.4878 H       1  UNL1        0.0265
     59 H           9.3023   -3.7880    4.3817 H       1  UNL1        0.0265
     60 H          10.3590   -2.5745    3.6673 H       1  UNL1        0.0265
     61 H           8.4045   -4.3325    2.0947 H       1  UNL1        0.0265
     62 H          10.1329   -4.6377    2.2415 H       1  UNL1        0.0265
     63 H           9.7135   -3.4331    0.1422 H       1  UNL1        0.0268
     64 H          10.6684   -2.4687    1.2453 H       1  UNL1        0.0268
     65 H           4.9239   -0.3045    0.0021 H       1  UNL1        0.0633
@<TRIPOS>BOND
     1     1     2    2
     2     2     3   am
     3     3     4    1
     4     3     5    1
     5     5     6   ar
     6     6     7   ar
     7     7     8   ar
     8     8     9    1
     9     9    10    1
    10    10    11    1
    11    11    12    1
    12    12    13    1
    13    13    14    1
    14     9    14    1
    15     8    15   ar
    16    15    16   ar
    17     5    16   ar
    18     2    17    1
    19    17    18   ar
    20    18    19    1
    21    18    20   ar
    22    20    21   ar
    23    21    22   ar
    24    22    23    1
    25    22    24   ar
    26    24    25   ar
    27    25    26    1
    28    26    27    1
    29    27    28    1
    30    28    29    1
    31    29    30    1
    32    30    31    1
    33    31    32    1
    34    27    32    1
    35    25    33   ar
    36    21    33   ar
    37    33    34   ar
    38    17    34   ar
    39     4    35    1
    40     4    36    1
    41     4    37    1
    42     6    38    1
    43     7    39    1
    44    10    40    1
    45    10    41    1
    46    11    42    1
    47    11    43    1
    48    13    44    1
    49    13    45    1
    50    14    46    1
    51    14    47    1
    52    15    48    1
    53    16    49    1
    54    19    50    1
    55    20    51    1
    56    26    52    1
    57    26    53    1
    58    27    54    1
    59    28    55    1
    60    28    56    1
    61    29    57    1
    62    29    58    1
    63    30    59    1
    64    30    60    1
    65    31    61    1
    66    31    62    1
    67    32    63    1
    68    32    64    1
    69    34    65    1
@<TRIPOS>MOLECULE
*****
 63 67 0 0 0
SMALL
GASTEIGER

@<TRIPOS>ATOM
      1 O           1.7514   -0.4662   -1.1250 O.2     1  UNL1       -0.2695
      2 C           2.2905   -0.0176   -0.1072 C.2     1  UNL1        0.2541
      3 N           2.2224    1.3321    0.3009 N.am    1  UNL1       -0.2704
      4 C           2.3643    1.7269    1.7072 C.3     1  UNL1        0.0086
      5 C           1.9455    2.4012   -0.6434 C.ar    1  UNL1        0.0364
      6 C           1.9093    2.1940   -2.0245 C.ar    1  UNL1       -0.0385
      7 C           1.7744    3.2629   -2.9232 C.ar    1  UNL1       -0.0389
      8 C           1.6751    4.5905   -2.4965 C.ar    1  UNL1        0.0299
      9 N           1.6134    5.6118   -3.4246 N.pl3   1  UNL1       -0.3255
     10 C           0.9674    6.9030   -3.1494 C.3     1  UNL1        0.0357
     11 C           2.0015    8.0252   -2.9867 C.3     1  UNL1        0.0634
     12 O           2.8970    8.0868   -4.1085 O.3     1  UNL1       -0.3767
     13 C           3.6085    6.8456   -4.2363 C.3     1  UNL1        0.0634
     14 C           2.6547    5.6620   -4.4712 C.3     1  UNL1        0.0357
     15 C           1.6393    4.7960   -1.1201 C.ar    1  UNL1       -0.0389
     16 C           1.7772    3.7289   -0.2148 C.ar    1  UNL1       -0.0385
     17 C           3.0182   -1.0471    0.7050 C.ar    1  UNL1        0.0793
     18 C           2.6294   -2.3976    0.6056 C.ar    1  UNL1        0.1310
     19 O           1.6209   -2.8284   -0.2221 O.3     1  UNL1       -0.5059
     20 C           3.2556   -3.4114    1.3355 C.ar    1  UNL1        0.0060
     21 C           4.2883   -3.0257    2.1881 C.ar    1  UNL1        0.0700
     22 N           5.0754   -3.7493    3.0368 N.ar    1  UNL1       -0.2761
     23 H           5.0413   -4.7487    3.2077 H       1  UNL1        0.1889
     24 N           5.9626   -3.0160    3.7219 N.ar    1  UNL1       -0.1681
     25 C           5.6998   -1.7450    3.3581 C.ar    1  UNL1        0.1547
     26 C           6.3381   -0.5696    3.9869 C.2     1  UNL1        0.2673
     27 O           6.5913    0.4284    3.3069 O.2     1  UNL1       -0.2682
     28 N           6.5765   -0.5882    5.3714 N.am    1  UNL1       -0.2962
     29 C           7.3884    0.4690    5.9695 C.3     1  UNL1        0.0150
     30 C           6.7211    1.0505    7.2178 C.3     1  UNL1       -0.0371
     31 C           6.3531   -0.0481    8.2117 C.3     1  UNL1       -0.0502
     32 C           5.4844   -1.0961    7.5325 C.3     1  UNL1       -0.0371
     33 C           6.1611   -1.6554    6.2856 C.3     1  UNL1        0.0150
     34 C           4.7218   -1.7134    2.3137 C.ar    1  UNL1        0.0328
     35 C           4.1212   -0.7179    1.5141 C.ar    1  UNL1       -0.0347
     36 H           2.4391    0.8765    2.3847 H       1  UNL1        0.0433
     37 H           1.4755    2.2747    2.0338 H       1  UNL1        0.0433
     38 H           3.2583    2.3529    1.8083 H       1  UNL1        0.0433
     39 H           2.0095    1.2117   -2.4720 H       1  UNL1        0.0637
     40 H           1.7391    3.0338   -3.9863 H       1  UNL1        0.0637
     41 H           0.3008    6.8645   -2.2810 H       1  UNL1        0.0486
     42 H           0.3350    7.1339   -4.0152 H       1  UNL1        0.0486
     43 H           2.5886    7.8998   -2.0698 H       1  UNL1        0.0575
     44 H           1.4886    8.9904   -2.9244 H       1  UNL1        0.0575
     45 H           4.2177    6.6924   -3.3374 H       1  UNL1        0.0575
     46 H           4.2915    6.9421   -5.0866 H       1  UNL1        0.0575
     47 H           3.2503    4.7434   -4.5276 H       1  UNL1        0.0486
     48 H           2.1511    5.7862   -5.4363 H       1  UNL1        0.0486
     49 H           1.5529    5.7972   -0.7095 H       1  UNL1        0.0637
     50 H           1.7682    3.9976    0.8361 H       1  UNL1        0.0637
     51 H           1.4037   -2.0853   -0.8314 H       1  UNL1        0.2922
     52 H           2.9391   -4.4446    1.2389 H       1  UNL1        0.0675
     53 H           7.5868    1.2762    5.2564 H       1  UNL1        0.0465
     54 H           8.3527    0.0256    6.2341 H       1  UNL1        0.0465
     55 H           5.8109    1.5901    6.9270 H       1  UNL1        0.0280
     56 H           7.3902    1.7736    7.6962 H       1  UNL1        0.0280
     57 H           5.8171    0.3800    9.0657 H       1  UNL1        0.0266
     58 H           7.2634   -0.5196    8.6013 H       1  UNL1        0.0266
     59 H           4.5264   -0.6415    7.2476 H       1  UNL1        0.0280
     60 H           5.2593   -1.9115    8.2284 H       1  UNL1        0.0280
     61 H           5.4400   -2.3332    5.8327 H       1  UNL1        0.0465
     62 H           7.0564   -2.2280    6.5494 H       1  UNL1        0.0465
     63 H           4.5156    0.2923    1.5562 H       1  UNL1        0.0633
@<TRIPOS>BOND
     1     1     2    2
     2     2     3   am
     3     3     4    1
     4     3     5    1
     5     5     6   ar
     6     6     7   ar
     7     7     8   ar
     8     8     9    1
     9     9    10    1
    10    10    11    1
    11    11    12    1
    12    12    13    1
    13    13    14    1
    14     9    14    1
    15     8    15   ar
    16    15    16   ar
    17     5    16   ar
    18     2    17    1
    19    17    18   ar
    20    18    19    1
    21    18    20   ar
    22    20    21   ar
    23    21    22   ar
    24    22    23    1
    25    22    24   ar
    26    24    25   ar
    27    25    26    1
    28    26    27    2
    29    26    28   am
    30    28    29    1
    31    29    30    1
    32    30    31    1
    33    31    32    1
    34    32    33    1
    35    28    33    1
    36    25    34   ar
    37    21    34   ar
    38    34    35   ar
    39    17    35   ar
    40     4    36    1
    41     4    37    1
    42     4    38    1
    43     6    39    1
    44     7    40    1
    45    10    41    1
    46    10    42    1
    47    11    43    1
    48    11    44    1
    49    13    45    1
    50    13    46    1
    51    14    47    1
    52    14    48    1
    53    15    49    1
    54    16    50    1
    55    19    51    1
    56    20    52    1
    57    29    53    1
    58    29    54    1
    59    30    55    1
    60    30    56    1
    61    31    57    1
    62    31    58    1
    63    32    59    1
    64    32    60    1
    65    33    61    1
    66    33    62    1
    67    35    63    1
@<TRIPOS>MOLECULE
*****
 63 67 0 0 0
SMALL
GASTEIGER

@<TRIPOS>ATOM
      1 O           2.1060   -0.0721    1.3791 O.2     1  UNL1       -0.2699
      2 C           1.9066   -0.0078    0.1740 C.2     1  UNL1        0.2502
      3 N           1.3309    1.1060   -0.4511 N.am    1  UNL1       -0.2961
      4 C           0.9381    2.2486    0.3949 C.3     1  UNL1        0.0403
      5 C          -0.5570    2.3478    0.7035 C.ar    1  UNL1       -0.0224
      6 C          -1.1655    3.4970    1.2936 C.ar    1  UNL1       -0.0118
      7 C          -0.4418    4.7230    1.7542 C.ar    1  UNL1        0.0005
      8 C           0.6039    5.3308    1.0593 C.ar    1  UNL1        0.0353
      9 N           1.3483    6.3833    1.4932 N.ar    1  UNL1       -0.2627
     10 C           0.9973    6.9290    2.6710 C.ar    1  UNL1        0.0276
     11 C          -0.0863    6.4961    3.4067 C.ar    1  UNL1       -0.0430
     12 C          -0.7973    5.3842    2.9462 C.ar    1  UNL1       -0.0511
     13 C          -2.5681    3.4341    1.5139 C.ar    1  UNL1       -0.0537
     14 C          -3.3393    2.3152    1.1911 C.ar    1  UNL1       -0.0612
     15 C          -2.7383    1.2016    0.6449 C.ar    1  UNL1       -0.0614
     16 C          -1.3663    1.2147    0.4269 C.ar    1  UNL1       -0.0565
     17 C           0.9225    1.1986   -1.8622 C.3     1  UNL1        0.0038
     18 C           2.3007   -1.1868   -0.6397 C.ar    1  UNL1        0.0791
     19 C           3.0642   -1.0632   -1.8062 C.ar    1  UNL1        0.1325
     20 O           3.6245    0.1080   -2.2408 O.3     1  UNL1       -0.5059
     21 C           3.2725   -2.1683   -2.6182 C.ar    1  UNL1        0.0228
     22 C           2.7930   -3.4162   -2.2197 C.ar    1  UNL1        0.1310
     23 O           2.9630   -4.4573   -3.0942 O.3     1  UNL1       -0.5059
     24 C           2.1439   -3.6054   -0.9808 C.ar    1  UNL1        0.0619
     25 C           1.9362   -5.0026   -0.4847 C.ar    1  UNL1        0.1727
     26 N           1.0164   -5.4256    0.4467 N.ar    1  UNL1       -0.2434
     27 C          -0.0796   -4.7961    1.0661 C.ar    1  UNL1        0.0558
     28 C          -1.1272   -4.1990    0.3456 C.ar    1  UNL1       -0.0264
     29 C          -1.3614   -4.4439   -1.1206 C.3     1  UNL1       -0.0377
     30 C          -2.1429   -3.5210    1.0490 C.ar    1  UNL1       -0.0569
     31 C          -2.1772   -3.5193    2.4406 C.ar    1  UNL1       -0.0614
     32 C          -1.2096   -4.2220    3.1537 C.ar    1  UNL1       -0.0598
     33 C          -0.1693   -4.8524    2.4696 C.ar    1  UNL1       -0.0374
     34 C           1.3056   -6.7557    0.6677 C.ar    1  UNL1        0.3489
     35 O           0.7570   -7.5672    1.3963 O.2     1  UNL1       -0.2446
     36 N           2.3719   -7.0518   -0.1651 N.ar    1  UNL1       -0.2260
     37 N           2.7570   -5.9538   -0.8603 N.ar    1  UNL1       -0.1507
     38 C           1.9019   -2.4694   -0.1926 C.ar    1  UNL1       -0.0319
     39 H           1.2576    3.1109   -0.1895 H       1  UNL1        0.0514
     40 H           1.5012    2.2445    1.3343 H       1  UNL1        0.0514
     41 H           0.8922    5.0114    0.0658 H       1  UNL1        0.0836
     42 H           1.6201    7.7511    3.0112 H       1  UNL1        0.0829
     43 H          -0.3669    6.9991    4.3255 H       1  UNL1        0.0633
     44 H          -1.6362    5.0395    3.5470 H       1  UNL1        0.0625
     45 H          -3.0931    4.2784    1.9586 H       1  UNL1        0.0624
     46 H          -4.4095    2.3124    1.3896 H       1  UNL1        0.0618
     47 H          -3.3187    0.3204    0.3888 H       1  UNL1        0.0618
     48 H          -0.9287    0.3041    0.0217 H       1  UNL1        0.0621
     49 H           1.0644    0.2720   -2.4128 H       1  UNL1        0.0429
     50 H           1.4940    2.0038   -2.3348 H       1  UNL1        0.0429
     51 H          -0.1399    1.4431   -1.9328 H       1  UNL1        0.0429
     52 H           3.5133    0.7950   -1.5575 H       1  UNL1        0.2922
     53 H           3.7970   -2.0431   -3.5613 H       1  UNL1        0.0691
     54 H           3.8014   -4.3333   -3.5709 H       1  UNL1        0.2922
     55 H          -0.5813   -5.0495   -1.5862 H       1  UNL1        0.0278
     56 H          -1.4519   -3.5018   -1.6660 H       1  UNL1        0.0278
     57 H          -2.2971   -5.0082   -1.2314 H       1  UNL1        0.0278
     58 H          -2.9568   -3.0433    0.5063 H       1  UNL1        0.0621
     59 H          -2.9862   -3.0214    2.9715 H       1  UNL1        0.0618
     60 H          -1.2667   -4.2873    4.2378 H       1  UNL1        0.0618
     61 H           0.5782   -5.3934    3.0494 H       1  UNL1        0.0638
     62 H           2.7954   -7.9611   -0.2929 H       1  UNL1        0.1937
     63 H           1.4393   -2.5550    0.7875 H       1  UNL1        0.0634
@<TRIPOS>BOND
     1     1     2    2
     2     2     3   am
     3     3     4    1
     4     4     5    1
     5     5     6   ar
     6     6     7    1
     7     7     8   ar
     8     8     9   ar
     9     9    10   ar
    10    10    11   ar
    11    11    12   ar
    12     7    12   ar
    13     6    13   ar
    14    13    14   ar
    15    14    15   ar
    16    15    16   ar
    17     5    16   ar
    18     3    17    1
    19     2    18    1
    20    18    19   ar
    21    19    20    1
    22    19    21   ar
    23    21    22   ar
    24    22    23    1
    25    22    24   ar
    26    24    25    1
    27    25    26   ar
    28    26    27    1
    29    27    28   ar
    30    28    29    1
    31    28    30   ar
    32    30    31   ar
    33    31    32   ar
    34    32    33   ar
    35    27    33   ar
    36    26    34   ar
    37    34    35    2
    38    34    36   ar
    39    36    37   ar
    40    25    37   ar
    41    24    38   ar
    42    18    38   ar
    43     4    39    1
    44     4    40    1
    45     8    41    1
    46    10    42    1
    47    11    43    1
    48    12    44    1
    49    13    45    1
    50    14    46    1
    51    15    47    1
    52    16    48    1
    53    17    49    1
    54    17    50    1
    55    17    51    1
    56    20    52    1
    57    21    53    1
    58    23    54    1
    59    29    55    1
    60    29    56    1
    61    29    57    1
    62    30    58    1
    63    31    59    1
    64    32    60    1
    65    33    61    1
    66    36    62    1
    67    38    63    1
@<TRIPOS>MOLECULE
*****
 62 66 0 0 0
SMALL
GASTEIGER

@<TRIPOS>ATOM
      1 O           1.0868   -0.2363    0.3129 O.2     1  UNL1       -0.2699
      2 C           2.3130   -0.2875    0.4841 C.2     1  UNL1        0.2502
      3 N           3.0768   -1.2729   -0.1539 N.am    1  UNL1       -0.2962
      4 C           2.3861   -2.1269   -1.1578 C.3     1  UNL1        0.0397
      5 C           2.6130   -1.5932   -2.5638 C.ar    1  UNL1       -0.0295
      6 C           2.0172   -0.3799   -2.9558 C.ar    1  UNL1       -0.0492
      7 C           2.4476    0.3287   -4.0933 C.ar    1  UNL1       -0.0147
      8 C           1.9373    1.6800   -4.4060 C.ar    1  UNL1        0.0183
      9 C           1.4619    2.5656   -3.4477 C.ar    1  UNL1        0.0385
     10 N           1.0323    3.8249   -3.6954 N.ar    1  UNL1       -0.2431
     11 C           1.0898    4.2162   -4.9733 C.ar    1  UNL1        0.1159
     12 N           1.5174    3.4718   -6.0001 N.ar    1  UNL1       -0.2431
     13 C           1.9239    2.2205   -5.6844 C.ar    1  UNL1        0.0385
     14 C           3.4464   -0.2760   -4.8788 C.ar    1  UNL1       -0.0539
     15 C           3.9578   -1.5397   -4.5701 C.ar    1  UNL1       -0.0609
     16 C           3.5424   -2.1980   -3.4172 C.ar    1  UNL1       -0.0570
     17 C           4.5292   -1.3986   -0.1594 C.3     1  UNL1        0.0038
     18 C           2.8753    0.8437    1.3018 C.ar    1  UNL1        0.0791
     19 C           2.2295    2.0916    1.2076 C.ar    1  UNL1        0.1325
     20 O           1.1099    2.3037    0.4404 O.3     1  UNL1       -0.5059
     21 C           2.7047    3.2217    1.8742 C.ar    1  UNL1        0.0228
     22 C           3.8776    3.1482    2.6223 C.ar    1  UNL1        0.1310
     23 O           4.4022    4.3043    3.1152 O.3     1  UNL1       -0.5059
     24 C           4.5293    1.9265    2.7877 C.ar    1  UNL1        0.0619
     25 C           5.9182    1.8201    3.3192 C.ar    1  UNL1        0.1727
     26 N           6.5468    2.6109    4.2511 N.ar    1  UNL1       -0.2434
     27 C           6.1270    3.5744    5.2116 C.ar    1  UNL1        0.0558
     28 C           5.1812    3.3385    6.2270 C.ar    1  UNL1       -0.0264
     29 C           4.2793    2.1456    6.3203 C.3     1  UNL1       -0.0377
     30 C           5.1212    4.2400    7.3173 C.ar    1  UNL1       -0.0569
     31 C           5.8770    5.4120    7.3506 C.ar    1  UNL1       -0.0614
     32 C           6.7089    5.7117    6.2867 C.ar    1  UNL1       -0.0598
     33 C           6.8522    4.7885    5.2507 C.ar    1  UNL1       -0.0374
     34 C           7.8850    2.2530    4.1735 C.ar    1  UNL1        0.3489
     35 O           8.8659    2.6924    4.7523 O.2     1  UNL1       -0.2446
     36 N           7.9458    1.2126    3.2670 N.ar    1  UNL1       -0.2260
     37 N           6.7243    0.9595    2.7366 N.ar    1  UNL1       -0.1507
     38 C           3.9813    0.7668    2.1614 C.ar    1  UNL1       -0.0319
     39 H           1.3102   -2.1914   -0.9601 H       1  UNL1        0.0514
     40 H           2.7807   -3.1465   -1.0659 H       1  UNL1        0.0514
     41 H           1.2383    0.0319   -2.3159 H       1  UNL1        0.0627
     42 H           1.4240    2.2995   -2.3944 H       1  UNL1        0.0837
     43 H           0.7640    5.2258   -5.1957 H       1  UNL1        0.1047
     44 H           2.2547    1.6461   -6.5456 H       1  UNL1        0.0837
     45 H           3.8735    0.2431   -5.7345 H       1  UNL1        0.0624
     46 H           4.7221   -1.9812   -5.2057 H       1  UNL1        0.0618
     47 H           3.9952   -3.1529   -3.1606 H       1  UNL1        0.0621
     48 H           5.0355   -0.7206    0.5153 H       1  UNL1        0.0429
     49 H           4.9152   -1.1872   -1.1599 H       1  UNL1        0.0429
     50 H           4.7817   -2.4282    0.1117 H       1  UNL1        0.0429
     51 H           0.7379    1.4229    0.2077 H       1  UNL1        0.2922
     52 H           2.1713    4.1611    1.7533 H       1  UNL1        0.0691
     53 H           3.8464    5.0621    2.8654 H       1  UNL1        0.2922
     54 H           4.1243    1.6518    5.3652 H       1  UNL1        0.0278
     55 H           3.2874    2.4752    6.6564 H       1  UNL1        0.0278
     56 H           4.6668    1.4194    7.0391 H       1  UNL1        0.0278
     57 H           4.4889    4.0144    8.1749 H       1  UNL1        0.0621
     58 H           5.8144    6.0836    8.2035 H       1  UNL1        0.0618
     59 H           7.2783    6.6367    6.2758 H       1  UNL1        0.0618
     60 H           7.5576    5.0234    4.4535 H       1  UNL1        0.0638
     61 H           8.7969    0.7689    2.9522 H       1  UNL1        0.1937
     62 H           4.4646   -0.1916    2.3436 H       1  UNL1        0.0634
@<TRIPOS>BOND
     1     1     2    2
     2     2     3   am
     3     3     4    1
     4     4     5    1
     5     5     6   ar
     6     6     7   ar
     7     7     8    1
     8     8     9   ar
     9     9    10   ar
    10    10    11   ar
    11    11    12   ar
    12    12    13   ar
    13     8    13   ar
    14     7    14   ar
    15    14    15   ar
    16    15    16   ar
    17     5    16   ar
    18     3    17    1
    19     2    18    1
    20    18    19   ar
    21    19    20    1
    22    19    21   ar
    23    21    22   ar
    24    22    23    1
    25    22    24   ar
    26    24    25    1
    27    25    26   ar
    28    26    27    1
    29    27    28   ar
    30    28    29    1
    31    28    30   ar
    32    30    31   ar
    33    31    32   ar
    34    32    33   ar
    35    27    33   ar
    36    26    34   ar
    37    34    35    2
    38    34    36   ar
    39    36    37   ar
    40    25    37   ar
    41    24    38   ar
    42    18    38   ar
    43     4    39    1
    44     4    40    1
    45     6    41    1
    46     9    42    1
    47    11    43    1
    48    13    44    1
    49    14    45    1
    50    15    46    1
    51    16    47    1
    52    17    48    1
    53    17    49    1
    54    17    50    1
    55    20    51    1
    56    21    52    1
    57    23    53    1
    58    29    54    1
    59    29    55    1
    60    29    56    1
    61    30    57    1
    62    31    58    1
    63    32    59    1
    64    33    60    1
    65    36    61    1
    66    38    62    1
@<TRIPOS>MOLECULE
*****
 52 55 0 0 0
SMALL
GASTEIGER

@<TRIPOS>ATOM
      1 O           1.8361    0.2373    0.3665 O.2     1  UNL1       -0.2695
      2 C           2.3789   -0.8499    0.1492 C.2     1  UNL1        0.2541
      3 N           2.3939   -1.9246    1.0859 N.am    1  UNL1       -0.2704
      4 C           3.3202   -3.0643    0.9909 C.3     1  UNL1        0.0086
      5 C           1.5814   -1.8558    2.2979 C.ar    1  UNL1        0.0363
      6 C           0.4279   -1.0597    2.3658 C.ar    1  UNL1       -0.0400
      7 C          -0.3146   -0.9212    3.5486 C.ar    1  UNL1       -0.0571
      8 C           0.0644   -1.5917    4.7088 C.ar    1  UNL1       -0.0503
      9 C          -0.6791   -1.4010    5.9960 C.3     1  UNL1       -0.0397
     10 C           1.1723   -2.4347    4.6518 C.ar    1  UNL1       -0.0571
     11 C           1.9076   -2.5754    3.4627 C.ar    1  UNL1       -0.0400
     12 C           3.0515   -0.9349   -1.1895 C.ar    1  UNL1        0.0793
     13 C           3.0845   -2.0822   -1.9892 C.ar    1  UNL1        0.1310
     14 O           2.4093   -3.2396   -1.7005 O.3     1  UNL1       -0.5059
     15 C           3.7851   -2.1104   -3.1987 C.ar    1  UNL1        0.0060
     16 C           4.3410   -0.9118   -3.6540 C.ar    1  UNL1        0.0695
     17 N           5.0071   -0.6230   -4.8100 N.ar    1  UNL1       -0.2766
     18 H           5.2402   -1.2593   -5.5629 H       1  UNL1        0.1889
     19 N           5.3076    0.6695   -4.9638 N.ar    1  UNL1       -0.1774
     20 C           4.8204    1.2615   -3.8586 C.ar    1  UNL1        0.0748
     21 C           4.7901    2.7552   -3.8525 C.3     1  UNL1        0.0171
     22 C           5.5455    3.3287   -2.6836 C.ar    1  UNL1       -0.0413
     23 C           4.8209    3.9269   -1.6449 C.ar    1  UNL1       -0.0553
     24 C           5.4528    4.7355   -0.6950 C.ar    1  UNL1       -0.0502
     25 C           4.6179    5.5032    0.2847 C.3     1  UNL1       -0.0397
     26 C           6.8463    4.8415   -0.7068 C.ar    1  UNL1       -0.0588
     27 C           7.5933    4.2036   -1.7007 C.ar    1  UNL1       -0.0612
     28 C           6.9421    3.4688   -2.6942 C.ar    1  UNL1       -0.0582
     29 C           4.2384    0.2947   -2.9690 C.ar    1  UNL1        0.0239
     30 C           3.5917    0.2750   -1.7106 C.ar    1  UNL1       -0.0351
     31 H           4.0443   -2.9543    0.1851 H       1  UNL1        0.0433
     32 H           2.7301   -3.9759    0.8350 H       1  UNL1        0.0433
     33 H           3.9198   -3.1778    1.8948 H       1  UNL1        0.0433
     34 H           0.0608   -0.5225    1.4962 H       1  UNL1        0.0636
     35 H          -1.1868   -0.2721    3.5455 H       1  UNL1        0.0621
     36 H          -1.5497   -0.7503    5.8645 H       1  UNL1        0.0278
     37 H          -0.0222   -0.9364    6.7386 H       1  UNL1        0.0278
     38 H          -1.0342   -2.3622    6.3809 H       1  UNL1        0.0278
     39 H           1.4898   -2.9763    5.5409 H       1  UNL1        0.0621
     40 H           2.7704   -3.2283    3.5218 H       1  UNL1        0.0636
     41 H           1.7015   -3.0368   -1.0619 H       1  UNL1        0.2922
     42 H           3.8397   -3.0199   -3.7887 H       1  UNL1        0.0675
     43 H           3.7496    3.1028   -3.8497 H       1  UNL1        0.0377
     44 H           5.2296    3.1596   -4.7757 H       1  UNL1        0.0377
     45 H           3.7378    3.8252   -1.6202 H       1  UNL1        0.0623
     46 H           3.6510    5.7582   -0.1659 H       1  UNL1        0.0278
     47 H           5.1003    6.4505    0.5457 H       1  UNL1        0.0278
     48 H           4.4427    4.9184    1.1906 H       1  UNL1        0.0278
     49 H           7.3583    5.4517    0.0339 H       1  UNL1        0.0620
     50 H           8.6699    4.3217   -1.7285 H       1  UNL1        0.0618
     51 H           7.5271    3.0506   -3.5160 H       1  UNL1        0.0620
     52 H           3.4910    1.1989   -1.1447 H       1  UNL1        0.0633
@<TRIPOS>BOND
     1     1     2    2
     2     2     3   am
     3     3     4    1
     4     3     5    1
     5     5     6   ar
     6     6     7   ar
     7     7     8   ar
     8     8     9    1
     9     8    10   ar
    10    10    11   ar
    11     5    11   ar
    12     2    12    1
    13    12    13   ar
    14    13    14    1
    15    13    15   ar
    16    15    16   ar
    17    16    17   ar
    18    17    18    1
    19    17    19   ar
    20    19    20   ar
    21    20    21    1
    22    21    22    1
    23    22    23   ar
    24    23    24   ar
    25    24    25    1
    26    24    26   ar
    27    26    27   ar
    28    27    28   ar
    29    22    28   ar
    30    20    29   ar
    31    16    29   ar
    32    29    30   ar
    33    12    30   ar
    34     4    31    1
    35     4    32    1
    36     4    33    1
    37     6    34    1
    38     7    35    1
    39     9    36    1
    40     9    37    1
    41     9    38    1
    42    10    39    1
    43    11    40    1
    44    14    41    1
    45    15    42    1
    46    21    43    1
    47    21    44    1
    48    23    45    1
    49    25    46    1
    50    25    47    1
    51    25    48    1
    52    26    49    1
    53    27    50    1
    54    28    51    1
    55    30    52    1
@<TRIPOS>MOLECULE
*****
 49 52 0 0 0
SMALL
GASTEIGER

@<TRIPOS>ATOM
      1 BR          9.8990   -5.3713    1.3250 Br      1  UNL1       -0.0503
      2 C           9.1140   -3.7019    0.9199 C.ar    1  UNL1        0.0180
      3 C           9.9038   -2.6366    0.5023 C.ar    1  UNL1       -0.0460
      4 C           9.3252   -1.3798    0.2507 C.ar    1  UNL1       -0.0392
      5 C           7.9526   -1.1621    0.4305 C.ar    1  UNL1        0.0363
      6 N           7.3338    0.1457    0.3219 N.am    1  UNL1       -0.2704
      7 C           7.9112    1.2256   -0.3962 C.2     1  UNL1        0.2541
      8 O           9.0224    1.2143   -0.9337 O.2     1  UNL1       -0.2695
      9 C           7.1757    2.5301   -0.5258 C.ar    1  UNL1        0.0793
     10 C           7.8843    3.7404   -0.4637 C.ar    1  UNL1        0.1310
     11 O           9.2528    3.7985   -0.3987 O.3     1  UNL1       -0.5059
     12 C           7.2318    4.9842   -0.4765 C.ar    1  UNL1        0.0060
     13 C           5.8328    4.9751   -0.5556 C.ar    1  UNL1        0.0695
     14 N           4.9141    5.9783   -0.5644 N.ar    1  UNL1       -0.2766
     15 H           5.0863    6.9753   -0.4927 H       1  UNL1        0.1889
     16 N           3.6392    5.5601   -0.6419 N.ar    1  UNL1       -0.1774
     17 C           3.7352    4.2191   -0.7230 C.ar    1  UNL1        0.0748
     18 C           2.4825    3.3903   -0.7604 C.3     1  UNL1        0.0171
     19 C           2.5004    2.4652   -1.9578 C.ar    1  UNL1       -0.0413
     20 C           3.1673    2.7600   -3.1568 C.ar    1  UNL1       -0.0553
     21 C           3.2771    1.8068   -4.1760 C.ar    1  UNL1       -0.0502
     22 C           4.1703    2.0593   -5.3537 C.3     1  UNL1       -0.0397
     23 C           2.5792    0.6013   -4.0634 C.ar    1  UNL1       -0.0588
     24 C           1.8200    0.3353   -2.9263 C.ar    1  UNL1       -0.0612
     25 C           1.7933    1.2529   -1.8751 C.ar    1  UNL1       -0.0582
     26 C           5.1003    3.8011   -0.6822 C.ar    1  UNL1        0.0239
     27 C           5.7864    2.5695   -0.7374 C.ar    1  UNL1       -0.0351
     28 C           6.1345    0.3399    1.1503 C.3     1  UNL1        0.0086
     29 C           7.1736   -2.2800    0.7988 C.ar    1  UNL1       -0.0392
     30 C           7.7435   -3.5337    1.0528 C.ar    1  UNL1       -0.0460
     31 H          10.9782   -2.7596    0.3902 H       1  UNL1        0.0629
     32 H          10.0005   -0.5784   -0.0299 H       1  UNL1        0.0636
     33 H           9.5964    2.9149   -0.6615 H       1  UNL1        0.2922
     34 H           7.7943    5.9099   -0.4159 H       1  UNL1        0.0675
     35 H           1.5858    4.0174   -0.7890 H       1  UNL1        0.0377
     36 H           2.4541    2.7975    0.1620 H       1  UNL1        0.0377
     37 H           3.6606    3.7226   -3.2850 H       1  UNL1        0.0623
     38 H           4.7957    2.9444   -5.1931 H       1  UNL1        0.0278
     39 H           3.5840    2.2066   -6.2640 H       1  UNL1        0.0278
     40 H           4.8488    1.2097   -5.4883 H       1  UNL1        0.0278
     41 H           2.6340   -0.1400   -4.8573 H       1  UNL1        0.0620
     42 H           1.2697   -0.5991   -2.8487 H       1  UNL1        0.0618
     43 H           1.2192    1.0099   -0.9829 H       1  UNL1        0.0620
     44 H           5.2253    1.6632   -0.9299 H       1  UNL1        0.0633
     45 H           6.1229   -0.3257    2.0183 H       1  UNL1        0.0433
     46 H           5.2463    0.1451    0.5430 H       1  UNL1        0.0433
     47 H           6.1099    1.3528    1.5588 H       1  UNL1        0.0433
     48 H           6.0935   -2.2064    0.8935 H       1  UNL1        0.0636
     49 H           7.1076   -4.3597    1.3618 H       1  UNL1        0.0629
@<TRIPOS>BOND
     1     1     2    1
     2     2     3   ar
     3     3     4   ar
     4     4     5   ar
     5     5     6    1
     6     6     7   am
     7     7     8    2
     8     7     9    1
     9     9    10   ar
    10    10    11    1
    11    10    12   ar
    12    12    13   ar
    13    13    14   ar
    14    14    15    1
    15    14    16   ar
    16    16    17   ar
    17    17    18    1
    18    18    19    1
    19    19    20   ar
    20    20    21   ar
    21    21    22    1
    22    21    23   ar
    23    23    24   ar
    24    24    25   ar
    25    19    25   ar
    26    17    26   ar
    27    13    26   ar
    28    26    27   ar
    29     9    27   ar
    30     6    28    1
    31     5    29   ar
    32    29    30   ar
    33     2    30   ar
    34     3    31    1
    35     4    32    1
    36    11    33    1
    37    12    34    1
    38    18    35    1
    39    18    36    1
    40    20    37    1
    41    22    38    1
    42    22    39    1
    43    22    40    1
    44    23    41    1
    45    24    42    1
    46    25    43    1
    47    27    44    1
    48    28    45    1
    49    28    46    1
    50    28    47    1
    51    29    48    1
    52    30    49    1
@<TRIPOS>MOLECULE
*****
 60 64 0 0 0
SMALL
GASTEIGER

@<TRIPOS>ATOM
      1 O           0.6600   13.1294   -1.7566 O.2     1  UNL1       -0.2756
      2 C           0.2868   12.3167   -0.9104 C.2     1  UNL1        0.2167
      3 C          -0.6717   12.7462    0.1709 C.3     1  UNL1        0.0127
      4 N           0.6946   10.9930   -0.8370 N.am    1  UNL1       -0.2711
      5 C           1.6333   10.3740   -1.6760 C.ar    1  UNL1        0.0396
      6 C           1.8309    9.0547   -1.2965 C.ar    1  UNL1       -0.0227
      7 C           2.7019    8.2211   -1.9838 C.ar    1  UNL1       -0.0353
      8 C           3.2962    8.6559   -3.1813 C.ar    1  UNL1        0.0366
      9 N           3.9721    7.7249   -4.0747 N.am    1  UNL1       -0.2704
     10 C           3.7392    6.3243   -3.9658 C.2     1  UNL1        0.2541
     11 O           2.9167    5.8134   -3.1921 O.2     1  UNL1       -0.2695
     12 C           4.4003    5.3140   -4.8643 C.ar    1  UNL1        0.0793
     13 C           3.7286    4.0971   -5.1181 C.ar    1  UNL1        0.1310
     14 O           2.4812    3.8011   -4.6208 O.3     1  UNL1       -0.5059
     15 C           4.2880    3.0823   -5.8992 C.ar    1  UNL1        0.0060
     16 C           5.5087    3.3602   -6.5088 C.ar    1  UNL1        0.0695
     17 N           6.3149    2.6056   -7.3116 N.ar    1  UNL1       -0.2766
     18 H           6.1949    1.6320   -7.5620 H       1  UNL1        0.1889
     19 N           7.3566    3.2726   -7.8256 N.ar    1  UNL1       -0.1774
     20 C           7.2143    4.5200   -7.3517 C.ar    1  UNL1        0.0748
     21 C           8.0468    5.6384   -7.9196 C.3     1  UNL1        0.0171
     22 C           7.2837    6.2377   -9.0995 C.ar    1  UNL1       -0.0413
     23 C           6.7453    5.4335  -10.1231 C.ar    1  UNL1       -0.0553
     24 C           6.0011    5.9766  -11.1813 C.ar    1  UNL1       -0.0502
     25 C           5.3067    5.0749  -12.1597 C.3     1  UNL1       -0.0397
     26 C           5.8495    7.3619  -11.2623 C.ar    1  UNL1       -0.0588
     27 C           6.4430    8.1858  -10.3058 C.ar    1  UNL1       -0.0612
     28 C           7.1496    7.6298   -9.2313 C.ar    1  UNL1       -0.0582
     29 C           6.1702    4.5748   -6.3724 C.ar    1  UNL1        0.0239
     30 C           5.6688    5.5069   -5.4429 C.ar    1  UNL1       -0.0351
     31 C           4.6715    8.2662   -5.2393 C.3     1  UNL1        0.0086
     32 C           3.1234   10.0231   -3.5067 C.ar    1  UNL1       -0.0385
     33 C           2.3077   10.8852   -2.7578 C.ar    1  UNL1       -0.0382
     34 C           0.8850    8.6540   -0.2103 C.3     1  UNL1       -0.0096
     35 C           0.2602   10.0013    0.1697 C.3     1  UNL1        0.0238
     36 H          -0.9747   13.7812   -0.0121 H       1  UNL1        0.0323
     37 H          -0.1799   12.6954    1.1455 H       1  UNL1        0.0323
     38 H          -1.5686   12.1237    0.1614 H       1  UNL1        0.0323
     39 H           2.8555    7.2235   -1.5860 H       1  UNL1        0.0639
     40 H           2.2506    4.4939   -3.9611 H       1  UNL1        0.2922
     41 H           3.7670    2.1423   -6.0480 H       1  UNL1        0.0675
     42 H           9.0160    5.2669   -8.2702 H       1  UNL1        0.0377
     43 H           8.2329    6.3989   -7.1531 H       1  UNL1        0.0377
     44 H           6.8877    4.3546  -10.0897 H       1  UNL1        0.0623
     45 H           5.7157    4.0591  -12.1278 H       1  UNL1        0.0278
     46 H           5.4188    5.4447  -13.1837 H       1  UNL1        0.0278
     47 H           4.2410    5.0198  -11.9133 H       1  UNL1        0.0278
     48 H           5.2706    7.8044  -12.0704 H       1  UNL1        0.0620
     49 H           6.3431    9.2651  -10.3936 H       1  UNL1        0.0618
     50 H           7.6000    8.3003   -8.5035 H       1  UNL1        0.0620
     51 H           6.2937    6.3506   -5.1981 H       1  UNL1        0.0633
     52 H           4.4627    9.3023   -5.4795 H       1  UNL1        0.0433
     53 H           4.4004    7.6962   -6.1320 H       1  UNL1        0.0433
     54 H           5.7459    8.2197   -5.0479 H       1  UNL1        0.0433
     55 H           3.5593   10.4826   -4.3842 H       1  UNL1        0.0637
     56 H           2.1795   11.9125   -3.0830 H       1  UNL1        0.0637
     57 H           1.3737    8.1642    0.6366 H       1  UNL1        0.0329
     58 H           0.1242    7.9849   -0.6303 H       1  UNL1        0.0329
     59 H           0.6054   10.3340    1.1540 H       1  UNL1        0.0472
     60 H          -0.8336    9.9385    0.1872 H       1  UNL1        0.0472
@<TRIPOS>BOND
     1     1     2    2
     2     2     3    1
     3     2     4   am
     4     4     5    1
     5     5     6   ar
     6     6     7   ar
     7     7     8   ar
     8     8     9    1
     9     9    10   am
    10    10    11    2
    11    10    12    1
    12    12    13   ar
    13    13    14    1
    14    13    15   ar
    15    15    16   ar
    16    16    17   ar
    17    17    18    1
    18    17    19   ar
    19    19    20   ar
    20    20    21    1
    21    21    22    1
    22    22    23   ar
    23    23    24   ar
    24    24    25    1
    25    24    26   ar
    26    26    27   ar
    27    27    28   ar
    28    22    28   ar
    29    20    29   ar
    30    16    29   ar
    31    29    30   ar
    32    12    30   ar
    33     9    31    1
    34     8    32   ar
    35    32    33   ar
    36     5    33   ar
    37     6    34    1
    38    34    35    1
    39     4    35    1
    40     3    36    1
    41     3    37    1
    42     3    38    1
    43     7    39    1
    44    14    40    1
    45    15    41    1
    46    21    42    1
    47    21    43    1
    48    23    44    1
    49    25    45    1
    50    25    46    1
    51    25    47    1
    52    26    48    1
    53    27    49    1
    54    28    50    1
    55    30    51    1
    56    31    52    1
    57    31    53    1
    58    31    54    1
    59    32    55    1
    60    33    56    1
    61    34    57    1
    62    34    58    1
    63    35    59    1
    64    35    60    1
@<TRIPOS>MOLECULE
*****
 55 59 0 0 0
SMALL
GASTEIGER

@<TRIPOS>ATOM
      1 O           2.1926    0.7441   -0.0740 O.2     1  UNL1       -0.2695
      2 C           2.2083   -0.3405    0.5138 C.2     1  UNL1        0.2541
      3 N           1.7160   -0.5215    1.8423 N.am    1  UNL1       -0.2703
      4 C           1.9774   -1.7362    2.6343 C.3     1  UNL1        0.0086
      5 C           1.0243    0.5588    2.5547 C.ar    1  UNL1        0.0400
      6 C           0.4204    1.6408    1.8910 C.ar    1  UNL1        0.0051
      7 C          -0.2295    2.6714    2.5905 C.ar    1  UNL1        0.1638
      8 O          -0.8153    3.6607    1.8366 O.3     1  UNL1       -0.4849
      9 C          -1.7223    4.4440    2.6218 C.3     1  UNL1        0.1237
     10 C          -1.0858    4.8303    3.9463 C.3     1  UNL1        0.1237
     11 O          -0.8283    3.6619    4.7347 O.3     1  UNL1       -0.4849
     12 C          -0.2618    2.6676    3.9821 C.ar    1  UNL1        0.1622
     13 C           0.2909    1.5968    4.6697 C.ar    1  UNL1       -0.0145
     14 C           0.9066    0.5577    3.9643 C.ar    1  UNL1       -0.0366
     15 C           2.8417   -1.4541   -0.2863 C.ar    1  UNL1        0.0793
     16 C           2.3911   -2.7761   -0.3092 C.ar    1  UNL1        0.1310
     17 O           1.2325   -3.1998    0.2925 O.3     1  UNL1       -0.5059
     18 C           3.0764   -3.7794   -1.0049 C.ar    1  UNL1        0.0060
     19 C           4.1656   -3.3975   -1.7878 C.ar    1  UNL1        0.0695
     20 N           4.9730   -4.1320   -2.6112 N.ar    1  UNL1       -0.2766
     21 H           4.9289   -5.1288   -2.7876 H       1  UNL1        0.1889
     22 N           5.8684   -3.4125   -3.2922 N.ar    1  UNL1       -0.1774
     23 C           5.6476   -2.1444   -2.9011 C.ar    1  UNL1        0.0748
     24 C           6.3832   -1.0783   -3.6444 C.3     1  UNL1        0.0171
     25 C           7.1983   -0.2262   -2.7089 C.ar    1  UNL1       -0.0413
     26 C           6.7516    1.0712   -2.4236 C.ar    1  UNL1       -0.0553
     27 C           7.5819    1.9981   -1.7876 C.ar    1  UNL1       -0.0502
     28 C           7.1373    3.4235   -1.6551 C.3     1  UNL1       -0.0397
     29 C           8.8379    1.5885   -1.3303 C.ar    1  UNL1       -0.0588
     30 C           9.2774    0.2829   -1.5615 C.ar    1  UNL1       -0.0612
     31 C           8.4701   -0.6163   -2.2645 C.ar    1  UNL1       -0.0582
     32 C           4.5969   -2.0787   -1.9198 C.ar    1  UNL1        0.0239
     33 C           3.9203   -1.0957   -1.1526 C.ar    1  UNL1       -0.0351
     34 H           2.6381   -2.4429    2.1395 H       1  UNL1        0.0433
     35 H           1.0126   -2.2187    2.8409 H       1  UNL1        0.0433
     36 H           2.4821   -1.5009    3.5733 H       1  UNL1        0.0433
     37 H           0.4017    1.7030    0.8078 H       1  UNL1        0.0674
     38 H          -2.6414    3.8643    2.7753 H       1  UNL1        0.0731
     39 H          -1.9740    5.3387    2.0449 H       1  UNL1        0.0731
     40 H          -1.7604    5.4744    4.5197 H       1  UNL1        0.0731
     41 H          -0.1415    5.3691    3.7997 H       1  UNL1        0.0731
     42 H           0.2553    1.5766    5.7585 H       1  UNL1        0.0656
     43 H           1.3263   -0.2358    4.5761 H       1  UNL1        0.0637
     44 H           0.6629   -2.4234    0.4467 H       1  UNL1        0.2922
     45 H           2.7442   -4.8120   -0.9634 H       1  UNL1        0.0675
     46 H           5.6781   -0.4626   -4.2164 H       1  UNL1        0.0377
     47 H           7.0631   -1.5148   -4.3904 H       1  UNL1        0.0377
     48 H           5.7673    1.3848   -2.7668 H       1  UNL1        0.0623
     49 H           6.2877    3.6279   -2.3174 H       1  UNL1        0.0278
     50 H           7.9439    4.0982   -1.9610 H       1  UNL1        0.0278
     51 H           6.8392    3.6453   -0.6279 H       1  UNL1        0.0278
     52 H           9.4937    2.2936   -0.8247 H       1  UNL1        0.0620
     53 H          10.2696   -0.0181   -1.2332 H       1  UNL1        0.0618
     54 H           8.8596   -1.6043   -2.5056 H       1  UNL1        0.0620
     55 H           4.2187   -0.0523   -1.2353 H       1  UNL1        0.0633
@<TRIPOS>BOND
     1     1     2    2
     2     2     3   am
     3     3     4    1
     4     3     5    1
     5     5     6   ar
     6     6     7   ar
     7     7     8    1
     8     8     9    1
     9     9    10    1
    10    10    11    1
    11    11    12    1
    12     7    12   ar
    13    12    13   ar
    14    13    14   ar
    15     5    14   ar
    16     2    15    1
    17    15    16   ar
    18    16    17    1
    19    16    18   ar
    20    18    19   ar
    21    19    20   ar
    22    20    21    1
    23    20    22   ar
    24    22    23   ar
    25    23    24    1
    26    24    25    1
    27    25    26   ar
    28    26    27   ar
    29    27    28    1
    30    27    29   ar
    31    29    30   ar
    32    30    31   ar
    33    25    31   ar
    34    23    32   ar
    35    19    32   ar
    36    32    33   ar
    37    15    33   ar
    38     4    34    1
    39     4    35    1
    40     4    36    1
    41     6    37    1
    42     9    38    1
    43     9    39    1
    44    10    40    1
    45    10    41    1
    46    13    42    1
    47    14    43    1
    48    17    44    1
    49    18    45    1
    50    24    46    1
    51    24    47    1
    52    26    48    1
    53    28    49    1
    54    28    50    1
    55    28    51    1
    56    29    52    1
    57    30    53    1
    58    31    54    1
    59    33    55    1
@<TRIPOS>MOLECULE
*****
 48 50 0 0 0
SMALL
GASTEIGER

@<TRIPOS>ATOM
      1 C           0.8558    2.0192   -1.0495 C.3     1  UNL1       -0.0481
      2 C           2.3536    2.3474   -0.9447 C.3     1  UNL1        0.0259
      3 C           2.5282    3.0655    0.3958 C.3     1  UNL1       -0.0481
      4 N           3.2051    1.1004   -1.0792 N.3     1  UNL1       -0.1770
      5 C           2.8785    0.2945   -2.2911 C.3     1  UNL1        0.0092
      6 S           4.9242    1.2334   -0.8269 S.O2    1  UNL1        0.0643
      7 O           5.1491    1.8026    0.4855 O.2     1  UNL1       -0.1527
      8 O           5.5487   -0.0283   -1.1575 O.2     1  UNL1       -0.1527
      9 C           5.3987    2.4774   -2.0182 C.ar    1  UNL1        0.1472
     10 C           5.3247    3.8238   -1.6092 C.ar    1  UNL1       -0.0214
     11 C           5.4036    4.8771   -2.5320 C.ar    1  UNL1        0.0401
     12 C           4.8909    6.2551   -2.1434 C.3     1  UNL1        0.1717
     13 N           3.4060    6.2320   -2.1231 N.2     1  UNL1       -0.1654
     14 N           2.9776    6.7615   -1.0664 N.am    1  UNL1       -0.0648
     15 C           4.0399    7.1710   -0.2828 C.2     1  UNL1        0.3496
     16 O           3.9131    7.8458    0.7268 O.2     1  UNL1       -0.2485
     17 N           5.2322    6.7454   -0.8491 N.am    1  UNL1       -0.2215
     18 C           6.5360    7.0243   -0.3697 C.ar    1  UNL1        0.0754
     19 C           6.7491    7.3220    0.9816 C.ar    1  UNL1       -0.0373
     20 C           8.0302    7.6077    1.4751 C.ar    1  UNL1       -0.0598
     21 C           9.1225    7.5957    0.6182 C.ar    1  UNL1       -0.0589
     22 C           8.9394    7.2898   -0.7282 C.ar    1  UNL1       -0.0246
     23 C           7.6607    7.0088   -1.2102 C.ar    1  UNL1        0.1448
     24 F           7.5329    6.7800   -2.5276 F       1  UNL1       -0.2035
     25 C           5.7561    4.5454   -3.8460 C.ar    1  UNL1        0.1273
     26 O           5.8753    5.4672   -4.8464 O.3     1  UNL1       -0.5062
     27 C           5.9577    3.2169   -4.2342 C.ar    1  UNL1        0.0237
     28 C           5.7381    2.1767   -3.3314 C.ar    1  UNL1        0.1466
     29 O           5.8015    0.8932   -3.7791 O.3     1  UNL1       -0.5047
     30 H           0.2544    2.9271   -0.9210 H       1  UNL1        0.0245
     31 H           0.5538    1.3018   -0.2787 H       1  UNL1        0.0245
     32 H           0.5854    1.6098   -2.0266 H       1  UNL1        0.0245
     33 H           2.5976    3.0282   -1.7676 H       1  UNL1        0.0474
     34 H           2.3480    2.3905    1.2378 H       1  UNL1        0.0245
     35 H           1.8304    3.9079    0.4734 H       1  UNL1        0.0245
     36 H           3.5130    3.5026    0.5309 H       1  UNL1        0.0245
     37 H           1.8618   -0.1008   -2.2217 H       1  UNL1        0.0408
     38 H           3.5173   -0.5889   -2.3748 H       1  UNL1        0.0408
     39 H           2.9665    0.8959   -3.1990 H       1  UNL1        0.0408
     40 H           5.1086    4.0512   -0.5699 H       1  UNL1        0.0643
     41 H           5.1823    7.0162   -2.8729 H       1  UNL1        0.0828
     42 H           5.9314    7.3152    1.7027 H       1  UNL1        0.0637
     43 H           8.1581    7.8372    2.5291 H       1  UNL1        0.0618
     44 H          10.1140    7.8236    1.0011 H       1  UNL1        0.0618
     45 H           9.7860    7.2794   -1.4072 H       1  UNL1        0.0647
     46 H           6.1553    6.3256   -4.4874 H       1  UNL1        0.2921
     47 H           6.2286    3.0119   -5.2666 H       1  UNL1        0.0691
     48 H           6.1552    0.8710   -4.6849 H       1  UNL1        0.2922
@<TRIPOS>BOND
     1     1     2    1
     2     2     3    1
     3     2     4    1
     4     4     5    1
     5     4     6    1
     6     6     7    2
     7     6     8    2
     8     6     9    1
     9     9    10   ar
    10    10    11   ar
    11    11    12    1
    12    12    13    1
    13    13    14    2
    14    14    15    1
    15    15    16    2
    16    15    17   am
    17    12    17    1
    18    17    18    1
    19    18    19   ar
    20    19    20   ar
    21    20    21   ar
    22    21    22   ar
    23    22    23   ar
    24    18    23   ar
    25    23    24    1
    26    11    25   ar
    27    25    26    1
    28    25    27   ar
    29    27    28   ar
    30     9    28   ar
    31    28    29    1
    32     1    30    1
    33     1    31    1
    34     1    32    1
    35     2    33    1
    36     3    34    1
    37     3    35    1
    38     3    36    1
    39     5    37    1
    40     5    38    1
    41     5    39    1
    42    10    40    1
    43    12    41    1
    44    19    42    1
    45    20    43    1
    46    21    44    1
    47    22    45    1
    48    26    46    1
    49    27    47    1
    50    29    48    1
@<TRIPOS>MOLECULE
*****
 56 60 0 0 0
SMALL
GASTEIGER

@<TRIPOS>ATOM
      1 C           9.3236   -1.7019   -3.4443 C.3     1  UNL1       -0.0495
      2 C           8.8206   -2.0426   -2.0540 C.3     1  UNL1        0.0088
      3 N           7.4118   -1.7464   -1.9098 N.am    1  UNL1       -0.3148
      4 C           6.4239   -2.6643   -2.2289 C.2     1  UNL1        0.2235
      5 O           6.7016   -3.7953   -2.6329 O.2     1  UNL1       -0.2748
      6 C           4.9478   -2.1134   -2.0171 C.3     1  UNL1        0.0718
      7 C           3.8921   -3.2074   -1.5905 C.3     1  UNL1       -0.0350
      8 C           3.3028   -2.1941   -0.5992 C.3     1  UNL1       -0.0506
      9 C           4.6623   -1.4828   -0.5995 C.3     1  UNL1       -0.0350
     10 C           4.5801   -1.2256   -3.3143 C.ar    1  UNL1       -0.0317
     11 C           4.8268    0.1591   -3.3715 C.ar    1  UNL1       -0.0462
     12 C           4.4843    0.9598   -4.4983 C.ar    1  UNL1        0.0313
     13 C           3.8941    0.3639   -5.6109 C.ar    1  UNL1        0.0768
     14 C           3.6706   -1.0015   -5.5802 C.ar    1  UNL1       -0.0353
     15 C           4.0066   -1.7853   -4.4681 C.ar    1  UNL1       -0.0555
     16 N           3.5482    1.0431   -6.7113 N.ar    1  UNL1       -0.2146
     17 C           3.7568    2.3558   -6.7276 C.ar    1  UNL1        0.2138
     18 N           3.4083    3.0470   -7.8644 N.pl3   1  UNL1       -0.3274
     19 N           4.3367    3.0364   -5.7525 N.ar    1  UNL1       -0.2094
     20 C           4.6952    2.3310   -4.6521 C.ar    1  UNL1        0.1383
     21 C           5.3562    3.1651   -3.5871 C.2     1  UNL1        0.2663
     22 O           5.0412    3.0285   -2.4068 O.2     1  UNL1       -0.2683
     23 N           6.3088    4.0845   -3.9967 N.am    1  UNL1       -0.2876
     24 C           6.8614    5.0819   -3.0809 C.3     1  UNL1        0.0407
     25 C           7.9023    5.7722   -3.9087 C.ar    1  UNL1       -0.0254
     26 C           8.6801    6.8753   -3.6033 C.ar    1  UNL1       -0.0568
     27 C           9.5991    7.3224   -4.5589 C.ar    1  UNL1       -0.0614
     28 C           9.7326    6.6671   -5.7940 C.ar    1  UNL1       -0.0614
     29 C           8.9445    5.5583   -6.0953 C.ar    1  UNL1       -0.0568
     30 C           8.0329    5.1309   -5.1458 C.ar    1  UNL1       -0.0254
     31 C           7.0651    4.0010   -5.2458 C.3     1  UNL1        0.0407
     32 H          10.3960   -1.9058   -3.5216 H       1  UNL1        0.0245
     33 H           9.1582   -0.6433   -3.6712 H       1  UNL1        0.0245
     34 H           8.8056   -2.2913   -4.2077 H       1  UNL1        0.0245
     35 H           9.3531   -1.4489   -1.3045 H       1  UNL1        0.0459
     36 H           8.9950   -3.1019   -1.8389 H       1  UNL1        0.0459
     37 H           7.1431   -0.8000   -1.6759 H       1  UNL1        0.1487
     38 H           4.3311   -4.0892   -1.1087 H       1  UNL1        0.0278
     39 H           3.1901   -3.5531   -2.3541 H       1  UNL1        0.0278
     40 H           2.9842   -2.6046    0.3623 H       1  UNL1        0.0266
     41 H           2.4883   -1.5899   -1.0144 H       1  UNL1        0.0266
     42 H           5.3386   -1.8351    0.1890 H       1  UNL1        0.0278
     43 H           4.6066   -0.3930   -0.5363 H       1  UNL1        0.0278
     44 H           5.2931    0.6333   -2.5094 H       1  UNL1        0.0628
     45 H           3.2209   -1.4839   -6.4461 H       1  UNL1        0.0639
     46 H           3.8153   -2.8559   -4.5112 H       1  UNL1        0.0621
     47 H           3.3594    2.4291   -8.6617 H       1  UNL1        0.1452
     48 H           3.9496    3.8944   -7.9542 H       1  UNL1        0.1452
     49 H           7.3044    4.5741   -2.2188 H       1  UNL1        0.0514
     50 H           6.0635    5.7590   -2.7604 H       1  UNL1        0.0514
     51 H           8.5825    7.3900   -2.6528 H       1  UNL1        0.0621
     52 H          10.2195    8.1902   -4.3478 H       1  UNL1        0.0618
     53 H          10.4531    7.0289   -6.5233 H       1  UNL1        0.0618
     54 H           9.0366    5.0525   -7.0508 H       1  UNL1        0.0621
     55 H           7.5771    3.0340   -5.2750 H       1  UNL1        0.0514
     56 H           6.4172    4.1293   -6.1134 H       1  UNL1        0.0514
@<TRIPOS>BOND
     1     1     2    1
     2     2     3    1
     3     3     4   am
     4     4     5    2
     5     4     6    1
     6     6     7    1
     7     7     8    1
     8     8     9    1
     9     6     9    1
    10     6    10    1
    11    10    11   ar
    12    11    12   ar
    13    12    13   ar
    14    13    14   ar
    15    14    15   ar
    16    10    15   ar
    17    13    16   ar
    18    16    17   ar
    19    17    18    1
    20    17    19   ar
    21    19    20   ar
    22    12    20   ar
    23    20    21    1
    24    21    22    2
    25    21    23   am
    26    23    24    1
    27    24    25    1
    28    25    26   ar
    29    26    27   ar
    30    27    28   ar
    31    28    29   ar
    32    29    30   ar
    33    25    30   ar
    34    30    31    1
    35    23    31    1
    36     1    32    1
    37     1    33    1
    38     1    34    1
    39     2    35    1
    40     2    36    1
    41     3    37    1
    42     7    38    1
    43     7    39    1
    44     8    40    1
    45     8    41    1
    46     9    42    1
    47     9    43    1
    48    11    44    1
    49    14    45    1
    50    15    46    1
    51    18    47    1
    52    18    48    1
    53    24    49    1
    54    24    50    1
    55    26    51    1
    56    27    52    1
    57    28    53    1
    58    29    54    1
    59    31    55    1
    60    31    56    1
@<TRIPOS>MOLECULE
*****
 92 93 0 0 0
SMALL
GASTEIGER

@<TRIPOS>ATOM
      1 C           4.5156   -3.0363   -0.0494 C.3     1  UNL1       -0.0130
      2 N           4.5445   -1.5795    0.0453 N.3     1  UNL1       -0.3069
      3 C           4.4117   -1.1877    1.4559 C.3     1  UNL1       -0.0130
      4 C           5.5183   -0.7635   -0.9284 C.3     1  UNL1        0.0138
      5 C           7.3826   -0.1755   -1.0976 C.3     1  UNL1        0.0220
      6 N           9.2612   -0.6238   -1.3137 N.pl3   1  UNL1       -0.3394
      7 C          10.9570    0.1222   -1.8588 C.2     1  UNL1        0.0815
      8 C           9.7975    1.6045   -1.7548 C.2     1  UNL1        0.2019
      9 O           8.6519    1.6465   -2.2300 O.2     1  UNL1       -0.2859
     10 C           9.8665    2.7691   -0.9017 C.2     1  UNL1        0.0119
     11 C          11.1569    2.7108   -1.0737 C.2     1  UNL1        0.0849
     12 N          11.5555    3.9028   -1.5146 N.am    1  UNL1       -0.2786
     13 C          12.8404    4.0008   -1.3110 C.2     1  UNL1        0.2441
     14 O          13.4063    3.7538   -0.2654 O.2     1  UNL1       -0.2702
     15 C          13.3457    3.9177   -2.6614 C.2     1  UNL1        0.0115
     16 C          13.4680    5.3355   -3.0025 C.3     1  UNL1       -0.0348
     17 C          14.0950    2.8226   -2.6221 C.2     1  UNL1       -0.0541
     18 C          15.4529    3.0097   -2.3298 C.2     1  UNL1       -0.0627
     19 C          16.2168    2.1574   -2.9729 C.2     1  UNL1       -0.0518
     20 C          17.4859    2.6483   -3.5095 C.3     1  UNL1        0.1175
     21 H          18.0677    3.1055   -2.6810 H       1  UNL1        0.0681
     22 O          17.3420    3.4202   -4.6626 O.3     1  UNL1       -0.3717
     23 C          16.5684    4.5318   -4.4110 C.3     1  UNL1        0.0374
     24 C          18.1832    1.4922   -4.0725 C.3     1  UNL1        0.1550
     25 H          18.2488    1.1319   -3.0712 H       1  UNL1        0.0812
     26 O          17.4054    0.5773   -4.8901 O.3     1  UNL1       -0.4398
     27 C          17.4413    0.8036   -6.2235 C.2     1  UNL1        0.3983
     28 N          17.0397   -0.2751   -6.9288 N.am    1  UNL1       -0.2950
     29 O          17.9225    1.7586   -6.8118 O.2     1  UNL1       -0.2267
     30 C          19.5506    1.7399   -4.5962 C.2     1  UNL1       -0.0334
     31 C          20.2027    3.0428   -4.2633 C.3     1  UNL1       -0.0402
     32 C          20.1373    0.8212   -5.3826 C.2     1  UNL1       -0.0761
     33 C          21.6058    0.7708   -5.4608 C.3     1  UNL1        0.0031
     34 H          22.0251    1.4351   -4.7053 H       1  UNL1        0.0366
     35 C          22.1116    1.4264   -6.6963 C.3     1  UNL1       -0.0565
     36 C          21.8663   -0.6401   -4.9280 C.3     1  UNL1        0.0872
     37 H          22.9681   -0.7418   -4.7760 H       1  UNL1        0.0625
     38 O          21.7316   -1.6580   -5.9345 O.3     1  UNL1       -0.3887
     39 C          21.0557   -0.4816   -3.2650 C.3     1  UNL1        0.0849
     40 H          21.1811    0.5862   -3.2139 H       1  UNL1        0.0622
     41 O          22.5655   -0.4327   -2.4339 O.3     1  UNL1       -0.3772
     42 C          23.5610    0.7705   -2.2965 C.3     1  UNL1        0.0369
     43 C          19.1279   -0.3255   -2.5975 C.3     1  UNL1       -0.0213
     44 C          17.0572   -0.7144   -2.3701 C.3     1  UNL1       -0.0373
     45 H          17.1181   -0.7314   -1.3610 H       1  UNL1        0.0302
     46 C          17.8950   -2.3194   -2.9632 C.3     1  UNL1       -0.0620
     47 C          14.8712   -0.5134   -2.2216 C.3     1  UNL1       -0.0194
     48 C          12.8205    0.1334   -1.7280 C.2     1  UNL1        0.0259
     49 C          12.1741    1.3326   -0.7225 C.2     1  UNL1        0.2051
     50 O          11.9250    0.9287    0.4278 O.2     1  UNL1       -0.2856
     51 H           3.9263   -3.5225    0.7581 H       1  UNL1        0.0391
     52 H           5.5312   -3.4015    0.0515 H       1  UNL1        0.0391
     53 H           4.0371   -3.4143   -0.9606 H       1  UNL1        0.0391
     54 H           3.8224   -1.9027    2.0739 H       1  UNL1        0.0391
     55 H           3.8748   -0.2421    1.6099 H       1  UNL1        0.0391
     56 H           5.4025   -1.1525    1.8942 H       1  UNL1        0.0391
     57 H           5.0136    0.2229   -0.6435 H       1  UNL1        0.0442
     58 H           4.9804   -0.8041   -1.9183 H       1  UNL1        0.0442
     59 H           7.3921   -0.0587    0.0082 H       1  UNL1        0.0474
     60 H           7.0546    0.8722   -1.3794 H       1  UNL1        0.0474
     61 H           9.2555    0.0509   -0.5330 H       1  UNL1        0.1462
     62 H           9.2252    3.6814   -1.1208 H       1  UNL1        0.0676
     63 H          10.9849    4.7281   -1.7183 H       1  UNL1        0.1552
     64 H          12.5681    5.8686   -2.6536 H       1  UNL1        0.0279
     65 H          13.5473    5.5200   -4.0639 H       1  UNL1        0.0279
     66 H          14.2870    5.7037   -2.3894 H       1  UNL1        0.0279
     67 H          13.8273    1.9517   -2.0626 H       1  UNL1        0.0622
     68 H          15.7524    3.9873   -1.9839 H       1  UNL1        0.0615
     69 H          15.7951    1.2722   -3.4205 H       1  UNL1        0.0599
     70 H          16.6879    5.2200   -5.2249 H       1  UNL1        0.0524
     71 H          16.9020    4.9592   -3.4615 H       1  UNL1        0.0524
     72 H          15.5447    4.1707   -4.4198 H       1  UNL1        0.0524
     73 H          16.5710   -1.0727   -6.5359 H       1  UNL1        0.1482
     74 H          17.3028   -0.2433   -7.9032 H       1  UNL1        0.1482
     75 H          19.5255    3.7992   -3.8769 H       1  UNL1        0.0276
     76 H          20.5461    3.4595   -5.2070 H       1  UNL1        0.0276
     77 H          21.0042    2.9482   -3.5301 H       1  UNL1        0.0276
     78 H          19.6283   -0.1028   -5.6726 H       1  UNL1        0.0576
     79 H          21.7706    0.9357   -7.6009 H       1  UNL1        0.0236
     80 H          23.1964    1.5141   -6.6234 H       1  UNL1        0.0236
     81 H          21.7234    2.4584   -6.6942 H       1  UNL1        0.0236
     82 H          20.8315   -1.8807   -6.1915 H       1  UNL1        0.2099
     83 H          24.6698    0.5824   -2.4688 H       1  UNL1        0.0524
     84 H          23.5760    0.9197   -1.2109 H       1  UNL1        0.0524
     85 H          23.3921    1.7769   -2.7435 H       1  UNL1        0.0524
     86 H          19.0657   -0.6526   -3.6721 H       1  UNL1        0.0294
     87 H          19.4789   -0.8161   -1.6996 H       1  UNL1        0.0294
     88 H          19.0696   -2.2748   -3.1678 H       1  UNL1        0.0233
     89 H          17.9818   -2.4411   -4.0686 H       1  UNL1        0.0233
     90 H          18.3713   -2.7657   -2.0664 H       1  UNL1        0.0233
     91 H          14.7190   -1.4431   -1.6853 H       1  UNL1        0.0318
     92 H          14.6634   -0.5666   -3.2638 H       1  UNL1        0.0318
@<TRIPOS>BOND
     1     1     2    1
     2     2     3    1
     3     2     4    1
     4     4     5    1
     5     5     6    1
     6     6     7    1
     7     7     8    1
     8     8     9    2
     9     8    10    1
    10    10    11    2
    11    11    12    1
    12    12    13   am
    13    13    14    2
    14    13    15    1
    15    15    16    1
    16    15    17    2
    17    17    18    1
    18    18    19    2
    19    19    20    1
    20    22    23    1
    21    20    24    1
    22    24    25    1
    23    24    26    1
    24    26    27    1
    25    27    28   am
    26    27    29    2
    27    24    30    1
    28    30    31    1
    29    30    32    2
    30    32    33    1
    31    33    36    1
    32    36    37    1
    33    36    38    1
    34    36    39    1
    35    39    40    1
    36    39    41    1
    37    41    42    1
    38    39    43    1
    39    43    44    1
    40    44    45    1
    41    44    46    1
    42    44    47    1
    43    47    48    1
    44     7    48    2
    45    48    49    1
    46    11    49    1
    47    49    50    2
    48    20    22    1
    49    20    21    1
    50    33    35    1
    51    33    34    1
    52     1    51    1
    53     1    52    1
    54     1    53    1
    55     3    54    1
    56     3    55    1
    57     3    56    1
    58     4    57    1
    59     4    58    1
    60     5    59    1
    61     5    60    1
    62     6    61    1
    63    10    62    1
    64    12    63    1
    65    16    64    1
    66    16    65    1
    67    16    66    1
    68    17    67    1
    69    18    68    1
    70    19    69    1
    71    23    70    1
    72    23    71    1
    73    23    72    1
    74    28    73    1
    75    28    74    1
    76    31    75    1
    77    31    76    1
    78    31    77    1
    79    32    78    1
    80    35    79    1
    81    35    80    1
    82    35    81    1
    83    38    82    1
    84    42    83    1
    85    42    84    1
    86    42    85    1
    87    43    86    1
    88    43    87    1
    89    46    88    1
    90    46    89    1
    91    46    90    1
    92    47    91    1
    93    47    92    1
@<TRIPOS>MOLECULE
*****
 47 50 0 0 0
SMALL
GASTEIGER

@<TRIPOS>ATOM
      1 C           6.1670    0.6507    0.6415 C.3     1  UNL1       -0.0585
      2 C           5.9000    0.6285    2.1526 C.3     1  UNL1       -0.0180
      3 C           6.9870    1.4133    2.8987 C.3     1  UNL1       -0.0585
      4 C           4.5202    1.1735    2.4696 C.ar    1  UNL1       -0.0025
      5 C           4.2044    2.4992    2.1274 C.ar    1  UNL1       -0.0406
      6 C           2.9651    3.0659    2.4306 C.ar    1  UNL1        0.0615
      7 C           1.9671    2.2410    2.9640 C.ar    1  UNL1        0.1310
      8 O           0.6762    2.6556    3.1648 O.3     1  UNL1       -0.5059
      9 C           2.2519    0.9222    3.3180 C.ar    1  UNL1        0.0223
     10 C           3.5313    0.4125    3.1056 C.ar    1  UNL1        0.1238
     11 O           3.8344   -0.8550    3.5192 O.3     1  UNL1       -0.5064
     12 C           2.7038    4.4965    2.1707 C.ar    1  UNL1        0.1727
     13 N           1.4968    4.9361    1.9054 N.ar    1  UNL1       -0.1507
     14 N           1.6606    6.2809    1.7303 N.ar    1  UNL1       -0.2260
     15 C           2.9866    6.6530    1.9414 C.ar    1  UNL1        0.3489
     16 O           3.4017    7.8009    1.9415 O.2     1  UNL1       -0.2446
     17 N           3.6636    5.4755    2.1688 N.ar    1  UNL1       -0.2436
     18 C           4.9902    5.4664    2.6309 C.ar    1  UNL1        0.0536
     19 C           5.2790    5.5965    3.9961 C.ar    1  UNL1       -0.0285
     20 C           6.6223    5.7777    4.3977 C.ar    1  UNL1        0.0018
     21 C           7.2474    6.0620    5.6450 C.ar    1  UNL1       -0.0364
     22 C           8.6002    6.1875    5.4219 C.ar    1  UNL1        0.0054
     23 N           8.8323    5.9217    4.0990 N.ar    1  UNL1       -0.3497
     24 C          10.1436    5.8801    3.4877 C.3     1  UNL1        0.0119
     25 C           7.6361    5.7356    3.4349 C.ar    1  UNL1        0.0489
     26 C           7.3620    5.5453    2.0740 C.ar    1  UNL1       -0.0357
     27 C           6.0215    5.4577    1.6867 C.ar    1  UNL1       -0.0357
     28 H           7.1344    0.1915    0.4131 H       1  UNL1        0.0235
     29 H           6.1861    1.6698    0.2382 H       1  UNL1        0.0235
     30 H           5.3925    0.0958    0.1004 H       1  UNL1        0.0235
     31 H           5.9722   -0.4144    2.4764 H       1  UNL1        0.0345
     32 H           7.0167    2.4655    2.5970 H       1  UNL1        0.0235
     33 H           7.9765    0.9889    2.6998 H       1  UNL1        0.0235
     34 H           6.8168    1.3851    3.9806 H       1  UNL1        0.0235
     35 H           4.9477    3.0781    1.5975 H       1  UNL1        0.0630
     36 H           0.5602    3.5166    2.7072 H       1  UNL1        0.2922
     37 H           1.4658    0.3091    3.7494 H       1  UNL1        0.0691
     38 H           3.1326   -1.1593    4.1191 H       1  UNL1        0.2921
     39 H           0.8992    6.9194    1.5492 H       1  UNL1        0.1937
     40 H           4.4877    5.6303    4.7392 H       1  UNL1        0.0645
     41 H           6.7532    6.2061    6.5966 H       1  UNL1        0.0639
     42 H           9.4075    6.4399    6.0977 H       1  UNL1        0.0809
     43 H          10.9056    6.0987    4.2402 H       1  UNL1        0.0456
     44 H          10.1855    6.6262    2.6909 H       1  UNL1        0.0456
     45 H          10.3004    4.8748    3.0878 H       1  UNL1        0.0456
     46 H           8.1520    5.5212    1.3303 H       1  UNL1        0.0639
     47 H           5.7849    5.3777    0.6284 H       1  UNL1        0.0639
@<TRIPOS>BOND
     1     1     2    1
     2     2     3    1
     3     2     4    1
     4     4     5   ar
     5     5     6   ar
     6     6     7   ar
     7     7     8    1
     8     7     9   ar
     9     9    10   ar
    10     4    10   ar
    11    10    11    1
    12     6    12    1
    13    12    13   ar
    14    13    14   ar
    15    14    15   ar
    16    15    16    2
    17    15    17   ar
    18    12    17   ar
    19    17    18    1
    20    18    19   ar
    21    19    20   ar
    22    20    21   ar
    23    21    22   ar
    24    22    23   ar
    25    23    24    1
    26    23    25   ar
    27    20    25   ar
    28    25    26   ar
    29    26    27   ar
    30    18    27   ar
    31     1    28    1
    32     1    29    1
    33     1    30    1
    34     2    31    1
    35     3    32    1
    36     3    33    1
    37     3    34    1
    38     5    35    1
    39     8    36    1
    40     9    37    1
    41    11    38    1
    42    14    39    1
    43    19    40    1
    44    21    41    1
    45    22    42    1
    46    24    43    1
    47    24    44    1
    48    24    45    1
    49    26    46    1
    50    27    47    1
@<TRIPOS>MOLECULE
*****
 48 53 0 0 0
SMALL
GASTEIGER

@<TRIPOS>ATOM
      1 O           3.4919   -1.3091   -2.5312 O.2     1  UNL1       -0.2702
      2 C           3.3690   -0.5709   -3.5017 C.2     1  UNL1        0.2449
      3 N           2.7830    0.6733   -3.4434 N.am    1  UNL1       -0.3005
      4 C           2.2473    1.1866   -2.2055 C.3     1  UNL1        0.0751
      5 H           2.7391    0.7373   -1.3350 H       1  UNL1        0.0599
      6 C           2.3649    2.6923   -2.1344 C.ar    1  UNL1       -0.0151
      7 C           3.5359    3.4415   -2.2078 C.ar    1  UNL1       -0.0559
      8 C           3.4479    4.8215   -2.0566 C.ar    1  UNL1       -0.0614
      9 C           2.2106    5.4207   -1.8035 C.ar    1  UNL1       -0.0612
     10 C           1.0423    4.6509   -1.7198 C.ar    1  UNL1       -0.0537
     11 C           1.0968    3.2809   -1.9248 C.ar    1  UNL1       -0.0116
     12 C           0.0672    2.2322   -1.9418 C.ar    1  UNL1       -0.0017
     13 C           0.7448    0.9874   -2.0993 C.ar    1  UNL1       -0.0144
     14 C           0.0816   -0.2328   -2.1129 C.ar    1  UNL1       -0.0559
     15 C          -1.2993   -0.2277   -1.9848 C.ar    1  UNL1       -0.0607
     16 C          -1.9945    0.9858   -1.8602 C.ar    1  UNL1       -0.0505
     17 C          -1.3348    2.2400   -1.8441 C.ar    1  UNL1        0.0253
     18 C          -2.1451    3.4645   -1.7639 C.ar    1  UNL1        0.1399
     19 N          -3.3478    3.5597   -1.0874 N.ar    1  UNL1       -0.3367
     20 C          -3.7725    4.8625   -1.1241 C.ar    1  UNL1        0.0848
     21 C          -4.8560    5.5305   -0.5808 C.ar    1  UNL1        0.0530
     22 N          -4.9337    6.8736   -0.7494 N.ar    1  UNL1       -0.2611
     23 C          -3.9620    7.5145   -1.4445 C.ar    1  UNL1        0.0297
     24 C          -2.8763    6.8959   -2.0402 C.ar    1  UNL1       -0.0161
     25 C          -2.8060    5.5158   -1.8684 C.ar    1  UNL1        0.0924
     26 N          -1.8685    4.6274   -2.3211 N.ar    1  UNL1       -0.2276
     27 C           3.9136   -0.9898   -4.8177 C.ar    1  UNL1        0.0396
     28 C           3.3639   -0.5574   -6.0241 C.ar    1  UNL1       -0.0315
     29 C           3.9391   -1.0178   -7.1973 C.ar    1  UNL1        0.0283
     30 N           4.9963   -1.8560   -7.2372 N.ar    1  UNL1       -0.2632
     31 C           5.4975   -2.2710   -6.0543 C.ar    1  UNL1        0.0283
     32 C           4.9934   -1.8740   -4.8298 C.ar    1  UNL1       -0.0315
     33 H           2.7506    1.2834   -4.2467 H       1  UNL1        0.1499
     34 H           4.4965    2.9629   -2.3698 H       1  UNL1        0.0621
     35 H           4.3425    5.4368   -2.1161 H       1  UNL1        0.0618
     36 H           2.1490    6.4976   -1.6636 H       1  UNL1        0.0618
     37 H           0.1203    5.1629   -1.4840 H       1  UNL1        0.0624
     38 H           0.6312   -1.1648   -2.2166 H       1  UNL1        0.0621
     39 H          -1.8450   -1.1686   -1.9942 H       1  UNL1        0.0618
     40 H          -3.0798    0.9297   -1.8016 H       1  UNL1        0.0625
     41 H          -3.7962    2.8073   -0.5855 H       1  UNL1        0.1674
     42 H          -5.6460    5.0563   -0.0134 H       1  UNL1        0.0851
     43 H          -4.0817    8.5928   -1.5096 H       1  UNL1        0.0830
     44 H          -2.1170    7.4426   -2.5817 H       1  UNL1        0.0655
     45 H           2.4977    0.0907   -6.0697 H       1  UNL1        0.0640
     46 H           3.5491   -0.7205   -8.1670 H       1  UNL1        0.0830
     47 H           6.3404   -2.9536   -6.1194 H       1  UNL1        0.0830
     48 H           5.4330   -2.2418   -3.9077 H       1  UNL1        0.0640
@<TRIPOS>BOND
     1     1     2    2
     2     2     3   am
     3     4     6    1
     4     6     7   ar
     5     7     8   ar
     6     8     9   ar
     7     9    10   ar
     8    10    11   ar
     9     6    11   ar
    10    11    12    1
    11    12    13   ar
    12     4    13    1
    13    13    14   ar
    14    14    15   ar
    15    15    16   ar
    16    16    17   ar
    17    12    17   ar
    18    17    18    1
    19    18    19   ar
    20    19    20   ar
    21    20    21   ar
    22    21    22   ar
    23    22    23   ar
    24    23    24   ar
    25    24    25   ar
    26    20    25   ar
    27    25    26   ar
    28    18    26   ar
    29     2    27    1
    30    27    28   ar
    31    28    29   ar
    32    29    30   ar
    33    30    31   ar
    34    31    32   ar
    35    27    32   ar
    36     4     5    1
    37     4     3    1
    38     3    33    1
    39     7    34    1
    40     8    35    1
    41     9    36    1
    42    10    37    1
    43    14    38    1
    44    15    39    1
    45    16    40    1
    46    19    41    1
    47    21    42    1
    48    23    43    1
    49    24    44    1
    50    28    45    1
    51    29    46    1
    52    31    47    1
    53    32    48    1
@<TRIPOS>MOLECULE
*****
 49 54 0 0 0
SMALL
GASTEIGER

@<TRIPOS>ATOM
      1 N           1.6393    0.0779    0.0728 N.pl3   1  UNL1       -0.3275
      2 C           2.5060   -0.3392   -0.9093 C.ar    1  UNL1        0.2133
      3 N           2.5405    0.4185   -2.0093 N.ar    1  UNL1       -0.2216
      4 C           3.4066    0.0569   -2.9729 C.ar    1  UNL1        0.0517
      5 C           4.2314   -1.0389   -2.8898 C.ar    1  UNL1        0.0896
      6 CL          5.3174   -1.3083   -4.1943 Cl      1  UNL1       -0.0796
      7 C           4.0895   -1.7891   -1.7285 C.ar    1  UNL1        0.1486
      8 N           3.2270   -1.4544   -0.7219 N.ar    1  UNL1       -0.2085
      9 C           4.9046   -3.0374   -1.5118 C.2     1  UNL1        0.2647
     10 O           5.6725   -3.4368   -2.3839 O.2     1  UNL1       -0.2685
     11 N           4.7910   -3.7253   -0.3107 N.am    1  UNL1       -0.2992
     12 C           5.7046   -4.8247   -0.0646 C.3     1  UNL1        0.0751
     13 H           6.6568   -4.6010   -0.5654 H       1  UNL1        0.0599
     14 C           5.2727   -6.1959   -0.5485 C.ar    1  UNL1       -0.0151
     15 C           4.7674   -6.5412   -1.7991 C.ar    1  UNL1       -0.0559
     16 C           4.6390   -7.8916   -2.1203 C.ar    1  UNL1       -0.0614
     17 C           5.0460   -8.8706   -1.2126 C.ar    1  UNL1       -0.0612
     18 C           5.5524   -8.5140    0.0431 C.ar    1  UNL1       -0.0537
     19 C           5.6346   -7.1773    0.4087 C.ar    1  UNL1       -0.0116
     20 C           6.0944   -6.5131    1.6386 C.ar    1  UNL1       -0.0017
     21 C           6.0595   -5.1034    1.3863 C.ar    1  UNL1       -0.0144
     22 C           6.4519   -4.1653    2.3292 C.ar    1  UNL1       -0.0559
     23 C           6.8830   -4.6262    3.5653 C.ar    1  UNL1       -0.0607
     24 C           6.9229   -6.0045    3.8397 C.ar    1  UNL1       -0.0505
     25 C           6.5300   -6.9806    2.8921 C.ar    1  UNL1        0.0253
     26 C           6.5837   -8.3992    3.2848 C.ar    1  UNL1        0.1399
     27 N           5.7611   -9.3570    2.8974 N.ar    1  UNL1       -0.2262
     28 C           6.2200  -10.5296    3.4428 C.ar    1  UNL1        0.1075
     29 C           5.7798  -11.8444    3.2703 C.ar    1  UNL1        0.0550
     30 N           6.3780  -12.8597    3.9485 N.ar    1  UNL1       -0.2610
     31 C           7.3989  -12.5670    4.7888 C.ar    1  UNL1        0.0296
     32 C           7.9222  -11.2959    5.0081 C.ar    1  UNL1       -0.0181
     33 C           7.2955  -10.2847    4.2839 C.ar    1  UNL1        0.0694
     34 N           7.5093   -8.9321    4.1676 N.ar    1  UNL1       -0.3378
     35 H           8.2496   -8.4146    4.6154 H       1  UNL1        0.1674
     36 H           0.9430    0.6969   -0.3239 H       1  UNL1        0.1452
     37 H           1.3152   -0.6840    0.6484 H       1  UNL1        0.1452
     38 H           3.4193    0.7076   -3.8444 H       1  UNL1        0.0846
     39 H           4.1566   -3.3954    0.4107 H       1  UNL1        0.1500
     40 H           4.5142   -5.7814   -2.5311 H       1  UNL1        0.0621
     41 H           4.2590   -8.1845   -3.0963 H       1  UNL1        0.0618
     42 H           4.9838   -9.9214   -1.4849 H       1  UNL1        0.0618
     43 H           5.8927   -9.3119    0.6872 H       1  UNL1        0.0624
     44 H           6.4454   -3.1043    2.1003 H       1  UNL1        0.0621
     45 H           7.1979   -3.9154    4.3261 H       1  UNL1        0.0618
     46 H           7.2514   -6.3006    4.8342 H       1  UNL1        0.0625
     47 H           4.9704  -12.1034    2.5997 H       1  UNL1        0.0852
     48 H           7.8113  -13.4293    5.3083 H       1  UNL1        0.0830
     49 H           8.7466  -11.1239    5.6864 H       1  UNL1        0.0654
@<TRIPOS>BOND
     1     1     2    1
     2     2     3   ar
     3     3     4   ar
     4     4     5   ar
     5     5     6    1
     6     5     7   ar
     7     7     8   ar
     8     2     8   ar
     9     7     9    1
    10     9    10    2
    11     9    11   am
    12    11    12    1
    13    12    13    1
    14    12    14    1
    15    14    15   ar
    16    15    16   ar
    17    16    17   ar
    18    17    18   ar
    19    18    19   ar
    20    14    19   ar
    21    19    20    1
    22    20    21   ar
    23    12    21    1
    24    21    22   ar
    25    22    23   ar
    26    23    24   ar
    27    24    25   ar
    28    20    25   ar
    29    25    26    1
    30    26    27   ar
    31    27    28   ar
    32    28    29   ar
    33    29    30   ar
    34    30    31   ar
    35    31    32   ar
    36    32    33   ar
    37    28    33   ar
    38    33    34   ar
    39    34    35    1
    40    26    34   ar
    41     1    36    1
    42     1    37    1
    43     4    38    1
    44    11    39    1
    45    15    40    1
    46    16    41    1
    47    17    42    1
    48    18    43    1
    49    22    44    1
    50    23    45    1
    51    24    46    1
    52    29    47    1
    53    31    48    1
    54    32    49    1
@<TRIPOS>MOLECULE
*****
 48 50 0 0 0
SMALL
GASTEIGER

@<TRIPOS>ATOM
      1 C           2.5180   -0.0014    3.5815 C.3     1  UNL1       -0.0481
      2 C           2.8591   -1.0383    2.4929 C.3     1  UNL1        0.0259
      3 C           1.6853   -1.0205    1.5114 C.3     1  UNL1       -0.0481
      4 N           4.1774   -0.6979    1.8674 N.3     1  UNL1       -0.1770
      5 C           5.2730   -0.5239    2.8564 C.3     1  UNL1        0.0092
      6 S           4.6751   -1.4069    0.3914 S.O2    1  UNL1        0.0643
      7 O           3.5756   -1.5168   -0.5384 O.2     1  UNL1       -0.1527
      8 O           5.8610   -0.6772   -0.0283 O.2     1  UNL1       -0.1527
      9 C           5.2502   -3.0448    0.8225 C.ar    1  UNL1        0.1472
     10 C           6.6383   -3.2083    1.0078 C.ar    1  UNL1       -0.0214
     11 C           7.2417   -4.4775    1.1044 C.ar    1  UNL1        0.0401
     12 C           8.7565   -4.5108    1.2391 C.3     1  UNL1        0.1717
     13 N           9.1763   -4.5448    2.6571 N.2     1  UNL1       -0.1654
     14 N          10.0639   -5.4261    2.8248 N.am    1  UNL1       -0.0648
     15 C          10.2815   -6.1005    1.6380 C.2     1  UNL1        0.3496
     16 O          11.1299   -6.9660    1.4748 O.2     1  UNL1       -0.2485
     17 N           9.3995   -5.6463    0.6795 N.am    1  UNL1       -0.2215
     18 C           9.3940   -6.0232   -0.6797 C.ar    1  UNL1        0.0754
     19 C           9.4464   -7.3881   -1.0047 C.ar    1  UNL1       -0.0373
     20 C           9.3132   -7.8032   -2.3312 C.ar    1  UNL1       -0.0598
     21 C           9.1847   -6.8642   -3.3522 C.ar    1  UNL1       -0.0589
     22 C           9.1755   -5.5046   -3.0452 C.ar    1  UNL1       -0.0246
     23 C           9.2528   -5.0974   -1.7168 C.ar    1  UNL1        0.1448
     24 F           9.2446   -3.7814   -1.4545 F       1  UNL1       -0.2035
     25 C           6.3873   -5.5875    1.0710 C.ar    1  UNL1        0.1273
     26 O           6.8056   -6.8826    1.1740 O.3     1  UNL1       -0.5062
     27 C           5.0049   -5.4368    0.9114 C.ar    1  UNL1        0.0237
     28 C           4.4340   -4.1691    0.7707 C.ar    1  UNL1        0.1466
     29 O           3.0867   -4.0714    0.6239 O.3     1  UNL1       -0.5047
     30 H           1.5392   -0.2066    4.0310 H       1  UNL1        0.0245
     31 H           2.4907    1.0115    3.1622 H       1  UNL1        0.0245
     32 H           3.2434   -0.0050    4.3996 H       1  UNL1        0.0245
     33 H           2.9276   -2.0276    2.9595 H       1  UNL1        0.0474
     34 H           1.6717   -0.1000    0.9174 H       1  UNL1        0.0245
     35 H           0.7278   -1.0891    2.0428 H       1  UNL1        0.0245
     36 H           1.7024   -1.8746    0.8326 H       1  UNL1        0.0245
     37 H           5.1803    0.4500    3.3452 H       1  UNL1        0.0408
     38 H           6.2650   -0.5311    2.3978 H       1  UNL1        0.0408
     39 H           5.2446   -1.3179    3.6095 H       1  UNL1        0.0408
     40 H           7.2740   -2.3222    1.0321 H       1  UNL1        0.0643
     41 H           9.1963   -3.6096    0.7965 H       1  UNL1        0.0828
     42 H           9.5319   -8.1479   -0.2299 H       1  UNL1        0.0637
     43 H           9.2966   -8.8673   -2.5646 H       1  UNL1        0.0618
     44 H           9.0937   -7.1909   -4.3849 H       1  UNL1        0.0618
     45 H           9.1036   -4.7609   -3.8325 H       1  UNL1        0.0647
     46 H           7.7730   -6.9221    1.1319 H       1  UNL1        0.2921
     47 H           4.3874   -6.3334    0.8786 H       1  UNL1        0.0691
     48 H           2.7220   -4.9401    0.3705 H       1  UNL1        0.2922
@<TRIPOS>BOND
     1     1     2    1
     2     2     3    1
     3     2     4    1
     4     4     5    1
     5     4     6    1
     6     6     7    2
     7     6     8    2
     8     6     9    1
     9     9    10   ar
    10    10    11   ar
    11    11    12    1
    12    12    13    1
    13    13    14    2
    14    14    15    1
    15    15    16    2
    16    15    17   am
    17    12    17    1
    18    17    18    1
    19    18    19   ar
    20    19    20   ar
    21    20    21   ar
    22    21    22   ar
    23    22    23   ar
    24    18    23   ar
    25    23    24    1
    26    11    25   ar
    27    25    26    1
    28    25    27   ar
    29    27    28   ar
    30     9    28   ar
    31    28    29    1
    32     1    30    1
    33     1    31    1
    34     1    32    1
    35     2    33    1
    36     3    34    1
    37     3    35    1
    38     3    36    1
    39     5    37    1
    40     5    38    1
    41     5    39    1
    42    10    40    1
    43    12    41    1
    44    19    42    1
    45    20    43    1
    46    21    44    1
    47    22    45    1
    48    26    46    1
    49    27    47    1
    50    29    48    1
@<TRIPOS>MOLECULE
*****
 31 33 0 0 0
SMALL
GASTEIGER

@<TRIPOS>ATOM
      1 O           0.9894    0.2463    0.3772 O.3     1  UNL1       -0.5066
      2 C           2.3494    0.1906    0.2899 C.ar    1  UNL1        0.1204
      3 C           3.0731    1.2181   -0.2916 C.ar    1  UNL1       -0.0193
      4 C           4.4522    1.0726   -0.4472 C.ar    1  UNL1       -0.0441
      5 C           5.1222   -0.0892   -0.0058 C.ar    1  UNL1        0.0611
      6 C           6.5630   -0.1616   -0.3630 C.ar    1  UNL1        0.1707
      7 N           7.2727    0.9393   -0.3080 N.ar    1  UNL1       -0.1528
      8 N           8.5125    0.5872   -0.7042 N.ar    1  UNL1       -0.2537
      9 H           9.2496    1.2746   -0.8468 H       1  UNL1        0.1911
     10 C           8.5568   -0.7481   -1.0638 C.ar    1  UNL1        0.1805
     11 S           9.9201   -1.3825   -1.7752 S.2     1  UNL1       -0.0111
     12 N           7.2923   -1.2640   -0.7839 N.ar    1  UNL1       -0.2685
     13 C           6.8952   -2.6268   -0.9463 C.ar    1  UNL1        0.0856
     14 C           7.7852   -3.6659   -0.6079 C.ar    1  UNL1       -0.0349
     15 C           7.3879   -5.0081   -0.6158 C.ar    1  UNL1       -0.0596
     16 C           6.0765   -5.3429   -0.9280 C.ar    1  UNL1       -0.0589
     17 C           5.1912   -4.3396   -1.3111 C.ar    1  UNL1       -0.0244
     18 C           5.6162   -3.0096   -1.3622 C.ar    1  UNL1        0.1472
     19 F           4.7591   -2.1040   -1.8547 F       1  UNL1       -0.2033
     20 C           4.3892   -1.0363    0.7139 C.ar    1  UNL1        0.1310
     21 O           4.9394   -2.0941    1.3814 O.3     1  UNL1       -0.5059
     22 C           2.9975   -0.9285    0.8059 C.ar    1  UNL1        0.0220
     23 H           0.6774    1.0346   -0.0959 H       1  UNL1        0.2921
     24 H           2.5901    2.1280   -0.6419 H       1  UNL1        0.0654
     25 H           5.0078    1.8763   -0.9285 H       1  UNL1        0.0627
     26 H           8.8002   -3.4620   -0.2777 H       1  UNL1        0.0639
     27 H           8.1014   -5.7848   -0.3486 H       1  UNL1        0.0618
     28 H           5.7495   -6.3787   -0.8812 H       1  UNL1        0.0618
     29 H           4.1632   -4.5820   -1.5641 H       1  UNL1        0.0647
     30 H           5.8922   -1.9392    1.4927 H       1  UNL1        0.2922
     31 H           2.4181   -1.7128    1.2830 H       1  UNL1        0.0691
@<TRIPOS>BOND
     1     1     2    1
     2     2     3   ar
     3     3     4   ar
     4     4     5   ar
     5     5     6    1
     6     6     7   ar
     7     7     8   ar
     8     8     9    1
     9     8    10   ar
    10    10    11    2
    11    10    12   ar
    12     6    12   ar
    13    12    13    1
    14    13    14   ar
    15    14    15   ar
    16    15    16   ar
    17    16    17   ar
    18    17    18   ar
    19    13    18   ar
    20    18    19    1
    21     5    20   ar
    22    20    21    1
    23    20    22   ar
    24     2    22   ar
    25     1    23    1
    26     3    24    1
    27     4    25    1
    28    14    26    1
    29    15    27    1
    30    16    28    1
    31    17    29    1
    32    21    30    1
    33    22    31    1
@<TRIPOS>MOLECULE
*****
 31 33 0 0 0
SMALL
GASTEIGER

@<TRIPOS>ATOM
      1 O           1.0930    0.1083    0.3648 O.3     1  UNL1       -0.5056
      2 C           2.4541    0.1079    0.2446 C.ar    1  UNL1        0.1334
      3 C           3.1016    1.2532   -0.2088 C.ar    1  UNL1        0.0230
      4 C           4.4845    1.2286   -0.4161 C.ar    1  UNL1        0.1311
      5 O           5.0717    2.3639   -0.9044 O.3     1  UNL1       -0.5059
      6 C           5.2403    0.0677   -0.1648 C.ar    1  UNL1        0.0622
      7 C           4.5867   -1.0333    0.4062 C.ar    1  UNL1       -0.0309
      8 C           3.1953   -1.0295    0.5678 C.ar    1  UNL1        0.0556
      9 I           2.2783   -2.7894    1.2314 I       1  UNL1       -0.0400
     10 C           6.7014    0.0297   -0.4741 C.ar    1  UNL1        0.1728
     11 N           7.4352    1.1117   -0.4571 N.ar    1  UNL1       -0.1507
     12 N           8.6960    0.6950   -0.7445 N.ar    1  UNL1       -0.2260
     13 H           9.4469    1.3352   -0.9703 H       1  UNL1        0.1937
     14 C           8.7225   -0.6716   -0.9725 C.ar    1  UNL1        0.3490
     15 O           9.6930   -1.2923   -1.3752 O.2     1  UNL1       -0.2446
     16 N           7.4285   -1.1109   -0.7368 N.ar    1  UNL1       -0.2408
     17 C           7.0634   -2.4402   -1.0225 C.ar    1  UNL1        0.0881
     18 C           5.9957   -2.7669   -1.8637 C.ar    1  UNL1        0.1473
     19 F           5.2632   -1.8048   -2.4425 F       1  UNL1       -0.2033
     20 C           5.7036   -4.0972   -2.1698 C.ar    1  UNL1       -0.0244
     21 C           6.4789   -5.1214   -1.6305 C.ar    1  UNL1       -0.0589
     22 C           7.5442   -4.8178   -0.7864 C.ar    1  UNL1       -0.0596
     23 C           7.8391   -3.4847   -0.4936 C.ar    1  UNL1       -0.0348
     24 H           0.7278    0.9059   -0.0524 H       1  UNL1        0.2922
     25 H           2.5349    2.1514   -0.4315 H       1  UNL1        0.0691
     26 H           4.5130    3.1362   -0.7223 H       1  UNL1        0.2922
     27 H           5.1474   -1.9113    0.7092 H       1  UNL1        0.0637
     28 H           4.8838   -4.3230   -2.8451 H       1  UNL1        0.0647
     29 H           6.2664   -6.1604   -1.8804 H       1  UNL1        0.0618
     30 H           8.1587   -5.6123   -0.3680 H       1  UNL1        0.0618
     31 H           8.6810   -3.2680    0.1619 H       1  UNL1        0.0639
@<TRIPOS>BOND
     1     1     2    1
     2     2     3   ar
     3     3     4   ar
     4     4     5    1
     5     4     6   ar
     6     6     7   ar
     7     7     8   ar
     8     2     8   ar
     9     8     9    1
    10     6    10    1
    11    10    11   ar
    12    11    12   ar
    13    12    13    1
    14    12    14   ar
    15    14    15    2
    16    14    16   ar
    17    10    16   ar
    18    16    17    1
    19    17    18   ar
    20    18    19    1
    21    18    20   ar
    22    20    21   ar
    23    21    22   ar
    24    22    23   ar
    25    17    23   ar
    26     1    24    1
    27     3    25    1
    28     5    26    1
    29     7    27    1
    30    20    28    1
    31    21    29    1
    32    22    30    1
    33    23    31    1
@<TRIPOS>MOLECULE
*****
 42 44 0 0 0
SMALL
GASTEIGER

@<TRIPOS>ATOM
      1 C           2.4189   -1.3036    0.7469 C.3     1  UNL1       -0.0276
      2 C           4.3464   -2.0042    1.3679 C.3     1  UNL1        0.1031
      3 C           3.8008   -0.1068    1.7430 C.3     1  UNL1        0.0132
      4 C           4.8809    0.6735    1.2625 C.3     1  UNL1        0.0925
      5 O           5.3412    1.9350    1.7197 O.3     1  UNL1       -0.3638
      6 C           5.6073    0.7956    2.5266 C.3     1  UNL1        0.1038
      7 C           6.7426   -0.0626    2.6171 C.2     1  UNL1       -0.0532
      8 C           6.7409   -1.1441    3.3950 C.2     1  UNL1       -0.0631
      9 C           7.9196   -1.8823    3.6075 C.2     1  UNL1       -0.0587
     10 C           7.8874   -2.8723    4.4881 C.2     1  UNL1       -0.0189
     11 C           9.0785   -3.6251    4.5431 C.2     1  UNL1        0.1604
     12 O           9.9381   -3.4123    3.6547 O.2     1  UNL1       -0.2923
     13 C           8.9607   -4.8584    5.4474 C.3     1  UNL1        0.0374
     14 C           9.9970   -5.3747    4.6182 C.ar    1  UNL1       -0.0006
     15 C          11.5821   -4.9196    5.2523 C.ar    1  UNL1        0.0869
     16 CL         11.8143   -3.1853    5.5943 Cl      1  UNL1       -0.0794
     17 C          12.8136   -5.4892    5.1096 C.ar    1  UNL1        0.1389
     18 O          14.0483   -4.9317    5.2190 O.3     1  UNL1       -0.5052
     19 C          12.4989   -6.6441    4.5500 C.ar    1  UNL1        0.0236
     20 C          10.8666   -6.6561    3.7791 C.ar    1  UNL1        0.1346
     21 O          11.2059   -8.3491    4.5177 O.3     1  UNL1       -0.5058
     22 C           9.1362   -5.8045    3.2834 C.ar    1  UNL1        0.1054
     23 C           7.4108   -4.5641    2.6247 C.2     1  UNL1        0.3433
     24 O           6.8354   -5.4578    3.2244 O.2     1  UNL1       -0.2448
     25 O           5.7797   -3.3894    2.0010 O.3     1  UNL1       -0.4580
     26 H           1.3811   -1.0354    1.3565 H       1  UNL1        0.0265
     27 H           1.8269   -1.2315   -0.3913 H       1  UNL1        0.0265
     28 H           2.0790    0.0073    0.3909 H       1  UNL1        0.0265
     29 H           4.2058   -2.0645    0.2443 H       1  UNL1        0.0732
     30 H           2.9299    0.1484    2.4630 H       1  UNL1        0.0327
     31 H           3.1041    0.8989    1.1127 H       1  UNL1        0.0327
     32 H           5.0576    0.3459    0.2531 H       1  UNL1        0.0626
     33 H           5.0131    0.7359    3.4463 H       1  UNL1        0.0667
     34 H           7.6201    0.2580    2.0859 H       1  UNL1        0.0598
     35 H           5.8383   -1.4743    3.9141 H       1  UNL1        0.0615
     36 H           8.8160   -1.6533    3.0263 H       1  UNL1        0.0619
     37 H           7.0259   -3.3503    4.9205 H       1  UNL1        0.0652
     38 H           8.2607   -5.7049    5.2877 H       1  UNL1        0.0394
     39 H           9.0485   -4.8113    6.5245 H       1  UNL1        0.0394
     40 H          13.9212   -3.9527    5.1678 H       1  UNL1        0.2922
     41 H          13.3975   -7.3811    4.8905 H       1  UNL1        0.0691
     42 H          12.1858   -8.7576    4.8293 H       1  UNL1        0.2922
@<TRIPOS>BOND
     1     1     2    1
     2     2     3    1
     3     3     4    1
     4     4     5    1
     5     5     6    1
     6     4     6    1
     7     6     7    1
     8     7     8    2
     9     8     9    1
    10     9    10    2
    11    10    11    1
    12    11    12    2
    13    11    13    1
    14    13    14    1
    15    14    15   ar
    16    15    16    1
    17    15    17   ar
    18    17    18    1
    19    17    19   ar
    20    19    20   ar
    21    20    21    1
    22    20    22   ar
    23    14    22   ar
    24    22    23    1
    25    23    24    2
    26    23    25    1
    27     2    25    1
    28     1    26    1
    29     1    27    1
    30     1    28    1
    31     2    29    1
    32     3    30    1
    33     3    31    1
    34     4    32    1
    35     6    33    1
    36     7    34    1
    37     8    35    1
    38     9    36    1
    39    10    37    1
    40    13    38    1
    41    13    39    1
    42    18    40    1
    43    19    41    1
    44    21    42    1
@<TRIPOS>MOLECULE
*****
 52 58 0 0 0
SMALL
GASTEIGER

@<TRIPOS>ATOM
      1 O           4.2392   -1.3666   -2.0103 O.2     1  UNL1       -0.2702
      2 C           3.8797   -0.6792   -1.0632 C.2     1  UNL1        0.2455
      3 N           2.9158    0.2959   -1.1704 N.am    1  UNL1       -0.3005
      4 C           2.2694    0.5801   -2.4301 C.3     1  UNL1        0.0751
      5 C           1.8503    2.0317   -2.4889 C.ar    1  UNL1       -0.0151
      6 C           2.6894    3.1415   -2.4305 C.ar    1  UNL1       -0.0559
      7 C           2.1191    4.4067   -2.5252 C.ar    1  UNL1       -0.0614
      8 C           0.7383    4.5395   -2.7032 C.ar    1  UNL1       -0.0612
      9 C          -0.0912    3.4111   -2.7785 C.ar    1  UNL1       -0.0537
     10 C           0.4485    2.1413   -2.6380 C.ar    1  UNL1       -0.0116
     11 C          -0.1441    0.7952   -2.6363 C.ar    1  UNL1       -0.0017
     12 C           0.9342   -0.1333   -2.5496 C.ar    1  UNL1       -0.0144
     13 C           0.7503   -1.5094   -2.5710 C.ar    1  UNL1       -0.0559
     14 C          -0.5461   -1.9929   -2.6517 C.ar    1  UNL1       -0.0607
     15 C          -1.6311   -1.1021   -2.6981 C.ar    1  UNL1       -0.0505
     16 C          -1.4598    0.3053   -2.6867 C.ar    1  UNL1        0.0253
     17 C          -2.6543    1.1616   -2.6704 C.ar    1  UNL1        0.1399
     18 N          -2.7686    2.3295   -2.0684 N.ar    1  UNL1       -0.2262
     19 C          -4.0034    2.8251   -2.3927 C.ar    1  UNL1        0.1075
     20 C          -4.5802    4.0667   -2.1185 C.ar    1  UNL1        0.0550
     21 N          -5.8458    4.3374   -2.5328 N.ar    1  UNL1       -0.2610
     22 C          -6.5283    3.3781   -3.2031 C.ar    1  UNL1        0.0296
     23 C          -6.0343    2.1208   -3.5369 C.ar    1  UNL1       -0.0181
     24 C          -4.7281    1.8894   -3.1164 C.ar    1  UNL1        0.0694
     25 N          -3.8583    0.8380   -3.2700 N.ar    1  UNL1       -0.3378
     26 H          -4.0463   -0.0109   -3.7816 H       1  UNL1        0.1674
     27 C           4.4847   -0.8572    0.2795 C.ar    1  UNL1        0.0488
     28 C           4.5647    0.2025    1.1946 C.ar    1  UNL1       -0.0308
     29 C           5.2038   -0.0057    2.4067 C.ar    1  UNL1        0.0306
     30 N           5.7795   -1.1595    2.8043 N.ar    1  UNL1       -0.2375
     31 C           5.6821   -2.1420    1.8914 C.ar    1  UNL1        0.1388
     32 N           6.2038   -3.3957    2.0570 N.ar    1  UNL1       -0.3458
     33 H           6.7185   -3.6825    2.8766 H       1  UNL1        0.1668
     34 C           5.9211   -4.1662    0.9594 C.ar    1  UNL1        0.0041
     35 C           5.2258   -3.3797    0.0645 C.ar    1  UNL1       -0.0344
     36 C           5.0712   -2.0872    0.6430 C.ar    1  UNL1        0.0307
     37 H           2.4662    0.6616   -0.3437 H       1  UNL1        0.1499
     38 H           2.9087    0.3344   -3.2863 H       1  UNL1        0.0599
     39 H           3.7628    3.0239   -2.3165 H       1  UNL1        0.0621
     40 H           2.7441    5.2944   -2.4745 H       1  UNL1        0.0618
     41 H           0.2976    5.5305   -2.7889 H       1  UNL1        0.0618
     42 H          -1.1450    3.5741   -2.9535 H       1  UNL1        0.0624
     43 H           1.5998   -2.1856   -2.5181 H       1  UNL1        0.0621
     44 H          -0.7210   -3.0666   -2.6557 H       1  UNL1        0.0618
     45 H          -2.6269   -1.5394   -2.7098 H       1  UNL1        0.0625
     46 H          -4.0496    4.8494   -1.5919 H       1  UNL1        0.0852
     47 H          -7.5391    3.6640   -3.4853 H       1  UNL1        0.0830
     48 H          -6.6239    1.3969   -4.0821 H       1  UNL1        0.0654
     49 H           4.1691    1.1865    0.9674 H       1  UNL1        0.0640
     50 H           5.2833    0.8061    3.1265 H       1  UNL1        0.0830
     51 H           6.2428   -5.1975    0.9059 H       1  UNL1        0.0807
     52 H           4.8661   -3.6975   -0.9070 H       1  UNL1        0.0639
@<TRIPOS>BOND
     1     1     2    2
     2     2     3   am
     3     3     4    1
     4     4     5    1
     5     5     6   ar
     6     6     7   ar
     7     7     8   ar
     8     8     9   ar
     9     9    10   ar
    10     5    10   ar
    11    10    11    1
    12    11    12   ar
    13     4    12    1
    14    12    13   ar
    15    13    14   ar
    16    14    15   ar
    17    15    16   ar
    18    11    16   ar
    19    16    17    1
    20    17    18   ar
    21    18    19   ar
    22    19    20   ar
    23    20    21   ar
    24    21    22   ar
    25    22    23   ar
    26    23    24   ar
    27    19    24   ar
    28    24    25   ar
    29    25    26    1
    30    17    25   ar
    31     2    27    1
    32    27    28   ar
    33    28    29   ar
    34    29    30   ar
    35    30    31   ar
    36    31    32   ar
    37    32    33    1
    38    32    34   ar
    39    34    35   ar
    40    35    36   ar
    41    31    36   ar
    42    27    36   ar
    43     3    37    1
    44     4    38    1
    45     6    39    1
    46     7    40    1
    47     8    41    1
    48     9    42    1
    49    13    43    1
    50    14    44    1
    51    15    45    1
    52    20    46    1
    53    22    47    1
    54    23    48    1
    55    28    49    1
    56    29    50    1
    57    34    51    1
    58    35    52    1
@<TRIPOS>MOLECULE
*****
 51 54 0 0 0
SMALL
GASTEIGER

@<TRIPOS>ATOM
      1 C           0.4540   -0.2577    0.0948 C.3     1  UNL1        0.0790
      2 O           1.8571   -0.1430   -0.1397 O.3     1  UNL1       -0.4915
      3 C           2.6370   -1.1342    0.3879 C.ar    1  UNL1        0.1615
      4 C           2.1073   -2.3887    0.6954 C.ar    1  UNL1       -0.0157
      5 C           2.8870   -3.3761    1.2980 C.ar    1  UNL1       -0.0503
      6 C           4.2721   -3.2430    1.4318 C.ar    1  UNL1       -0.0122
      7 C           5.1180   -4.3536    1.9596 C.ar    1  UNL1        0.0144
      8 C           6.2969   -4.0937    2.7541 C.ar    1  UNL1        0.0381
      9 C           6.9380   -2.9219    3.3563 C.ar    1  UNL1        0.0540
     10 N           6.3647   -1.6897    3.4871 N.pl3   1  UNL1       -0.3564
     11 C           8.2509   -3.1532    3.7379 C.ar    1  UNL1        0.0973
     12 C           9.3266   -2.2507    4.1600 C.2     1  UNL1        0.2567
     13 O          10.5095   -2.5609    4.0523 O.2     1  UNL1       -0.2692
     14 N           8.8923   -1.0355    4.6699 N.am    1  UNL1       -0.2810
     15 C           9.6888    0.0560    5.0971 C.ar    1  UNL1        0.0339
     16 C          11.0851    0.0898    5.0064 C.ar    1  UNL1       -0.0378
     17 C          11.8038    1.2090    5.4440 C.ar    1  UNL1       -0.0247
     18 C          11.1304    2.2953    5.9738 C.ar    1  UNL1        0.1235
     19 F          11.8193    3.3657    6.3919 F       1  UNL1       -0.2055
     20 C           9.7431    2.2880    6.0742 C.ar    1  UNL1       -0.0247
     21 C           9.0253    1.1701    5.6344 C.ar    1  UNL1       -0.0378
     22 S           8.5895   -4.8307    3.7254 S.2     1  UNL1       -0.0621
     23 C           7.0768   -5.2077    3.0592 C.ar    1  UNL1        0.1135
     24 N           6.7859   -6.5016    2.8431 N.ar    1  UNL1       -0.2239
     25 C           5.6613   -6.7379    2.1650 C.ar    1  UNL1        0.1356
     26 N           5.3978   -8.0914    1.9423 N.pl3   1  UNL1       -0.3421
     27 C           4.8558   -5.7278    1.6450 C.ar    1  UNL1        0.0995
     28 C           3.7900   -6.1406    0.7730 C.1     1  UNL1        0.1032
     29 N           2.8905   -6.4932    0.1195 N.1     1  UNL1       -0.1907
     30 C           4.8028   -2.0185    0.9923 C.ar    1  UNL1       -0.0085
     31 C           4.0035   -0.9269    0.5860 C.ar    1  UNL1        0.1621
     32 O           4.7414    0.2146    0.4449 O.3     1  UNL1       -0.4914
     33 C           4.1377    1.4987    0.3771 C.3     1  UNL1        0.0790
     34 H           0.0099    0.7367    0.0023 H       1  UNL1        0.0660
     35 H           0.2289   -0.6175    1.1068 H       1  UNL1        0.0660
     36 H           0.0006   -0.9093   -0.6589 H       1  UNL1        0.0660
     37 H           1.0727   -2.6415    0.4814 H       1  UNL1        0.0655
     38 H           2.3590   -4.2715    1.6179 H       1  UNL1        0.0625
     39 H           5.3506   -1.6297    3.3635 H       1  UNL1        0.1424
     40 H           6.7738   -0.9375    2.9261 H       1  UNL1        0.1424
     41 H           7.8869   -0.9433    4.7656 H       1  UNL1        0.1551
     42 H          11.6570   -0.7356    4.5956 H       1  UNL1        0.0637
     43 H          12.8893    1.2284    5.3696 H       1  UNL1        0.0647
     44 H           9.2367    3.1504    6.4940 H       1  UNL1        0.0647
     45 H           7.9424    1.1848    5.7246 H       1  UNL1        0.0637
     46 H           6.0775   -8.6437    2.4612 H       1  UNL1        0.1437
     47 H           4.4432   -8.3701    2.1496 H       1  UNL1        0.1437
     48 H           5.8814   -1.8668    0.9887 H       1  UNL1        0.0661
     49 H           4.5505    2.1177    1.1820 H       1  UNL1        0.0660
     50 H           3.0567    1.5428    0.4854 H       1  UNL1        0.0660
     51 H           4.4276    1.9555   -0.5732 H       1  UNL1        0.0660
@<TRIPOS>BOND
     1     1     2    1
     2     2     3    1
     3     3     4   ar
     4     4     5   ar
     5     5     6   ar
     6     6     7    1
     7     7     8   ar
     8     8     9   ar
     9     9    10    1
    10     9    11   ar
    11    11    12    1
    12    12    13    2
    13    12    14   am
    14    14    15    1
    15    15    16   ar
    16    16    17   ar
    17    17    18   ar
    18    18    19    1
    19    18    20   ar
    20    20    21   ar
    21    15    21   ar
    22    11    22   ar
    23    22    23   ar
    24     8    23   ar
    25    23    24   ar
    26    24    25   ar
    27    25    26    1
    28    25    27   ar
    29     7    27   ar
    30    27    28    1
    31    28    29    3
    32     6    30   ar
    33    30    31   ar
    34     3    31   ar
    35    31    32    1
    36    32    33    1
    37     1    34    1
    38     1    35    1
    39     1    36    1
    40     4    37    1
    41     5    38    1
    42    10    39    1
    43    10    40    1
    44    14    41    1
    45    16    42    1
    46    17    43    1
    47    20    44    1
    48    21    45    1
    49    26    46    1
    50    26    47    1
    51    30    48    1
    52    33    49    1
    53    33    50    1
    54    33    51    1
@<TRIPOS>MOLECULE
*****
 52 56 0 0 0
SMALL
GASTEIGER

@<TRIPOS>ATOM
      1 C           0.5210   -2.5253    2.2733 C.3     1  UNL1       -0.0613
      2 C           1.4255   -1.7573    1.3157 C.3     1  UNL1       -0.0305
      3 C           2.3530   -0.8299    2.0587 C.ar    1  UNL1       -0.0476
      4 C           3.6299   -1.2535    2.4195 C.ar    1  UNL1       -0.0580
      5 C           4.4579   -0.4378    3.1999 C.ar    1  UNL1       -0.0537
      6 C           3.9976    0.7602    3.7772 C.ar    1  UNL1       -0.0158
      7 C           4.7413    1.4373    4.8900 C.ar    1  UNL1        0.0143
      8 C           4.7125    2.8690    5.0724 C.ar    1  UNL1        0.0381
      9 C           4.2867    4.0253    4.2854 C.ar    1  UNL1        0.0540
     10 N           3.9410    3.9725    2.9668 N.pl3   1  UNL1       -0.3564
     11 C           4.2491    5.2089    5.0077 C.ar    1  UNL1        0.0973
     12 C           3.7957    6.5633    4.6450 C.2     1  UNL1        0.2567
     13 O           3.4641    7.3880    5.4948 O.2     1  UNL1       -0.2692
     14 N           3.7863    6.8117    3.2845 N.am    1  UNL1       -0.2809
     15 C           3.3717    7.9851    2.6044 C.ar    1  UNL1        0.0374
     16 C           2.8082    9.1105    3.2434 C.ar    1  UNL1       -0.0368
     17 C           2.4172   10.2429    2.5132 C.ar    1  UNL1       -0.0144
     18 C           2.5961   10.2251    1.1498 C.ar    1  UNL1        0.1663
     19 C           3.1368    9.1357    0.5140 C.ar    1  UNL1        0.1680
     20 C           3.5323    8.0063    1.2082 C.ar    1  UNL1        0.0051
     21 O           3.2253    9.3167   -0.8322 O.3     1  UNL1       -0.4525
     22 C           2.6778   10.6474   -0.9662 C.3     1  UNL1        0.2332
     23 O           2.2776   11.2291    0.2905 O.3     1  UNL1       -0.4526
     24 S           4.9072    4.9868    6.5677 S.2     1  UNL1       -0.0621
     25 C           5.1976    3.3375    6.2931 C.ar    1  UNL1        0.1135
     26 N           5.8152    2.6354    7.2590 N.ar    1  UNL1       -0.2239
     27 C           5.9375    1.3290    7.0376 C.ar    1  UNL1        0.1356
     28 N           6.7174    0.6506    7.9779 N.pl3   1  UNL1       -0.3421
     29 C           5.3978    0.6882    5.9219 C.ar    1  UNL1        0.0995
     30 C           5.4878   -0.7478    5.9166 C.1     1  UNL1        0.1032
     31 N           5.5846   -1.9044    5.9469 N.1     1  UNL1       -0.1907
     32 C           2.7210    1.1852    3.3610 C.ar    1  UNL1       -0.0537
     33 C           1.9332    0.4327    2.4758 C.ar    1  UNL1       -0.0580
     34 H          -0.0931   -3.2450    1.7226 H       1  UNL1        0.0233
     35 H          -0.1525   -1.8495    2.8117 H       1  UNL1        0.0233
     36 H           1.1030   -3.0787    3.0191 H       1  UNL1        0.0233
     37 H           0.8174   -1.1864    0.6048 H       1  UNL1        0.0311
     38 H           2.0111   -2.4684    0.7206 H       1  UNL1        0.0311
     39 H           3.9835   -2.2437    2.1364 H       1  UNL1        0.0620
     40 H           5.4538   -0.8230    3.4090 H       1  UNL1        0.0624
     41 H           4.1491    3.1101    2.4575 H       1  UNL1        0.1424
     42 H           2.9861    4.2525    2.7310 H       1  UNL1        0.1424
     43 H           4.1638    6.0667    2.7101 H       1  UNL1        0.1552
     44 H           2.6574    9.1356    4.3182 H       1  UNL1        0.0637
     45 H           1.9881   11.1081    3.0066 H       1  UNL1        0.0656
     46 H           3.9607    7.1705    0.6678 H       1  UNL1        0.0674
     47 H           1.8030   10.6043   -1.6253 H       1  UNL1        0.1166
     48 H           3.4323   11.2948   -1.4285 H       1  UNL1        0.1166
     49 H           6.9448    1.2824    8.7424 H       1  UNL1        0.1437
     50 H           6.3414   -0.2352    8.3009 H       1  UNL1        0.1437
     51 H           2.2807    2.0975    3.7562 H       1  UNL1        0.0624
     52 H           0.9595    0.8117    2.1721 H       1  UNL1        0.0620
@<TRIPOS>BOND
     1     1     2    1
     2     2     3    1
     3     3     4   ar
     4     4     5   ar
     5     5     6   ar
     6     6     7    1
     7     7     8   ar
     8     8     9   ar
     9     9    10    1
    10     9    11   ar
    11    11    12    1
    12    12    13    2
    13    12    14   am
    14    14    15    1
    15    15    16   ar
    16    16    17   ar
    17    17    18   ar
    18    18    19   ar
    19    19    20   ar
    20    15    20   ar
    21    19    21    1
    22    21    22    1
    23    22    23    1
    24    18    23    1
    25    11    24   ar
    26    24    25   ar
    27     8    25   ar
    28    25    26   ar
    29    26    27   ar
    30    27    28    1
    31    27    29   ar
    32     7    29   ar
    33    29    30    1
    34    30    31    3
    35     6    32   ar
    36    32    33   ar
    37     3    33   ar
    38     1    34    1
    39     1    35    1
    40     1    36    1
    41     2    37    1
    42     2    38    1
    43     4    39    1
    44     5    40    1
    45    10    41    1
    46    10    42    1
    47    14    43    1
    48    16    44    1
    49    17    45    1
    50    20    46    1
    51    22    47    1
    52    22    48    1
    53    28    49    1
    54    28    50    1
    55    32    51    1
    56    33    52    1
@<TRIPOS>MOLECULE
*****
 51 54 0 0 0
SMALL
GASTEIGER

@<TRIPOS>ATOM
      1 C           0.4806   -1.4141    2.7735 C.3     1  UNL1        0.0790
      2 O           1.6367   -0.7114    2.2914 O.3     1  UNL1       -0.4915
      3 C           2.5551   -1.5400    1.7027 C.ar    1  UNL1        0.1615
      4 C           2.1445   -2.5701    0.8462 C.ar    1  UNL1       -0.0157
      5 C           3.0441   -3.5504    0.4147 C.ar    1  UNL1       -0.0503
      6 C           4.3571   -3.5852    0.8976 C.ar    1  UNL1       -0.0122
      7 C           5.2451   -4.7683    0.7244 C.ar    1  UNL1        0.0144
      8 C           6.6689   -4.6124    0.5532 C.ar    1  UNL1        0.0381
      9 C           7.5742   -3.4997    0.2915 C.ar    1  UNL1        0.0540
     10 N           7.1758   -2.2540   -0.1028 N.pl3   1  UNL1       -0.3564
     11 C           8.9032   -3.8057    0.5432 C.ar    1  UNL1        0.0973
     12 C          10.1041   -2.9695    0.6020 C.2     1  UNL1        0.2567
     13 O          11.1064   -3.3161    1.2241 O.2     1  UNL1       -0.2692
     14 N           9.9973   -1.7669   -0.0804 N.am    1  UNL1       -0.2810
     15 C          10.9345   -0.7119   -0.1295 C.ar    1  UNL1        0.0338
     16 C          12.1611   -0.7188    0.5453 C.ar    1  UNL1       -0.0394
     17 C          13.0218    0.3835    0.4821 C.ar    1  UNL1       -0.0460
     18 C          12.6676    1.5041   -0.2587 C.ar    1  UNL1        0.0180
     19 BR         13.8182    3.0013   -0.3130 Br      1  UNL1       -0.0503
     20 C          11.4576    1.5247   -0.9529 C.ar    1  UNL1       -0.0460
     21 C          10.5985    0.4202   -0.8854 C.ar    1  UNL1       -0.0394
     22 S           9.0954   -5.4896    0.7875 S.2     1  UNL1       -0.0621
     23 C           7.4268   -5.7726    0.6841 C.ar    1  UNL1        0.1135
     24 N           6.9802   -7.0365    0.7897 N.ar    1  UNL1       -0.2239
     25 C           5.6571   -7.1785    0.8612 C.ar    1  UNL1        0.1356
     26 N           5.2301   -8.5036    0.9924 N.pl3   1  UNL1       -0.3421
     27 C           4.7707   -6.1043    0.9048 C.ar    1  UNL1        0.0995
     28 C           3.3951   -6.4026    1.1872 C.1     1  UNL1        0.1032
     29 N           2.2699   -6.6540    1.3695 N.1     1  UNL1       -0.1907
     30 C           4.7582   -2.4833    1.6739 C.ar    1  UNL1       -0.0085
     31 C           3.9092   -1.4159    2.0011 C.ar    1  UNL1        0.1621
     32 O           4.5733   -0.4206    2.6593 O.3     1  UNL1       -0.4914
     33 C           3.9545    0.8496    2.7958 C.3     1  UNL1        0.0790
     34 H           0.1368   -0.9305    3.6924 H       1  UNL1        0.0660
     35 H           0.6805   -2.4660    3.0204 H       1  UNL1        0.0660
     36 H          -0.3205   -1.3525    2.0299 H       1  UNL1        0.0660
     37 H           1.1027   -2.6624    0.5464 H       1  UNL1        0.0655
     38 H           2.6529   -4.3330   -0.2330 H       1  UNL1        0.0625
     39 H           6.2134   -2.1623   -0.4391 H       1  UNL1        0.1424
     40 H           7.3149   -1.5007    0.5777 H       1  UNL1        0.1424
     41 H           9.1297   -1.6422   -0.5947 H       1  UNL1        0.1551
     42 H          12.4838   -1.5685    1.1396 H       1  UNL1        0.0636
     43 H          13.9601    0.3599    1.0193 H       1  UNL1        0.0629
     44 H          11.1760    2.3951   -1.5370 H       1  UNL1        0.0629
     45 H           9.6612    0.4642   -1.4335 H       1  UNL1        0.0636
     46 H           6.0366   -9.1141    0.8785 H       1  UNL1        0.1437
     47 H           4.4686   -8.7588    0.3728 H       1  UNL1        0.1437
     48 H           5.7641   -2.4434    2.0864 H       1  UNL1        0.0661
     49 H           4.7303    1.5467    3.1356 H       1  UNL1        0.0660
     50 H           3.1876    0.8172    3.5720 H       1  UNL1        0.0660
     51 H           3.5647    1.2377    1.8486 H       1  UNL1        0.0660
@<TRIPOS>BOND
     1     1     2    1
     2     2     3    1
     3     3     4   ar
     4     4     5   ar
     5     5     6   ar
     6     6     7    1
     7     7     8   ar
     8     8     9   ar
     9     9    10    1
    10     9    11   ar
    11    11    12    1
    12    12    13    2
    13    12    14   am
    14    14    15    1
    15    15    16   ar
    16    16    17   ar
    17    17    18   ar
    18    18    19    1
    19    18    20   ar
    20    20    21   ar
    21    15    21   ar
    22    11    22   ar
    23    22    23   ar
    24     8    23   ar
    25    23    24   ar
    26    24    25   ar
    27    25    26    1
    28    25    27   ar
    29     7    27   ar
    30    27    28    1
    31    28    29    3
    32     6    30   ar
    33    30    31   ar
    34     3    31   ar
    35    31    32    1
    36    32    33    1
    37     1    34    1
    38     1    35    1
    39     1    36    1
    40     4    37    1
    41     5    38    1
    42    10    39    1
    43    10    40    1
    44    14    41    1
    45    16    42    1
    46    17    43    1
    47    20    44    1
    48    21    45    1
    49    26    46    1
    50    26    47    1
    51    30    48    1
    52    33    49    1
    53    33    50    1
    54    33    51    1
@<TRIPOS>MOLECULE
*****
 53 55 0 0 0
SMALL
GASTEIGER

@<TRIPOS>ATOM
      1 C           1.2843   -5.3105   -7.1221 C.3     1  UNL1        0.0788
      2 O           0.5899   -4.0610   -7.1208 O.3     1  UNL1       -0.4951
      3 C           1.2815   -3.0606   -6.4974 C.ar    1  UNL1        0.1212
      4 C           1.1535   -1.7859   -7.0359 C.ar    1  UNL1       -0.0189
      5 C           1.8865   -0.7351   -6.5005 C.ar    1  UNL1       -0.0441
      6 C           2.7603   -0.9647   -5.4231 C.ar    1  UNL1        0.0274
      7 I           3.8539    0.7239   -4.7861 I       1  UNL1       -0.0427
      8 C           2.8874   -2.2509   -4.8453 C.ar    1  UNL1        0.0321
      9 S           4.1182   -2.6199   -3.5983 S.3     1  UNL1       -0.0504
     10 C           3.6403   -4.1035   -2.8242 C.ar    1  UNL1        0.1760
     11 N           3.9449   -5.3073   -3.2795 N.ar    1  UNL1       -0.2164
     12 C           3.6588   -6.1712   -2.2367 C.ar    1  UNL1        0.1484
     13 C           3.8019   -7.5618   -2.0610 C.ar    1  UNL1        0.1472
     14 N           4.2953   -8.4278   -3.0301 N.pl3   1  UNL1       -0.3413
     15 N           3.4792   -8.1018   -0.8619 N.ar    1  UNL1       -0.2188
     16 C           3.0017   -7.2910    0.1029 C.ar    1  UNL1        0.1205
     17 N           2.7918   -5.9648    0.0385 N.ar    1  UNL1       -0.2160
     18 C           3.1545   -5.4704   -1.1551 C.ar    1  UNL1        0.1662
     19 N           3.1284   -4.1559   -1.5486 N.ar    1  UNL1       -0.3020
     20 C           2.5995   -3.0940   -0.7179 C.3     1  UNL1        0.0396
     21 C           3.3816   -2.8392    0.5872 C.3     1  UNL1        0.0140
     22 N           4.7921   -2.4675    0.4527 N.3     1  UNL1       -0.3138
     23 C           4.9888   -1.2205   -0.2826 C.3     1  UNL1        0.0009
     24 C           6.4763   -0.8557   -0.5113 C.3     1  UNL1       -0.0252
     25 C           7.2298   -1.9576   -1.2801 C.3     1  UNL1       -0.0589
     26 C           6.5232    0.4350   -1.3497 C.3     1  UNL1       -0.0589
     27 C           7.1695   -0.6060    0.8355 C.3     1  UNL1       -0.0589
     28 C           2.0992   -3.2735   -5.3779 C.ar    1  UNL1       -0.0051
     29 H           0.7971   -5.9713   -7.8421 H       1  UNL1        0.0660
     30 H           1.2253   -5.7889   -6.1392 H       1  UNL1        0.0660
     31 H           2.3299   -5.1859   -7.4316 H       1  UNL1        0.0660
     32 H           0.5117   -1.6197   -7.8967 H       1  UNL1        0.0654
     33 H           1.7942    0.2521   -6.9471 H       1  UNL1        0.0629
     34 H           4.8914   -7.9730   -3.7114 H       1  UNL1        0.1438
     35 H           4.6429   -9.2832   -2.6103 H       1  UNL1        0.1438
     36 H           2.7622   -7.7661    1.0501 H       1  UNL1        0.1048
     37 H           1.5729   -3.3876   -0.4659 H       1  UNL1        0.0505
     38 H           2.5120   -2.1802   -1.3105 H       1  UNL1        0.0505
     39 H           3.3467   -3.7327    1.2209 H       1  UNL1        0.0441
     40 H           2.8607   -2.0626    1.1611 H       1  UNL1        0.0441
     41 H           5.3126   -3.2314    0.0231 H       1  UNL1        0.1220
     42 H           4.4917   -0.4047    0.2579 H       1  UNL1        0.0429
     43 H           4.5048   -1.2753   -1.2562 H       1  UNL1        0.0429
     44 H           6.7545   -2.1683   -2.2426 H       1  UNL1        0.0235
     45 H           7.2786   -2.8950   -0.7180 H       1  UNL1        0.0235
     46 H           8.2622   -1.6547   -1.4894 H       1  UNL1        0.0235
     47 H           5.9964    0.3013   -2.2996 H       1  UNL1        0.0235
     48 H           7.5530    0.7232   -1.5847 H       1  UNL1        0.0235
     49 H           6.0500    1.2701   -0.8221 H       1  UNL1        0.0235
     50 H           7.1833   -1.5101    1.4533 H       1  UNL1        0.0235
     51 H           6.6517    0.1773    1.4005 H       1  UNL1        0.0235
     52 H           8.2061   -0.2855    0.6912 H       1  UNL1        0.0235
     53 H           2.1492   -4.2660   -4.9465 H       1  UNL1        0.0665
@<TRIPOS>BOND
     1     1     2    1
     2     2     3    1
     3     3     4   ar
     4     4     5   ar
     5     5     6   ar
     6     6     7    1
     7     6     8   ar
     8     8     9    1
     9     9    10    1
    10    10    11   ar
    11    11    12   ar
    12    12    13   ar
    13    13    14    1
    14    13    15   ar
    15    15    16   ar
    16    16    17   ar
    17    17    18   ar
    18    12    18   ar
    19    18    19   ar
    20    10    19   ar
    21    19    20    1
    22    20    21    1
    23    21    22    1
    24    22    23    1
    25    23    24    1
    26    24    25    1
    27    24    26    1
    28    24    27    1
    29     8    28   ar
    30     3    28   ar
    31     1    29    1
    32     1    30    1
    33     1    31    1
    34     4    32    1
    35     5    33    1
    36    14    34    1
    37    14    35    1
    38    16    36    1
    39    20    37    1
    40    20    38    1
    41    21    39    1
    42    21    40    1
    43    22    41    1
    44    23    42    1
    45    23    43    1
    46    25    44    1
    47    25    45    1
    48    25    46    1
    49    26    47    1
    50    26    48    1
    51    26    49    1
    52    27    50    1
    53    27    51    1
    54    27    52    1
    55    28    53    1
@<TRIPOS>MOLECULE
*****
 30 32 0 0 0
SMALL
GASTEIGER

@<TRIPOS>ATOM
      1 O           1.1281   -0.2242    1.3711 O.3     1  UNL1       -0.5066
      2 C           2.3734   -0.1473    0.8213 C.ar    1  UNL1        0.1204
      3 C           2.7390   -0.9617   -0.2433 C.ar    1  UNL1       -0.0193
      4 C           4.0460   -0.8991   -0.7389 C.ar    1  UNL1       -0.0455
      5 C           5.0059   -0.0586   -0.1478 C.ar    1  UNL1        0.0459
      6 C           6.4217   -0.1558   -0.5334 C.ar    1  UNL1        0.1245
      7 N           7.2055    0.9377   -0.4889 N.ar    1  UNL1       -0.0776
      8 O           8.4680    0.5327   -0.8575 O.2     1  UNL1       -0.3617
      9 C           8.4604   -0.7938   -1.1156 C.ar    1  UNL1        0.1325
     10 C           7.1954   -1.3022   -0.9303 C.ar    1  UNL1        0.0488
     11 C           6.8590   -2.7048   -1.1339 C.ar    1  UNL1       -0.0127
     12 C           5.9594   -3.3635   -0.2839 C.ar    1  UNL1       -0.0539
     13 C           5.5041   -4.6500   -0.5851 C.ar    1  UNL1       -0.0612
     14 C           5.9895   -5.3167   -1.7068 C.ar    1  UNL1       -0.0617
     15 C           6.9448   -4.7059   -2.5153 C.ar    1  UNL1       -0.0612
     16 C           7.3759   -3.4067   -2.2334 C.ar    1  UNL1       -0.0539
     17 C           4.5774    0.8176    0.8646 C.ar    1  UNL1        0.1296
     18 O           5.3953    1.7548    1.4390 O.3     1  UNL1       -0.5060
     19 C           3.2728    0.7655    1.3569 C.ar    1  UNL1        0.0220
     20 H           0.6487   -0.9637    0.9631 H       1  UNL1        0.2921
     21 H           2.0407   -1.6623   -0.6874 H       1  UNL1        0.0654
     22 H           4.3081   -1.5365   -1.5806 H       1  UNL1        0.0626
     23 H           9.4128   -1.2152   -1.4010 H       1  UNL1        0.1064
     24 H           5.5673   -2.8710    0.6043 H       1  UNL1        0.0624
     25 H           4.7593   -5.1241    0.0496 H       1  UNL1        0.0618
     26 H           5.6250   -6.3116   -1.9498 H       1  UNL1        0.0618
     27 H           7.3404   -5.2329   -3.3802 H       1  UNL1        0.0618
     28 H           8.0966   -2.9443   -2.9038 H       1  UNL1        0.0624
     29 H           6.1972    1.8286    0.8807 H       1  UNL1        0.2922
     30 H           2.9671    1.4212    2.1671 H       1  UNL1        0.0691
@<TRIPOS>BOND
     1     1     2    1
     2     2     3   ar
     3     3     4   ar
     4     4     5   ar
     5     5     6    1
     6     6     7   ar
     7     7     8   ar
     8     8     9   ar
     9     9    10   ar
    10     6    10   ar
    11    10    11    1
    12    11    12   ar
    13    12    13   ar
    14    13    14   ar
    15    14    15   ar
    16    15    16   ar
    17    11    16   ar
    18     5    17   ar
    19    17    18    1
    20    17    19   ar
    21     2    19   ar
    22     1    20    1
    23     3    21    1
    24     4    22    1
    25     9    23    1
    26    12    24    1
    27    13    25    1
    28    14    26    1
    29    15    27    1
    30    16    28    1
    31    18    29    1
    32    19    30    1
@<TRIPOS>MOLECULE
*****
 48 53 0 0 0
SMALL
GASTEIGER

@<TRIPOS>ATOM
      1 O           4.2175    0.7179   -2.1684 O.2     1  UNL1       -0.2702
      2 C           3.9294    0.5060   -0.9983 C.2     1  UNL1        0.2449
      3 N           2.9588    1.1924   -0.3149 N.am    1  UNL1       -0.3005
      4 C           2.1356    2.2023   -0.9441 C.3     1  UNL1        0.0751
      5 C           2.6536    3.5950   -0.6692 C.ar    1  UNL1       -0.0151
      6 C           3.8181    4.1648   -1.1722 C.ar    1  UNL1       -0.0559
      7 C           4.1061    5.4837   -0.8343 C.ar    1  UNL1       -0.0614
      8 C           3.2344    6.2061   -0.0109 C.ar    1  UNL1       -0.0612
      9 C           2.0552    5.6253    0.4762 C.ar    1  UNL1       -0.0537
     10 C           1.7545    4.3098    0.1578 C.ar    1  UNL1       -0.0116
     11 C           0.5987    3.4595    0.4585 C.ar    1  UNL1       -0.0017
     12 C           0.7767    2.2423   -0.2605 C.ar    1  UNL1       -0.0144
     13 C          -0.1726    1.2297   -0.2797 C.ar    1  UNL1       -0.0559
     14 C          -1.3200    1.3994    0.4813 C.ar    1  UNL1       -0.0607
     15 C          -1.4952    2.5651    1.2426 C.ar    1  UNL1       -0.0505
     16 C          -0.5531    3.6233    1.2401 C.ar    1  UNL1        0.0253
     17 C          -0.8203    4.7952    2.0799 C.ar    1  UNL1        0.1399
     18 N           0.0559    5.4867    2.7835 N.ar    1  UNL1       -0.2262
     19 C          -0.6424    6.4996    3.3956 C.ar    1  UNL1        0.1075
     20 C          -0.2008    7.5522    4.2004 C.ar    1  UNL1        0.0550
     21 N          -1.0961    8.4285    4.7305 N.ar    1  UNL1       -0.2610
     22 C          -2.4128    8.2581    4.4620 C.ar    1  UNL1        0.0296
     23 C          -2.9454    7.2601    3.6540 C.ar    1  UNL1       -0.0181
     24 C          -1.9989    6.3906    3.1220 C.ar    1  UNL1        0.0694
     25 N          -2.0855    5.3164    2.2764 N.ar    1  UNL1       -0.3378
     26 H          -2.9295    4.9678    1.8489 H       1  UNL1        0.1674
     27 C           4.5763   -0.6111   -0.2600 C.ar    1  UNL1        0.0396
     28 C           4.7817   -0.5804    1.1205 C.ar    1  UNL1       -0.0315
     29 C           5.3176   -1.7094    1.7163 C.ar    1  UNL1        0.0283
     30 N           5.6520   -2.8294    1.0401 N.ar    1  UNL1       -0.2632
     31 C           5.4687   -2.8178   -0.2978 C.ar    1  UNL1        0.0283
     32 C           4.9486   -1.7405   -0.9885 C.ar    1  UNL1       -0.0315
     33 H           2.7485    0.9749    0.6483 H       1  UNL1        0.1499
     34 H           2.0245    2.0329   -2.0212 H       1  UNL1        0.0599
     35 H           4.4780    3.5995   -1.8246 H       1  UNL1        0.0621
     36 H           5.0045    5.9597   -1.2186 H       1  UNL1        0.0618
     37 H           3.4668    7.2370    0.2472 H       1  UNL1        0.0618
     38 H           1.3987    6.2353    1.0812 H       1  UNL1        0.0624
     39 H          -0.0162    0.3261   -0.8612 H       1  UNL1        0.0621
     40 H          -2.0749    0.6168    0.5064 H       1  UNL1        0.0618
     41 H          -2.3843    2.6215    1.8697 H       1  UNL1        0.0625
     42 H           0.8450    7.7122    4.4275 H       1  UNL1        0.0852
     43 H          -3.0663    8.9861    4.9379 H       1  UNL1        0.0830
     44 H          -4.0070    7.1751    3.4651 H       1  UNL1        0.0654
     45 H           4.5538    0.2907    1.7228 H       1  UNL1        0.0640
     46 H           5.4960   -1.7487    2.7877 H       1  UNL1        0.0830
     47 H           5.7534   -3.7304   -0.8142 H       1  UNL1        0.0830
     48 H           4.8158   -1.7855   -2.0643 H       1  UNL1        0.0640
@<TRIPOS>BOND
     1     1     2    2
     2     2     3   am
     3     3     4    1
     4     4     5    1
     5     5     6   ar
     6     6     7   ar
     7     7     8   ar
     8     8     9   ar
     9     9    10   ar
    10     5    10   ar
    11    10    11    1
    12    11    12   ar
    13     4    12    1
    14    12    13   ar
    15    13    14   ar
    16    14    15   ar
    17    15    16   ar
    18    11    16   ar
    19    16    17    1
    20    17    18   ar
    21    18    19   ar
    22    19    20   ar
    23    20    21   ar
    24    21    22   ar
    25    22    23   ar
    26    23    24   ar
    27    19    24   ar
    28    24    25   ar
    29    25    26    1
    30    17    25   ar
    31     2    27    1
    32    27    28   ar
    33    28    29   ar
    34    29    30   ar
    35    30    31   ar
    36    31    32   ar
    37    27    32   ar
    38     3    33    1
    39     4    34    1
    40     6    35    1
    41     7    36    1
    42     8    37    1
    43     9    38    1
    44    13    39    1
    45    14    40    1
    46    15    41    1
    47    20    42    1
    48    22    43    1
    49    23    44    1
    50    28    45    1
    51    29    46    1
    52    31    47    1
    53    32    48    1
@<TRIPOS>MOLECULE
*****
 49 54 0 0 0
SMALL
GASTEIGER

@<TRIPOS>ATOM
      1 N           1.5073    0.0976    0.1825 N.pl3   1  UNL1       -0.3275
      2 C           2.3769   -0.3221   -0.7978 C.ar    1  UNL1        0.2133
      3 N           2.4052    0.4278   -1.9023 N.ar    1  UNL1       -0.2216
      4 C           3.2733    0.0641   -2.8624 C.ar    1  UNL1        0.0517
      5 C           4.1058   -1.0253   -2.7694 C.ar    1  UNL1        0.0896
      6 CL          5.1923   -1.2993   -4.0729 Cl      1  UNL1       -0.0796
      7 C           3.9694   -1.7667   -1.6014 C.ar    1  UNL1        0.1486
      8 C           4.7960   -3.0049   -1.3739 C.2     1  UNL1        0.2647
      9 O           5.5669   -3.3995   -2.2373 O.2     1  UNL1       -0.2685
     10 N           4.6782   -3.6954   -0.1746 N.am    1  UNL1       -0.2992
     11 C           5.5932   -4.7932    0.0742 C.3     1  UNL1        0.0751
     12 C           5.1659   -6.1659   -0.4116 C.ar    1  UNL1       -0.0151
     13 C           4.6626   -6.5108   -1.6636 C.ar    1  UNL1       -0.0559
     14 C           4.5362   -7.8604   -1.9868 C.ar    1  UNL1       -0.0614
     15 C           4.9432   -8.8402   -1.0782 C.ar    1  UNL1       -0.0612
     16 C           5.4478   -8.4844    0.1792 C.ar    1  UNL1       -0.0537
     17 C           5.5279   -7.1472    0.5457 C.ar    1  UNL1       -0.0116
     18 C           5.9835   -6.4820    1.7769 C.ar    1  UNL1       -0.0017
     19 C           5.9445   -5.0717    1.5264 C.ar    1  UNL1       -0.0144
     20 C           6.3350   -4.1329    2.4698 C.ar    1  UNL1       -0.0559
     21 C           6.7677   -4.5936    3.7051 C.ar    1  UNL1       -0.0607
     22 C           6.8102   -5.9723    3.9787 C.ar    1  UNL1       -0.0505
     23 C           6.4192   -6.9494    3.0308 C.ar    1  UNL1        0.0253
     24 C           6.4703   -8.3695    3.4244 C.ar    1  UNL1        0.1399
     25 N           5.6528   -9.3263    3.0298 N.ar    1  UNL1       -0.2262
     26 C           6.1091  -10.4982    3.5772 C.ar    1  UNL1        0.1075
     27 C           5.6721  -11.8130    3.3994 C.ar    1  UNL1        0.0550
     28 N           6.2676  -12.8292    4.0785 N.ar    1  UNL1       -0.2610
     29 C           7.2818  -12.5365    4.9270 C.ar    1  UNL1        0.0296
     30 C           7.8009  -11.2652    5.1532 C.ar    1  UNL1       -0.0181
     31 C           7.1789  -10.2543    4.4265 C.ar    1  UNL1        0.0694
     32 N           7.3907   -8.9008    4.3135 N.ar    1  UNL1       -0.3378
     33 H           8.1247   -8.3830    4.7721 H       1  UNL1        0.1674
     34 N           3.1060   -1.4296   -0.5974 N.ar    1  UNL1       -0.2085
     35 H           0.8013    0.7031   -0.2204 H       1  UNL1        0.1452
     36 H           1.1885   -0.6618    0.7619 H       1  UNL1        0.1452
     37 H           3.2816    0.7061   -3.7395 H       1  UNL1        0.0846
     38 H           4.0445   -3.3653    0.5459 H       1  UNL1        0.1500
     39 H           6.5467   -4.5677   -0.4233 H       1  UNL1        0.0599
     40 H           4.4093   -5.7514   -2.3958 H       1  UNL1        0.0621
     41 H           4.1579   -8.1546   -2.9625 H       1  UNL1        0.0618
     42 H           4.8823   -9.8915   -1.3513 H       1  UNL1        0.0618
     43 H           5.7876   -9.2824    0.8232 H       1  UNL1        0.0624
     44 H           6.3278   -3.0717    2.2405 H       1  UNL1        0.0621
     45 H           7.0815   -3.8824    4.4662 H       1  UNL1        0.0618
     46 H           7.1395   -6.2675    4.9730 H       1  UNL1        0.0625
     47 H           4.8679  -12.0710    2.7224 H       1  UNL1        0.0852
     48 H           7.6921  -13.3997    5.4470 H       1  UNL1        0.0830
     49 H           8.6201  -11.0935    5.8378 H       1  UNL1        0.0654
@<TRIPOS>BOND
     1     1     2    1
     2     2     3   ar
     3     3     4   ar
     4     4     5   ar
     5     5     6    1
     6     5     7   ar
     7     7     8    1
     8     8     9    2
     9     8    10   am
    10    10    11    1
    11    11    12    1
    12    12    13   ar
    13    13    14   ar
    14    14    15   ar
    15    15    16   ar
    16    16    17   ar
    17    12    17   ar
    18    17    18    1
    19    18    19   ar
    20    11    19    1
    21    19    20   ar
    22    20    21   ar
    23    21    22   ar
    24    22    23   ar
    25    18    23   ar
    26    23    24    1
    27    24    25   ar
    28    25    26   ar
    29    26    27   ar
    30    27    28   ar
    31    28    29   ar
    32    29    30   ar
    33    30    31   ar
    34    26    31   ar
    35    31    32   ar
    36    32    33    1
    37    24    32   ar
    38     7    34   ar
    39     2    34   ar
    40     1    35    1
    41     1    36    1
    42     4    37    1
    43    10    38    1
    44    11    39    1
    45    13    40    1
    46    14    41    1
    47    15    42    1
    48    16    43    1
    49    20    44    1
    50    21    45    1
    51    22    46    1
    52    27    47    1
    53    29    48    1
    54    30    49    1
@<TRIPOS>MOLECULE
*****
 47 50 0 0 0
SMALL
GASTEIGER

@<TRIPOS>ATOM
      1 O           1.0546    0.3184    0.3806 O.3     1  UNL1       -0.5064
      2 C           2.4056    0.2325    0.2171 C.ar    1  UNL1        0.1235
      3 C           3.1384    1.4028    0.0287 C.ar    1  UNL1        0.0223
      4 C           4.5169    1.3338   -0.1878 C.ar    1  UNL1        0.1310
      5 O           5.1792    2.4988   -0.4626 O.3     1  UNL1       -0.5059
      6 C           5.1945    0.1041   -0.1428 C.ar    1  UNL1        0.0615
      7 C           4.4411   -1.0375    0.1812 C.ar    1  UNL1       -0.0409
      8 C           3.0325   -1.0144    0.2420 C.ar    1  UNL1       -0.0047
      9 C           2.2973   -2.3459    0.2947 C.3     1  UNL1       -0.0202
     10 C           0.9838   -2.3982   -0.5038 C.3     1  UNL1       -0.0236
     11 C           0.4191   -3.7894   -0.6688 C.ar    1  UNL1       -0.0470
     12 C          -0.4568   -4.3122    0.2925 C.ar    1  UNL1       -0.0586
     13 C          -1.0386   -5.5675    0.1117 C.ar    1  UNL1       -0.0615
     14 C          -0.7434   -6.3156   -1.0262 C.ar    1  UNL1       -0.0617
     15 C           0.1390   -5.8119   -1.9807 C.ar    1  UNL1       -0.0615
     16 C           0.7211   -4.5552   -1.8024 C.ar    1  UNL1       -0.0586
     17 C           6.6616    0.0257   -0.4427 C.ar    1  UNL1        0.1728
     18 N           7.4585    1.0519   -0.2805 N.ar    1  UNL1       -0.1507
     19 N           8.6979    0.6009   -0.6047 N.ar    1  UNL1       -0.2260
     20 H           9.5025    1.2096   -0.6709 H       1  UNL1        0.1937
     21 C           8.6557   -0.7322   -0.9788 C.ar    1  UNL1        0.3490
     22 O           9.6106   -1.3803   -1.3774 O.2     1  UNL1       -0.2446
     23 N           7.3323   -1.1058   -0.8557 N.ar    1  UNL1       -0.2408
     24 C           6.8802   -2.3853   -1.2261 C.ar    1  UNL1        0.0881
     25 C           7.5033   -3.5079   -0.6601 C.ar    1  UNL1       -0.0348
     26 C           7.0012   -4.7909   -0.8930 C.ar    1  UNL1       -0.0596
     27 C           5.8971   -4.9669   -1.7267 C.ar    1  UNL1       -0.0589
     28 C           5.3123   -3.8639   -2.3454 C.ar    1  UNL1       -0.0244
     29 C           5.8096   -2.5840   -2.0955 C.ar    1  UNL1        0.1473
     30 F           5.2310   -1.5435   -2.7141 F       1  UNL1       -0.2033
     31 H           0.7617    1.2284    0.2105 H       1  UNL1        0.2921
     32 H           2.6334    2.3627    0.0160 H       1  UNL1        0.0691
     33 H           4.5847    3.2595   -0.3768 H       1  UNL1        0.2922
     34 H           4.9348   -1.9885    0.3522 H       1  UNL1        0.0630
     35 H           2.1285   -2.6248    1.3408 H       1  UNL1        0.0317
     36 H           2.9633   -3.1127   -0.1273 H       1  UNL1        0.0317
     37 H           1.1242   -1.9526   -1.4978 H       1  UNL1        0.0316
     38 H           0.2108   -1.7982   -0.0125 H       1  UNL1        0.0316
     39 H          -0.7102   -3.7307    1.1763 H       1  UNL1        0.0620
     40 H          -1.7329   -5.9549    0.8526 H       1  UNL1        0.0618
     41 H          -1.2069   -7.2877   -1.1722 H       1  UNL1        0.0618
     42 H           0.3621   -6.3926   -2.8717 H       1  UNL1        0.0618
     43 H           1.3916   -4.1664   -2.5649 H       1  UNL1        0.0620
     44 H           8.3545   -3.3905    0.0107 H       1  UNL1        0.0639
     45 H           7.4669   -5.6489   -0.4137 H       1  UNL1        0.0618
     46 H           5.4989   -5.9646   -1.8953 H       1  UNL1        0.0618
     47 H           4.4652   -3.9896   -3.0124 H       1  UNL1        0.0647
@<TRIPOS>BOND
     1     1     2    1
     2     2     3   ar
     3     3     4   ar
     4     4     5    1
     5     4     6   ar
     6     6     7   ar
     7     7     8   ar
     8     2     8   ar
     9     8     9    1
    10     9    10    1
    11    10    11    1
    12    11    12   ar
    13    12    13   ar
    14    13    14   ar
    15    14    15   ar
    16    15    16   ar
    17    11    16   ar
    18     6    17    1
    19    17    18   ar
    20    18    19   ar
    21    19    20    1
    22    19    21   ar
    23    21    22    2
    24    21    23   ar
    25    17    23   ar
    26    23    24    1
    27    24    25   ar
    28    25    26   ar
    29    26    27   ar
    30    27    28   ar
    31    28    29   ar
    32    24    29   ar
    33    29    30    1
    34     1    31    1
    35     3    32    1
    36     5    33    1
    37     7    34    1
    38     9    35    1
    39     9    36    1
    40    10    37    1
    41    10    38    1
    42    12    39    1
    43    13    40    1
    44    14    41    1
    45    15    42    1
    46    16    43    1
    47    25    44    1
    48    26    45    1
    49    27    46    1
    50    28    47    1
@<TRIPOS>MOLECULE
*****
 34 36 0 0 0
SMALL
GASTEIGER

@<TRIPOS>ATOM
      1 O           1.7301   -0.1838   -1.2691 O.3     1  UNL1       -0.4770
      2 C           2.8375   -0.0637   -0.5068 C.2     1  UNL1        0.3404
      3 O           3.4667    0.9810   -0.4418 O.2     1  UNL1       -0.2450
      4 C           3.2038   -1.2628    0.2966 C.ar    1  UNL1        0.1021
      5 C           4.2920   -1.1436    1.1817 C.ar    1  UNL1       -0.0299
      6 C           4.6266   -2.1689    2.0810 C.ar    1  UNL1        0.0631
      7 C           5.7860   -1.9223    2.9832 C.ar    1  UNL1        0.1728
      8 N           6.0847   -0.7077    3.3710 N.ar    1  UNL1       -0.1507
      9 N           7.1083   -0.8700    4.2586 N.ar    1  UNL1       -0.2260
     10 H           7.5793   -0.0923    4.7025 H       1  UNL1        0.1937
     11 C           7.4321   -2.2107    4.4089 C.ar    1  UNL1        0.3490
     12 O           8.3127   -2.6494    5.1322 O.2     1  UNL1       -0.2446
     13 N           6.5772   -2.8868    3.5580 N.ar    1  UNL1       -0.2408
     14 C           6.6820   -4.2664    3.3083 C.ar    1  UNL1        0.0881
     15 C           6.6775   -5.1573    4.3920 C.ar    1  UNL1       -0.0348
     16 C           6.6019   -6.5342    4.1701 C.ar    1  UNL1       -0.0596
     17 C           6.5996   -7.0348    2.8685 C.ar    1  UNL1       -0.0589
     18 C           6.6823   -6.1595    1.7859 C.ar    1  UNL1       -0.0244
     19 C           6.7106   -4.7846    2.0102 C.ar    1  UNL1        0.1473
     20 F           6.7828   -3.9622    0.9536 F       1  UNL1       -0.2033
     21 C           3.8008   -3.2999    2.1292 C.ar    1  UNL1        0.1450
     22 O           3.8486   -4.2111    3.1498 O.3     1  UNL1       -0.5048
     23 C           2.8061   -3.4910    1.1601 C.ar    1  UNL1        0.1020
     24 BR          1.8163   -5.1182    1.0953 Br      1  UNL1       -0.0427
     25 C           2.5039   -2.4717    0.2512 C.ar    1  UNL1        0.1483
     26 O           1.4902   -2.6359   -0.6642 O.3     1  UNL1       -0.5047
     27 H           1.3380   -1.0844   -1.2347 H       1  UNL1        0.2954
     28 H           4.8678   -0.2123    1.1859 H       1  UNL1        0.0635
     29 H           6.6593   -4.7882    5.4154 H       1  UNL1        0.0639
     30 H           6.5275   -7.2158    5.0160 H       1  UNL1        0.0618
     31 H           6.5354   -8.1069    2.6993 H       1  UNL1        0.0618
     32 H           6.7102   -6.5399    0.7695 H       1  UNL1        0.0647
     33 H           4.1881   -3.7839    3.9559 H       1  UNL1        0.2922
     34 H           1.1702   -3.5596   -0.5826 H       1  UNL1        0.2922
@<TRIPOS>BOND
     1     1     2    1
     2     2     3    2
     3     2     4    1
     4     4     5   ar
     5     5     6   ar
     6     6     7    1
     7     7     8   ar
     8     8     9   ar
     9     9    10    1
    10     9    11   ar
    11    11    12    2
    12    11    13   ar
    13     7    13   ar
    14    13    14    1
    15    14    15   ar
    16    15    16   ar
    17    16    17   ar
    18    17    18   ar
    19    18    19   ar
    20    14    19   ar
    21    19    20    1
    22     6    21   ar
    23    21    22    1
    24    21    23   ar
    25    23    24    1
    26    23    25   ar
    27     4    25   ar
    28    25    26    1
    29     1    27    1
    30     5    28    1
    31    15    29    1
    32    16    30    1
    33    17    31    1
    34    18    32    1
    35    22    33    1
    36    26    34    1
@<TRIPOS>MOLECULE
*****
 34 36 0 0 0
SMALL
GASTEIGER

@<TRIPOS>ATOM
      1 O           5.6548   -3.0766   -1.6108 O.3     1  UNL1       -0.4770
      2 C           5.5965   -2.3490   -2.7447 C.2     1  UNL1        0.3404
      3 O           6.3610   -2.4985   -3.6732 O.2     1  UNL1       -0.2450
      4 C           4.6017   -1.2378   -2.7009 C.ar    1  UNL1        0.1010
      5 C           4.8628   -0.0990   -3.4865 C.ar    1  UNL1       -0.0300
      6 C           4.0740    1.0429   -3.3470 C.ar    1  UNL1        0.0620
      7 C           4.3432    2.3009   -4.0881 C.ar    1  UNL1        0.1728
      8 N           4.0227    3.4510   -3.5473 N.ar    1  UNL1       -0.1507
      9 N           4.4314    4.3822   -4.4444 N.ar    1  UNL1       -0.2260
     10 H           4.1891    5.3641   -4.3784 H       1  UNL1        0.1937
     11 C           4.9633    3.7811   -5.5734 C.ar    1  UNL1        0.3490
     12 O           5.2584    4.3726   -6.5971 O.2     1  UNL1       -0.2446
     13 N           4.9713    2.4194   -5.3020 N.ar    1  UNL1       -0.2408
     14 C           5.2458    1.5141   -6.3454 C.ar    1  UNL1        0.0881
     15 C           6.4560    1.6608   -7.0467 C.ar    1  UNL1       -0.0348
     16 C           6.6953    0.9525   -8.2263 C.ar    1  UNL1       -0.0596
     17 C           5.7147    0.1049   -8.7340 C.ar    1  UNL1       -0.0589
     18 C           4.5210   -0.0711   -8.0329 C.ar    1  UNL1       -0.0244
     19 C           4.2966    0.6158   -6.8375 C.ar    1  UNL1        0.1473
     20 F           3.1084    0.4803   -6.2292 F       1  UNL1       -0.2033
     21 C           3.0625    1.0343   -2.3623 C.ar    1  UNL1        0.1310
     22 O           2.3993    2.1605   -1.9483 O.3     1  UNL1       -0.5059
     23 C           2.7156   -0.1290   -1.6771 C.ar    1  UNL1        0.0228
     24 C           3.4865   -1.2669   -1.8565 C.ar    1  UNL1        0.1343
     25 O           3.1871   -2.3966   -1.1440 O.3     1  UNL1       -0.5058
     26 H           4.9062   -2.8961   -0.9973 H       1  UNL1        0.2954
     27 H           5.7308   -0.1014   -4.1448 H       1  UNL1        0.0635
     28 H           7.2150    2.3524   -6.6881 H       1  UNL1        0.0639
     29 H           7.6330    1.0950   -8.7621 H       1  UNL1        0.0618
     30 H           5.8807   -0.4023   -9.6810 H       1  UNL1        0.0618
     31 H           3.7441   -0.7137   -8.4410 H       1  UNL1        0.0647
     32 H           2.9237    2.9387   -2.2442 H       1  UNL1        0.2922
     33 H           1.8974   -0.1001   -0.9639 H       1  UNL1        0.0691
     34 H           2.2467   -2.3518   -0.8771 H       1  UNL1        0.2922
@<TRIPOS>BOND
     1     1     2    1
     2     2     3    2
     3     2     4    1
     4     4     5   ar
     5     5     6   ar
     6     6     7    1
     7     7     8   ar
     8     8     9   ar
     9     9    10    1
    10     9    11   ar
    11    11    12    2
    12    11    13   ar
    13     7    13   ar
    14    13    14    1
    15    14    15   ar
    16    15    16   ar
    17    16    17   ar
    18    17    18   ar
    19    18    19   ar
    20    14    19   ar
    21    19    20    1
    22     6    21   ar
    23    21    22    1
    24    21    23   ar
    25    23    24   ar
    26     4    24   ar
    27    24    25    1
    28     1    26    1
    29     5    27    1
    30    15    28    1
    31    16    29    1
    32    17    30    1
    33    18    31    1
    34    22    32    1
    35    23    33    1
    36    25    34    1
@<TRIPOS>MOLECULE
*****
 64 68 0 0 0
SMALL
GASTEIGER

@<TRIPOS>ATOM
      1 C           3.5928    0.3560   -0.7895 C.3     1  UNL1        0.0369
      2 O           2.7089    0.0900    0.2936 O.3     1  UNL1       -0.3782
      3 C           3.1191   -1.0240    1.0808 C.3     1  UNL1        0.0754
      4 C           2.0978   -1.2739    2.1895 C.3     1  UNL1       -0.0093
      5 C           2.3261   -2.7288    2.5511 C.3     1  UNL1        0.0175
      6 N           2.6943   -3.3568    1.2976 N.am    1  UNL1       -0.2937
      7 C           2.6188   -4.7349    1.1210 C.2     1  UNL1        0.2674
      8 O           2.2472   -5.4608    2.0470 O.2     1  UNL1       -0.2682
      9 C           2.9648   -5.3196   -0.2019 C.ar    1  UNL1        0.1547
     10 N           3.3174   -4.6030   -1.2916 N.ar    1  UNL1       -0.1681
     11 N           3.4893   -5.5115   -2.2578 N.ar    1  UNL1       -0.2761
     12 H           3.7599   -5.1833   -3.1771 H       1  UNL1        0.1889
     13 C           3.2471   -6.7963   -1.8707 C.ar    1  UNL1        0.0700
     14 C           3.2869   -7.9953   -2.5798 C.ar    1  UNL1        0.0060
     15 C           2.9033   -9.1522   -1.8837 C.ar    1  UNL1        0.1310
     16 O           2.8681  -10.3212   -2.6003 O.3     1  UNL1       -0.5059
     17 C           2.5519   -9.1277   -0.5180 C.ar    1  UNL1        0.0793
     18 C           2.2118  -10.3913    0.2163 C.2     1  UNL1        0.2541
     19 O           2.8935  -11.3678   -0.1046 O.2     1  UNL1       -0.2695
     20 N           1.1780  -10.4425    1.1977 N.am    1  UNL1       -0.2704
     21 C           0.2046   -9.3661    1.4417 C.3     1  UNL1        0.0086
     22 C           0.8918  -11.6942    1.8845 C.ar    1  UNL1        0.0364
     23 C           1.8636  -12.6760    2.0834 C.ar    1  UNL1       -0.0385
     24 C           1.5631  -13.9009    2.7062 C.ar    1  UNL1       -0.0389
     25 C           0.2862  -14.2075    3.1874 C.ar    1  UNL1        0.0299
     26 N          -0.0045  -15.4107    3.7902 N.pl3   1  UNL1       -0.3255
     27 C           1.0167  -16.2601    4.4238 C.3     1  UNL1        0.0357
     28 C           0.5691  -16.5870    5.8589 C.3     1  UNL1        0.0634
     29 O          -0.7251  -17.2140    5.8845 O.3     1  UNL1       -0.3767
     30 C          -1.7096  -16.3499    5.2887 C.3     1  UNL1        0.0634
     31 C          -1.3519  -16.0025    3.8349 C.3     1  UNL1        0.0357
     32 C          -0.6709  -13.2006    3.0293 C.ar    1  UNL1       -0.0389
     33 C          -0.3807  -11.9762    2.3986 C.ar    1  UNL1       -0.0385
     34 C           2.6604   -7.9127    0.1782 C.ar    1  UNL1       -0.0347
     35 C           2.9303   -6.7178   -0.5223 C.ar    1  UNL1        0.0328
     36 C           3.1240   -2.3581    0.3300 C.3     1  UNL1        0.0413
     37 H           3.3131    1.3153   -1.2336 H       1  UNL1        0.0524
     38 H           3.4997   -0.4155   -1.5602 H       1  UNL1        0.0524
     39 H           4.6285    0.4179   -0.4433 H       1  UNL1        0.0524
     40 H           4.1009   -0.8230    1.5285 H       1  UNL1        0.0612
     41 H           1.0795   -1.1220    1.8077 H       1  UNL1        0.0306
     42 H           2.2265   -0.5967    3.0417 H       1  UNL1        0.0306
     43 H           1.4437   -3.2007    2.9941 H       1  UNL1        0.0465
     44 H           3.1734   -2.8401    3.2379 H       1  UNL1        0.0465
     45 H           3.5726   -8.0199   -3.6256 H       1  UNL1        0.0675
     46 H           3.3709  -10.2290   -3.4264 H       1  UNL1        0.2922
     47 H           0.5537   -8.3734    1.1849 H       1  UNL1        0.0433
     48 H          -0.0493   -9.3315    2.5045 H       1  UNL1        0.0433
     49 H          -0.6915   -9.5537    0.8380 H       1  UNL1        0.0433
     50 H           2.8931  -12.5254    1.7730 H       1  UNL1        0.0637
     51 H           2.3715  -14.6233    2.7673 H       1  UNL1        0.0637
     52 H           2.0032  -15.7919    4.4783 H       1  UNL1        0.0486
     53 H           1.1107  -17.1858    3.8430 H       1  UNL1        0.0486
     54 H           0.5338  -15.6766    6.4701 H       1  UNL1        0.0575
     55 H           1.2822  -17.2746    6.3235 H       1  UNL1        0.0575
     56 H          -1.8018  -15.4429    5.8980 H       1  UNL1        0.0575
     57 H          -2.6693  -16.8749    5.3207 H       1  UNL1        0.0575
     58 H          -2.1311  -15.3690    3.4028 H       1  UNL1        0.0486
     59 H          -1.3351  -16.9246    3.2398 H       1  UNL1        0.0486
     60 H          -1.6781  -13.3281    3.4139 H       1  UNL1        0.0637
     61 H          -1.2052  -11.2772    2.3019 H       1  UNL1        0.0637
     62 H           2.5210   -7.8718    1.2544 H       1  UNL1        0.0633
     63 H           2.4244   -2.3489   -0.5124 H       1  UNL1        0.0490
     64 H           4.1328   -2.5911   -0.0255 H       1  UNL1        0.0490
@<TRIPOS>BOND
     1     1     2    1
     2     2     3    1
     3     3     4    1
     4     4     5    1
     5     5     6    1
     6     6     7   am
     7     7     8    2
     8     7     9    1
     9     9    10   ar
    10    10    11   ar
    11    11    12    1
    12    11    13   ar
    13    13    14   ar
    14    14    15   ar
    15    15    16    1
    16    15    17   ar
    17    17    18    1
    18    18    19    2
    19    18    20   am
    20    20    21    1
    21    20    22    1
    22    22    23   ar
    23    23    24   ar
    24    24    25   ar
    25    25    26    1
    26    26    27    1
    27    27    28    1
    28    28    29    1
    29    29    30    1
    30    30    31    1
    31    26    31    1
    32    25    32   ar
    33    32    33   ar
    34    22    33   ar
    35    17    34   ar
    36    34    35   ar
    37    13    35   ar
    38     9    35   ar
    39     6    36    1
    40     3    36    1
    41     1    37    1
    42     1    38    1
    43     1    39    1
    44     3    40    1
    45     4    41    1
    46     4    42    1
    47     5    43    1
    48     5    44    1
    49    14    45    1
    50    16    46    1
    51    21    47    1
    52    21    48    1
    53    21    49    1
    54    23    50    1
    55    24    51    1
    56    27    52    1
    57    27    53    1
    58    28    54    1
    59    28    55    1
    60    30    56    1
    61    30    57    1
    62    31    58    1
    63    31    59    1
    64    32    60    1
    65    33    61    1
    66    34    62    1
    67    36    63    1
    68    36    64    1
@<TRIPOS>MOLECULE
*****
 49 52 0 0 0
SMALL
GASTEIGER

@<TRIPOS>ATOM
      1 C           5.2498    2.3170   -2.3339 C.3     1  UNL1       -0.0499
      2 C           6.1542    1.2960   -1.6442 C.3     1  UNL1        0.0020
      3 C           7.1565    2.0092   -0.7337 C.3     1  UNL1       -0.0499
      4 N           5.3949    0.3345   -0.8348 N.3     1  UNL1       -0.3137
      5 C           4.4503   -0.5003   -1.5814 C.3     1  UNL1       -0.0023
      6 C           5.1196   -1.4206   -2.6017 C.3     1  UNL1       -0.0222
      7 C           6.1538   -2.3174   -1.9207 C.3     1  UNL1        0.0282
      8 N           6.6918   -3.3252   -2.8077 N.ar    1  UNL1       -0.3032
      9 C           7.5168   -3.1516   -3.8952 C.ar    1  UNL1        0.1760
     10 S           8.2343   -1.6102   -4.2153 S.3     1  UNL1       -0.0504
     11 C           8.2365   -1.3699   -5.9911 C.ar    1  UNL1        0.0323
     12 C           8.2380   -2.4569   -6.8762 C.ar    1  UNL1       -0.0013
     13 C           8.6246   -2.2403   -8.1811 C.ar    1  UNL1        0.1673
     14 O           8.8634   -3.2159   -9.1034 O.3     1  UNL1       -0.4526
     15 C           9.6586   -2.4604  -10.0386 C.3     1  UNL1        0.2332
     16 O           9.4324   -1.0384   -9.9236 O.3     1  UNL1       -0.4526
     17 C           8.9323   -0.9904   -8.6583 C.ar    1  UNL1        0.1673
     18 C           8.8058    0.1316   -7.8821 C.ar    1  UNL1       -0.0019
     19 C           8.4603   -0.0627   -6.5309 C.ar    1  UNL1        0.0309
     20 I           8.3558    1.7151   -5.3810 I       1  UNL1       -0.0425
     21 N           7.7905   -4.2979   -4.4827 N.ar    1  UNL1       -0.2164
     22 C           7.1431   -5.2540   -3.7301 C.ar    1  UNL1        0.1484
     23 C           7.0364   -6.6544   -3.8338 C.ar    1  UNL1        0.1472
     24 N           7.5623   -7.3894   -4.8865 N.pl3   1  UNL1       -0.3413
     25 N           6.3965   -7.3311   -2.8478 N.ar    1  UNL1       -0.2188
     26 C           5.8497   -6.6302   -1.8385 C.ar    1  UNL1        0.1205
     27 N           5.8262   -5.2937   -1.6703 N.ar    1  UNL1       -0.2160
     28 C           6.4958   -4.6701   -2.6536 C.ar    1  UNL1        0.1661
     29 H           5.8453    3.0766   -2.8526 H       1  UNL1        0.0245
     30 H           4.6025    2.8297   -1.6130 H       1  UNL1        0.0245
     31 H           4.6123    1.8418   -3.0885 H       1  UNL1        0.0245
     32 H           6.7415    0.7701   -2.4017 H       1  UNL1        0.0455
     33 H           6.6601    2.5065    0.1070 H       1  UNL1        0.0245
     34 H           7.7133    2.7706   -1.2919 H       1  UNL1        0.0245
     35 H           7.8864    1.3008   -0.3273 H       1  UNL1        0.0245
     36 H           4.8858    0.8369   -0.1063 H       1  UNL1        0.1222
     37 H           3.6796    0.1071   -2.0664 H       1  UNL1        0.0425
     38 H           3.9174   -1.1282   -0.8550 H       1  UNL1        0.0425
     39 H           5.5665   -0.8267   -3.4044 H       1  UNL1        0.0295
     40 H           4.3498   -2.0356   -3.0859 H       1  UNL1        0.0295
     41 H           5.6841   -2.8288   -1.0726 H       1  UNL1        0.0493
     42 H           6.9982   -1.7501   -1.5182 H       1  UNL1        0.0493
     43 H           8.0528   -3.4756   -6.5692 H       1  UNL1        0.0667
     44 H           9.4245   -2.7849  -11.0610 H       1  UNL1        0.1166
     45 H          10.7118   -2.6689   -9.8365 H       1  UNL1        0.1166
     46 H           9.0325    1.1079   -8.2871 H       1  UNL1        0.0666
     47 H           8.3142   -6.9212   -5.3799 H       1  UNL1        0.1438
     48 H           7.6806   -8.3646   -4.6527 H       1  UNL1        0.1438
     49 H           5.3699   -7.2138   -1.0593 H       1  UNL1        0.1048
@<TRIPOS>BOND
     1     1     2    1
     2     2     3    1
     3     2     4    1
     4     4     5    1
     5     5     6    1
     6     6     7    1
     7     7     8    1
     8     8     9   ar
     9     9    10    1
    10    10    11    1
    11    11    12   ar
    12    12    13   ar
    13    13    14    1
    14    14    15    1
    15    15    16    1
    16    16    17    1
    17    13    17   ar
    18    17    18   ar
    19    18    19   ar
    20    11    19   ar
    21    19    20    1
    22     9    21   ar
    23    21    22   ar
    24    22    23   ar
    25    23    24    1
    26    23    25   ar
    27    25    26   ar
    28    26    27   ar
    29    27    28   ar
    30     8    28   ar
    31    22    28   ar
    32     1    29    1
    33     1    30    1
    34     1    31    1
    35     2    32    1
    36     3    33    1
    37     3    34    1
    38     3    35    1
    39     4    36    1
    40     5    37    1
    41     5    38    1
    42     6    39    1
    43     6    40    1
    44     7    41    1
    45     7    42    1
    46    12    43    1
    47    15    44    1
    48    15    45    1
    49    18    46    1
    50    24    47    1
    51    24    48    1
    52    26    49    1
@<TRIPOS>MOLECULE
*****
 57 60 0 0 0
SMALL
GASTEIGER

@<TRIPOS>ATOM
      1 C          10.3703   -3.7523   -1.0005 C.3     1  UNL1       -0.0397
      2 C           9.1724   -3.0518   -1.5706 C.ar    1  UNL1       -0.0501
      3 C           9.3095   -1.9829   -2.4623 C.ar    1  UNL1       -0.0588
      4 C           8.1885   -1.2370   -2.8328 C.ar    1  UNL1       -0.0612
      5 C           6.9394   -1.5191   -2.2707 C.ar    1  UNL1       -0.0571
      6 C           6.7900   -2.5756   -1.3566 C.ar    1  UNL1       -0.0299
      7 C           5.5283   -2.7598   -0.5362 C.3     1  UNL1        0.0397
      8 N           4.6352   -3.8278   -0.9833 N.am    1  UNL1       -0.2962
      9 C           3.6034   -3.4103   -1.9166 C.3     1  UNL1        0.0038
     10 C           4.6776   -5.0689   -0.3193 C.2     1  UNL1        0.2502
     11 O           5.5422   -5.3179    0.5283 O.2     1  UNL1       -0.2699
     12 C           3.7330   -6.1916   -0.6436 C.ar    1  UNL1        0.0791
     13 C           4.2624   -7.5050   -0.6648 C.ar    1  UNL1       -0.0319
     14 C           3.4453   -8.6104   -0.9684 C.ar    1  UNL1        0.0619
     15 C           3.8779  -10.0278   -0.8363 C.ar    1  UNL1        0.1727
     16 N           3.4255  -10.9286   -1.6735 N.ar    1  UNL1       -0.1507
     17 N           3.9696  -12.0975   -1.2373 N.ar    1  UNL1       -0.2260
     18 H           3.7154  -12.9990   -1.6154 H       1  UNL1        0.1937
     19 C           4.7056  -11.9039   -0.0596 C.ar    1  UNL1        0.3489
     20 O           5.1397  -12.8154    0.6142 O.2     1  UNL1       -0.2446
     21 N           4.6999  -10.5328    0.1448 N.ar    1  UNL1       -0.2434
     22 C           5.2333   -9.9240    1.2988 C.ar    1  UNL1        0.0558
     23 C           4.4252   -9.0875    2.0864 C.ar    1  UNL1       -0.0374
     24 C           4.9666   -8.3567    3.1487 C.ar    1  UNL1       -0.0598
     25 C           6.3269   -8.4369    3.4210 C.ar    1  UNL1       -0.0614
     26 C           7.1279   -9.3107    2.6929 C.ar    1  UNL1       -0.0569
     27 C           6.5902  -10.0906    1.6527 C.ar    1  UNL1       -0.0264
     28 C           7.5091  -11.0842    0.9900 C.3     1  UNL1       -0.0377
     29 C           2.1339   -8.3716   -1.4003 C.ar    1  UNL1        0.1310
     30 O           1.3000   -9.3463   -1.8790 O.3     1  UNL1       -0.5059
     31 C           1.5806   -7.1036   -1.3103 C.ar    1  UNL1        0.0228
     32 C           2.3535   -6.0444   -0.8381 C.ar    1  UNL1        0.1325
     33 O           1.7023   -4.8900   -0.5075 O.3     1  UNL1       -0.5059
     34 C           7.9032   -3.3771   -1.0744 C.ar    1  UNL1       -0.0541
     35 H          11.2867   -3.5048   -1.5428 H       1  UNL1        0.0278
     36 H          10.2362   -4.8374   -1.0232 H       1  UNL1        0.0278
     37 H          10.4968   -3.4328    0.0410 H       1  UNL1        0.0278
     38 H          10.2892   -1.7051   -2.8454 H       1  UNL1        0.0620
     39 H           8.3029   -0.3964   -3.5173 H       1  UNL1        0.0618
     40 H           6.0991   -0.8709   -2.5098 H       1  UNL1        0.0621
     41 H           4.9637   -1.8183   -0.5210 H       1  UNL1        0.0514
     42 H           5.8249   -2.9294    0.5059 H       1  UNL1        0.0514
     43 H           3.9613   -2.5890   -2.5424 H       1  UNL1        0.0429
     44 H           2.7583   -3.0257   -1.3366 H       1  UNL1        0.0429
     45 H           3.2937   -4.2325   -2.5620 H       1  UNL1        0.0429
     46 H           5.3131   -7.6533   -0.4123 H       1  UNL1        0.0634
     47 H           3.3565   -9.0079    1.9044 H       1  UNL1        0.0638
     48 H           4.3320   -7.7140    3.7528 H       1  UNL1        0.0618
     49 H           6.7643   -7.8310    4.2105 H       1  UNL1        0.0618
     50 H           8.1871   -9.3760    2.9332 H       1  UNL1        0.0621
     51 H           8.5607  -10.8483    1.1810 H       1  UNL1        0.0278
     52 H           7.3768  -11.1002   -0.0953 H       1  UNL1        0.0278
     53 H           7.3283  -12.0819    1.4049 H       1  UNL1        0.0278
     54 H           1.8335  -10.1560   -2.0424 H       1  UNL1        0.2922
     55 H           0.5381   -6.9676   -1.5822 H       1  UNL1        0.0691
     56 H           0.7420   -5.0444   -0.5319 H       1  UNL1        0.2922
     57 H           7.7954   -4.2119   -0.3827 H       1  UNL1        0.0623
@<TRIPOS>BOND
     1     1     2    1
     2     2     3   ar
     3     3     4   ar
     4     4     5   ar
     5     5     6   ar
     6     6     7    1
     7     7     8    1
     8     8     9    1
     9     8    10   am
    10    10    11    2
    11    10    12    1
    12    12    13   ar
    13    13    14   ar
    14    14    15    1
    15    15    16   ar
    16    16    17   ar
    17    17    18    1
    18    17    19   ar
    19    19    20    2
    20    19    21   ar
    21    15    21   ar
    22    21    22    1
    23    22    23   ar
    24    23    24   ar
    25    24    25   ar
    26    25    26   ar
    27    26    27   ar
    28    22    27   ar
    29    27    28    1
    30    14    29   ar
    31    29    30    1
    32    29    31   ar
    33    31    32   ar
    34    12    32   ar
    35    32    33    1
    36     6    34   ar
    37     2    34   ar
    38     1    35    1
    39     1    36    1
    40     1    37    1
    41     3    38    1
    42     4    39    1
    43     5    40    1
    44     7    41    1
    45     7    42    1
    46     9    43    1
    47     9    44    1
    48     9    45    1
    49    13    46    1
    50    23    47    1
    51    24    48    1
    52    25    49    1
    53    26    50    1
    54    28    51    1
    55    28    52    1
    56    28    53    1
    57    30    54    1
    58    31    55    1
    59    33    56    1
    60    34    57    1
@<TRIPOS>MOLECULE
*****
 57 60 0 0 0
SMALL
GASTEIGER

@<TRIPOS>ATOM
      1 C           1.5350   -5.4223    2.7447 C.3     1  UNL1       -0.0394
      2 C           2.9328   -4.8755    2.6944 C.ar    1  UNL1       -0.0458
      3 C           3.9165   -5.5656    3.4406 C.ar    1  UNL1       -0.0585
      4 C           5.2474   -5.1527    3.4637 C.ar    1  UNL1       -0.0615
      5 C           5.6236   -4.0362    2.7367 C.ar    1  UNL1       -0.0614
      6 C           4.6681   -3.3503    1.9814 C.ar    1  UNL1       -0.0568
      7 C           3.3044   -3.7452    1.9383 C.ar    1  UNL1       -0.0272
      8 C           2.4348   -2.9539    0.9632 C.3     1  UNL1        0.0400
      9 N           0.9745   -2.9441    1.1065 N.am    1  UNL1       -0.2961
     10 C           0.4295   -1.9546    2.0221 C.3     1  UNL1        0.0038
     11 C           0.2148   -3.6429    0.1684 C.2     1  UNL1        0.2502
     12 O           0.6982   -4.5361   -0.5297 O.2     1  UNL1       -0.2699
     13 C          -1.2320   -3.3573   -0.0889 C.ar    1  UNL1        0.0791
     14 C          -2.1173   -4.4585   -0.1615 C.ar    1  UNL1       -0.0319
     15 C          -3.4108   -4.3058   -0.6912 C.ar    1  UNL1        0.0619
     16 C          -4.4918   -5.3275   -0.6070 C.ar    1  UNL1        0.1727
     17 N          -5.3759   -5.4330   -1.5707 N.ar    1  UNL1       -0.1507
     18 N          -6.2656   -6.3566   -1.1145 N.ar    1  UNL1       -0.2260
     19 H          -7.1651   -6.5133   -1.5529 H       1  UNL1        0.1937
     20 C          -5.9568   -6.7379    0.1904 C.ar    1  UNL1        0.3489
     21 O          -6.7115   -7.3632    0.9166 O.2     1  UNL1       -0.2446
     22 N          -4.7300   -6.1529    0.4630 N.ar    1  UNL1       -0.2434
     23 C          -4.1188   -6.2099    1.7322 C.ar    1  UNL1        0.0558
     24 C          -3.8281   -5.0159    2.4152 C.ar    1  UNL1       -0.0374
     25 C          -3.0999   -5.0216    3.6082 C.ar    1  UNL1       -0.0598
     26 C          -2.6461   -6.2210    4.1356 C.ar    1  UNL1       -0.0614
     27 C          -2.9892   -7.4201    3.5092 C.ar    1  UNL1       -0.0569
     28 C          -3.7582   -7.4388    2.3284 C.ar    1  UNL1       -0.0264
     29 C          -4.0549   -8.8026    1.7629 C.3     1  UNL1       -0.0377
     30 C          -3.7397   -3.0919   -1.3098 C.ar    1  UNL1        0.1310
     31 O          -4.8599   -2.9073   -2.0752 O.3     1  UNL1       -0.5059
     32 C          -2.9107   -1.9895   -1.1782 C.ar    1  UNL1        0.0228
     33 C          -1.6901   -2.0998   -0.5224 C.ar    1  UNL1        0.1325
     34 O          -0.9601   -0.9592   -0.3553 O.3     1  UNL1       -0.5059
     35 H           1.4639   -6.2614    3.4486 H       1  UNL1        0.0278
     36 H           1.2303   -5.8004    1.7678 H       1  UNL1        0.0278
     37 H           0.8369   -4.6635    3.1073 H       1  UNL1        0.0278
     38 H           3.6469   -6.4548    4.0084 H       1  UNL1        0.0620
     39 H           5.9824   -5.7078    4.0394 H       1  UNL1        0.0618
     40 H           6.6600   -3.7077    2.7392 H       1  UNL1        0.0618
     41 H           5.0053   -2.4971    1.3942 H       1  UNL1        0.0621
     42 H           2.6991   -3.2781   -0.0511 H       1  UNL1        0.0514
     43 H           2.7424   -1.9000    1.0287 H       1  UNL1        0.0514
     44 H           1.0159   -1.9440    2.9450 H       1  UNL1        0.0429
     45 H          -0.6123   -2.1787    2.2624 H       1  UNL1        0.0429
     46 H           0.5023   -0.9675    1.5581 H       1  UNL1        0.0429
     47 H          -1.7791   -5.4302    0.1847 H       1  UNL1        0.0634
     48 H          -4.1898   -4.0617    2.0392 H       1  UNL1        0.0638
     49 H          -2.8856   -4.0878    4.1211 H       1  UNL1        0.0618
     50 H          -2.0479   -6.2346    5.0421 H       1  UNL1        0.0618
     51 H          -2.6397   -8.3549    3.9414 H       1  UNL1        0.0621
     52 H          -4.4548   -9.4453    2.5562 H       1  UNL1        0.0278
     53 H          -3.1404   -9.2558    1.3684 H       1  UNL1        0.0278
     54 H          -4.7921   -8.8107    0.9623 H       1  UNL1        0.0278
     55 H          -5.2244   -3.7943   -2.2991 H       1  UNL1        0.2922
     56 H          -3.2281   -1.0448   -1.6265 H       1  UNL1        0.0691
     57 H          -1.5849   -0.2072   -0.3720 H       1  UNL1        0.2922
@<TRIPOS>BOND
     1     1     2    1
     2     2     3   ar
     3     3     4   ar
     4     4     5   ar
     5     5     6   ar
     6     6     7   ar
     7     2     7   ar
     8     7     8    1
     9     8     9    1
    10     9    10    1
    11     9    11   am
    12    11    12    2
    13    11    13    1
    14    13    14   ar
    15    14    15   ar
    16    15    16    1
    17    16    17   ar
    18    17    18   ar
    19    18    19    1
    20    18    20   ar
    21    20    21    2
    22    20    22   ar
    23    16    22   ar
    24    22    23    1
    25    23    24   ar
    26    24    25   ar
    27    25    26   ar
    28    26    27   ar
    29    27    28   ar
    30    23    28   ar
    31    28    29    1
    32    15    30   ar
    33    30    31    1
    34    30    32   ar
    35    32    33   ar
    36    13    33   ar
    37    33    34    1
    38     1    35    1
    39     1    36    1
    40     1    37    1
    41     3    38    1
    42     4    39    1
    43     5    40    1
    44     6    41    1
    45     8    42    1
    46     8    43    1
    47    10    44    1
    48    10    45    1
    49    10    46    1
    50    14    47    1
    51    24    48    1
    52    25    49    1
    53    26    50    1
    54    27    51    1
    55    29    52    1
    56    29    53    1
    57    29    54    1
    58    31    55    1
    59    32    56    1
    60    34    57    1
@<TRIPOS>MOLECULE
*****
 63 67 0 0 0
SMALL
GASTEIGER

@<TRIPOS>ATOM
      1 C           2.1181   -0.3831    2.1260 C.3     1  UNL1       -0.0377
      2 C           3.0540   -0.1303    0.9772 C.ar    1  UNL1       -0.0264
      3 C           3.7693    1.0781    0.9239 C.ar    1  UNL1       -0.0569
      4 C           4.7788    1.2705   -0.0202 C.ar    1  UNL1       -0.0614
      5 C           5.1443    0.2387   -0.8775 C.ar    1  UNL1       -0.0598
      6 C           4.4177   -0.9520   -0.8632 C.ar    1  UNL1       -0.0374
      7 C           3.3258   -1.1129    0.0085 C.ar    1  UNL1        0.0558
      8 N           2.5053   -2.2326   -0.1852 N.ar    1  UNL1       -0.2434
      9 C           2.9853   -3.5285   -0.1497 C.ar    1  UNL1        0.3489
     10 O           4.1153   -3.9409    0.0670 O.2     1  UNL1       -0.2446
     11 N           1.8830   -4.3327   -0.4006 N.ar    1  UNL1       -0.2260
     12 H           1.8743   -5.3424   -0.4374 H       1  UNL1        0.1937
     13 N           0.7839   -3.5796   -0.6549 N.ar    1  UNL1       -0.1507
     14 C           1.1794   -2.3333   -0.5409 C.ar    1  UNL1        0.1727
     15 C           0.1957   -1.2316   -0.8034 C.ar    1  UNL1        0.0619
     16 C          -1.1581   -1.6232   -0.7401 C.ar    1  UNL1       -0.0319
     17 C          -2.2239   -0.7411   -0.9520 C.ar    1  UNL1        0.0791
     18 C          -3.6267   -1.2394   -1.1148 C.2     1  UNL1        0.2502
     19 O          -4.3495   -0.5855   -1.8710 O.2     1  UNL1       -0.2699
     20 N          -4.0687   -2.4095   -0.4871 N.am    1  UNL1       -0.2961
     21 C          -5.2973   -3.0262   -0.9738 C.3     1  UNL1        0.0038
     22 C          -3.6040   -2.8196    0.8405 C.3     1  UNL1        0.0403
     23 C          -2.7947   -4.1075    0.9327 C.ar    1  UNL1       -0.0224
     24 C          -2.6720   -4.9424   -0.2042 C.ar    1  UNL1       -0.0565
     25 C          -2.0651   -6.1931   -0.1379 C.ar    1  UNL1       -0.0614
     26 C          -1.5503   -6.6361    1.0665 C.ar    1  UNL1       -0.0612
     27 C          -1.5922   -5.8020    2.1863 C.ar    1  UNL1       -0.0537
     28 C          -2.1991   -4.5230    2.1602 C.ar    1  UNL1       -0.0118
     29 C          -2.2275   -3.7214    3.4170 C.ar    1  UNL1        0.0005
     30 C          -2.4907   -4.3160    4.6607 C.ar    1  UNL1       -0.0511
     31 C          -2.6061   -3.5457    5.8193 C.ar    1  UNL1       -0.0430
     32 C          -2.4716   -2.1754    5.7132 C.ar    1  UNL1        0.0276
     33 N          -2.1444   -1.5557    4.5653 N.ar    1  UNL1       -0.2627
     34 C          -1.9903   -2.3453    3.4716 C.ar    1  UNL1        0.0353
     35 C          -1.9172    0.5984   -1.2025 C.ar    1  UNL1        0.1325
     36 O          -2.8717    1.5559   -1.4197 O.3     1  UNL1       -0.5059
     37 C          -0.5899    1.0128   -1.3157 C.ar    1  UNL1        0.0228
     38 C           0.4523    0.0845   -1.1870 C.ar    1  UNL1        0.1310
     39 O           1.6962    0.4716   -1.5802 O.3     1  UNL1       -0.5059
     40 H           2.0630    0.4844    2.7921 H       1  UNL1        0.0278
     41 H           2.4980   -1.2216    2.7220 H       1  UNL1        0.0278
     42 H           1.1031   -0.6093    1.7957 H       1  UNL1        0.0278
     43 H           3.5431    1.8793    1.6232 H       1  UNL1        0.0621
     44 H           5.3101    2.2173   -0.0651 H       1  UNL1        0.0618
     45 H           5.9512    0.3641   -1.5862 H       1  UNL1        0.0618
     46 H           4.6775   -1.7408   -1.5653 H       1  UNL1        0.0638
     47 H          -1.3696   -2.6721   -0.5939 H       1  UNL1        0.0634
     48 H          -5.9998   -2.2747   -1.3422 H       1  UNL1        0.0429
     49 H          -5.7790   -3.6122   -0.1861 H       1  UNL1        0.0429
     50 H          -5.0393   -3.6921   -1.8032 H       1  UNL1        0.0429
     51 H          -4.4851   -2.9122    1.4870 H       1  UNL1        0.0514
     52 H          -3.0317   -1.9782    1.2172 H       1  UNL1        0.0514
     53 H          -3.0408   -4.6221   -1.1756 H       1  UNL1        0.0621
     54 H          -2.0021   -6.8156   -1.0273 H       1  UNL1        0.0618
     55 H          -1.1055   -7.6251    1.1375 H       1  UNL1        0.0618
     56 H          -1.1382   -6.1765    3.1022 H       1  UNL1        0.0624
     57 H          -2.6187   -5.3924    4.7448 H       1  UNL1        0.0625
     58 H          -2.8112   -4.0086    6.7777 H       1  UNL1        0.0633
     59 H          -2.6149   -1.5258    6.5717 H       1  UNL1        0.0829
     60 H          -1.6425   -1.7907    2.6059 H       1  UNL1        0.0836
     61 H          -3.7201    1.0940   -1.6065 H       1  UNL1        0.2922
     62 H          -0.3900    2.0459   -1.5879 H       1  UNL1        0.0691
     63 H           1.7508    1.4404   -1.6309 H       1  UNL1        0.2922
@<TRIPOS>BOND
     1     1     2    1
     2     2     3   ar
     3     3     4   ar
     4     4     5   ar
     5     5     6   ar
     6     6     7   ar
     7     2     7   ar
     8     7     8    1
     9     8     9   ar
    10     9    10    2
    11     9    11   ar
    12    11    12    1
    13    11    13   ar
    14    13    14   ar
    15     8    14   ar
    16    14    15    1
    17    15    16   ar
    18    16    17   ar
    19    17    18    1
    20    18    19    2
    21    18    20   am
    22    20    21    1
    23    20    22    1
    24    22    23    1
    25    23    24   ar
    26    24    25   ar
    27    25    26   ar
    28    26    27   ar
    29    27    28   ar
    30    23    28   ar
    31    28    29    1
    32    29    30   ar
    33    30    31   ar
    34    31    32   ar
    35    32    33   ar
    36    33    34   ar
    37    29    34   ar
    38    17    35   ar
    39    35    36    1
    40    35    37   ar
    41    37    38   ar
    42    15    38   ar
    43    38    39    1
    44     1    40    1
    45     1    41    1
    46     1    42    1
    47     3    43    1
    48     4    44    1
    49     5    45    1
    50     6    46    1
    51    16    47    1
    52    21    48    1
    53    21    49    1
    54    21    50    1
    55    22    51    1
    56    22    52    1
    57    24    53    1
    58    25    54    1
    59    26    55    1
    60    27    56    1
    61    30    57    1
    62    31    58    1
    63    32    59    1
    64    34    60    1
    65    36    61    1
    66    37    62    1
    67    39    63    1
@<TRIPOS>MOLECULE
*****
 58 61 0 0 0
SMALL
GASTEIGER

@<TRIPOS>ATOM
      1 C           3.1062    1.2619    8.1718 C.3     1  UNL1        0.0788
      2 O           3.4336    0.0335    8.8182 O.3     1  UNL1       -0.4951
      3 C           4.1245   -0.8563    8.0404 C.ar    1  UNL1        0.1201
      4 C           5.0382   -1.6711    8.7091 C.ar    1  UNL1       -0.0196
      5 C           5.8397   -2.5704    7.9974 C.ar    1  UNL1       -0.0536
      6 C           5.7212   -2.6824    6.6056 C.ar    1  UNL1       -0.0299
      7 C           6.6686   -3.5407    5.7950 C.3     1  UNL1        0.0397
      8 N           6.3237   -4.9629    5.7712 N.am    1  UNL1       -0.2962
      9 C           6.9735   -5.7871    6.7664 C.3     1  UNL1        0.0038
     10 C           5.5417   -5.4043    4.6972 C.2     1  UNL1        0.2502
     11 O           5.1283   -4.5897    3.8696 O.2     1  UNL1       -0.2699
     12 C           5.2399   -6.8484    4.4223 C.ar    1  UNL1        0.0791
     13 C           6.1135   -7.9247    4.7073 C.ar    1  UNL1       -0.0319
     14 C           5.8614   -9.2125    4.2171 C.ar    1  UNL1        0.0619
     15 C           6.6066  -10.4125    4.6650 C.ar    1  UNL1        0.1727
     16 N           6.8784  -11.3648    3.8029 N.ar    1  UNL1       -0.1507
     17 N           7.5038  -12.3237    4.5405 N.ar    1  UNL1       -0.2260
     18 H           7.7123  -13.2440    4.1807 H       1  UNL1        0.1937
     19 C           7.5356  -11.9754    5.8848 C.ar    1  UNL1        0.3489
     20 O           7.8704  -12.7372    6.7755 O.2     1  UNL1       -0.2446
     21 N           7.0325  -10.6851    5.9470 N.ar    1  UNL1       -0.2434
     22 C           6.8340   -9.9907    7.1673 C.ar    1  UNL1        0.0558
     23 C           5.5668   -9.4736    7.4871 C.ar    1  UNL1       -0.0374
     24 C           5.3674   -8.7155    8.6478 C.ar    1  UNL1       -0.0598
     25 C           6.4389   -8.4224    9.4830 C.ar    1  UNL1       -0.0614
     26 C           7.6882   -8.9684    9.2105 C.ar    1  UNL1       -0.0569
     27 C           7.8927   -9.7916    8.0872 C.ar    1  UNL1       -0.0264
     28 C           9.2344  -10.4706    7.9879 C.3     1  UNL1       -0.0377
     29 C           4.8552   -9.3773    3.2560 C.ar    1  UNL1        0.1310
     30 O           4.7157  -10.5077    2.4994 O.3     1  UNL1       -0.5059
     31 C           3.9344   -8.3699    3.0213 C.ar    1  UNL1        0.0228
     32 C           4.0776   -7.1515    3.6831 C.ar    1  UNL1        0.1325
     33 O           3.0370   -6.2593    3.6129 O.3     1  UNL1       -0.5059
     34 C           4.7331   -1.9278    5.9580 C.ar    1  UNL1       -0.0536
     35 C           3.9468   -1.0139    6.6674 C.ar    1  UNL1       -0.0196
     36 H           2.6583    1.9253    8.9181 H       1  UNL1        0.0660
     37 H           2.3646    1.1172    7.3807 H       1  UNL1        0.0660
     38 H           4.0044    1.7543    7.7815 H       1  UNL1        0.0660
     39 H           5.1509   -1.5822    9.7866 H       1  UNL1        0.0654
     40 H           6.5739   -3.1589    8.5393 H       1  UNL1        0.0622
     41 H           7.6883   -3.4287    6.1845 H       1  UNL1        0.0514
     42 H           6.7173   -3.1499    4.7705 H       1  UNL1        0.0514
     43 H           7.1668   -5.2201    7.6788 H       1  UNL1        0.0429
     44 H           7.9341   -6.1166    6.3570 H       1  UNL1        0.0429
     45 H           6.3477   -6.6377    7.0184 H       1  UNL1        0.0429
     46 H           7.0331   -7.7655    5.2576 H       1  UNL1        0.0634
     47 H           4.7008   -9.6969    6.8674 H       1  UNL1        0.0638
     48 H           4.3751   -8.3469    8.8982 H       1  UNL1        0.0618
     49 H           6.2993   -7.7976   10.3621 H       1  UNL1        0.0618
     50 H           8.5104   -8.7651    9.8957 H       1  UNL1        0.0621
     51 H          10.0079   -9.9060    8.5191 H       1  UNL1        0.0278
     52 H           9.5736  -10.5746    6.9548 H       1  UNL1        0.0278
     53 H           9.1715  -11.4563    8.4629 H       1  UNL1        0.0278
     54 H           5.5411  -11.0361    2.5838 H       1  UNL1        0.2922
     55 H           3.1235   -8.5409    2.3205 H       1  UNL1        0.0691
     56 H           2.2637   -6.6819    3.2033 H       1  UNL1        0.2922
     57 H           4.5803   -2.0375    4.8848 H       1  UNL1        0.0622
     58 H           3.2020   -0.4462    6.1208 H       1  UNL1        0.0654
@<TRIPOS>BOND
     1     1     2    1
     2     2     3    1
     3     3     4   ar
     4     4     5   ar
     5     5     6   ar
     6     6     7    1
     7     7     8    1
     8     8     9    1
     9     8    10   am
    10    10    11    2
    11    10    12    1
    12    12    13   ar
    13    13    14   ar
    14    14    15    1
    15    15    16   ar
    16    16    17   ar
    17    17    18    1
    18    17    19   ar
    19    19    20    2
    20    19    21   ar
    21    15    21   ar
    22    21    22    1
    23    22    23   ar
    24    23    24   ar
    25    24    25   ar
    26    25    26   ar
    27    26    27   ar
    28    22    27   ar
    29    27    28    1
    30    14    29   ar
    31    29    30    1
    32    29    31   ar
    33    31    32   ar
    34    12    32   ar
    35    32    33    1
    36     6    34   ar
    37    34    35   ar
    38     3    35   ar
    39     1    36    1
    40     1    37    1
    41     1    38    1
    42     4    39    1
    43     5    40    1
    44     7    41    1
    45     7    42    1
    46     9    43    1
    47     9    44    1
    48     9    45    1
    49    13    46    1
    50    23    47    1
    51    24    48    1
    52    25    49    1
    53    26    50    1
    54    28    51    1
    55    28    52    1
    56    28    53    1
    57    30    54    1
    58    31    55    1
    59    33    56    1
    60    34    57    1
    61    35    58    1
@<TRIPOS>MOLECULE
*****
 60 63 0 0 0
SMALL
GASTEIGER

@<TRIPOS>ATOM
      1 C           2.0864    5.7624    4.8826 C.3     1  UNL1       -0.0649
      2 C           1.9145    4.4816    5.6770 C.3     1  UNL1       -0.0504
      3 C           2.1557    3.2408    4.8132 C.3     1  UNL1       -0.0083
      4 C           1.9635    1.9765    5.5900 C.ar    1  UNL1        0.0705
      5 N           0.7599    1.7314    6.1325 N.ar    1  UNL1       -0.1777
      6 N           0.9096    0.5332    6.7027 N.ar    1  UNL1       -0.2766
      7 H           0.1076    0.1239    7.1747 H       1  UNL1        0.1889
      8 C           2.1430   -0.0230    6.5216 C.ar    1  UNL1        0.0695
      9 C           2.6393   -1.2776    6.8611 C.ar    1  UNL1        0.0060
     10 C           3.9335   -1.5877    6.4161 C.ar    1  UNL1        0.1310
     11 O           4.2447   -2.9139    6.4677 O.3     1  UNL1       -0.5059
     12 C           4.7791   -0.6458    5.8172 C.ar    1  UNL1        0.0793
     13 C           6.2044   -0.8581    5.3713 C.2     1  UNL1        0.2541
     14 O           6.5241   -0.3144    4.3060 O.2     1  UNL1       -0.2695
     15 N           7.1770   -1.5257    6.1404 N.am    1  UNL1       -0.2704
     16 C           8.5610   -1.5441    5.6774 C.3     1  UNL1        0.0086
     17 C           6.9476   -2.2228    7.3351 C.ar    1  UNL1        0.0363
     18 C           6.6749   -3.5838    7.2638 C.ar    1  UNL1       -0.0400
     19 C           6.3339   -4.2844    8.4156 C.ar    1  UNL1       -0.0565
     20 C           6.3733   -3.6755    9.6806 C.ar    1  UNL1       -0.0441
     21 C           5.9007   -4.4273   10.9292 C.3     1  UNL1       -0.0135
     22 C           5.9303   -5.9657   10.8005 C.3     1  UNL1       -0.0333
     23 C           7.3730   -6.4839   10.7943 C.3     1  UNL1       -0.0009
     24 N           8.1225   -6.1123   12.0010 N.3     1  UNL1       -0.3053
     25 C           7.7013   -6.8915   13.1628 C.3     1  UNL1       -0.0128
     26 C           8.0675   -4.6635   12.2439 C.3     1  UNL1       -0.0009
     27 C           6.6509   -4.0779   12.2303 C.3     1  UNL1       -0.0333
     28 C           6.7810   -2.3284    9.7366 C.ar    1  UNL1       -0.0565
     29 C           7.0666   -1.6033    8.5725 C.ar    1  UNL1       -0.0400
     30 C           4.2252    0.6203    5.4997 C.ar    1  UNL1       -0.0351
     31 C           2.8828    0.9202    5.8221 C.ar    1  UNL1        0.0236
     32 H           1.9084    6.6285    5.5272 H       1  UNL1        0.0230
     33 H           1.3754    5.8058    4.0513 H       1  UNL1        0.0230
     34 H           3.0994    5.8389    4.4770 H       1  UNL1        0.0230
     35 H           0.8995    4.4598    6.0937 H       1  UNL1        0.0266
     36 H           2.6053    4.4799    6.5280 H       1  UNL1        0.0266
     37 H           3.1680    3.2724    4.3929 H       1  UNL1        0.0329
     38 H           1.4644    3.2410    3.9629 H       1  UNL1        0.0329
     39 H           2.0071   -2.0150    7.3438 H       1  UNL1        0.0675
     40 H           3.9134   -3.2627    7.3132 H       1  UNL1        0.2922
     41 H           8.5997   -1.6798    4.5928 H       1  UNL1        0.0433
     42 H           9.1283   -2.3541    6.1508 H       1  UNL1        0.0433
     43 H           9.0258   -0.5870    5.9356 H       1  UNL1        0.0433
     44 H           6.6108   -4.0758    6.2952 H       1  UNL1        0.0636
     45 H           6.0103   -5.3100    8.2732 H       1  UNL1        0.0621
     46 H           4.8508   -4.1294   11.0606 H       1  UNL1        0.0350
     47 H           5.3939   -6.3206    9.9152 H       1  UNL1        0.0283
     48 H           5.3817   -6.4057   11.6424 H       1  UNL1        0.0283
     49 H           7.9113   -6.0928    9.9221 H       1  UNL1        0.0427
     50 H           7.3750   -7.5727   10.6632 H       1  UNL1        0.0427
     51 H           7.7988   -7.9616   12.9568 H       1  UNL1        0.0391
     52 H           6.6644   -6.6987   13.4603 H       1  UNL1        0.0391
     53 H           8.3453   -6.6755   14.0197 H       1  UNL1        0.0391
     54 H           8.6728   -4.1603   11.4795 H       1  UNL1        0.0427
     55 H           8.5516   -4.4246   13.1989 H       1  UNL1        0.0427
     56 H           6.6922   -2.9991   12.4079 H       1  UNL1        0.0283
     57 H           6.0855   -4.4832   13.0801 H       1  UNL1        0.0283
     58 H           6.8678   -1.8032   10.6837 H       1  UNL1        0.0621
     59 H           7.3734   -0.5634    8.6411 H       1  UNL1        0.0636
     60 H           4.8215    1.3510    4.9570 H       1  UNL1        0.0633
@<TRIPOS>BOND
     1     1     2    1
     2     2     3    1
     3     3     4    1
     4     4     5   ar
     5     5     6   ar
     6     6     7    1
     7     6     8   ar
     8     8     9   ar
     9     9    10   ar
    10    10    11    1
    11    10    12   ar
    12    12    13    1
    13    13    14    2
    14    13    15   am
    15    15    16    1
    16    15    17    1
    17    17    18   ar
    18    18    19   ar
    19    19    20   ar
    20    20    21    1
    21    21    22    1
    22    22    23    1
    23    23    24    1
    24    24    25    1
    25    24    26    1
    26    26    27    1
    27    21    27    1
    28    20    28   ar
    29    28    29   ar
    30    17    29   ar
    31    12    30   ar
    32    30    31   ar
    33     8    31   ar
    34     4    31   ar
    35     1    32    1
    36     1    33    1
    37     1    34    1
    38     2    35    1
    39     2    36    1
    40     3    37    1
    41     3    38    1
    42     9    39    1
    43    11    40    1
    44    16    41    1
    45    16    42    1
    46    16    43    1
    47    18    44    1
    48    19    45    1
    49    21    46    1
    50    22    47    1
    51    22    48    1
    52    23    49    1
    53    23    50    1
    54    25    51    1
    55    25    52    1
    56    25    53    1
    57    26    54    1
    58    26    55    1
    59    27    56    1
    60    27    57    1
    61    28    58    1
    62    29    59    1
    63    30    60    1
@<TRIPOS>MOLECULE
*****
 55 58 0 0 0
SMALL
GASTEIGER

@<TRIPOS>ATOM
      1 C           1.2267   -1.6885   -3.5271 C.3     1  UNL1       -0.0623
      2 C           2.7293   -1.7211   -3.2868 C.3     1  UNL1       -0.0188
      3 C           3.0654   -1.5350   -1.8093 C.3     1  UNL1        0.1446
      4 F           2.4955   -2.5626   -1.1107 F       1  UNL1       -0.2388
      5 C           4.5450   -1.4798   -1.5583 C.ar    1  UNL1        0.1042
      6 N           5.1917   -0.3028   -1.6177 N.ar    1  UNL1       -0.1748
      7 N           6.4486   -0.6117   -1.2622 N.ar    1  UNL1       -0.2765
      8 H           7.1230    0.1462   -1.2016 H       1  UNL1        0.1889
      9 C           6.6511   -1.9343   -0.9825 C.ar    1  UNL1        0.0696
     10 C           7.7691   -2.6231   -0.5135 C.ar    1  UNL1        0.0060
     11 C           7.6301   -4.0007   -0.2655 C.ar    1  UNL1        0.1310
     12 O           8.6838   -4.6182    0.3526 O.3     1  UNL1       -0.5059
     13 C           6.4495   -4.6952   -0.5628 C.ar    1  UNL1        0.0793
     14 C           6.1591   -6.1496   -0.3044 C.2     1  UNL1        0.2541
     15 O           5.0183   -6.3502    0.1323 O.2     1  UNL1       -0.2695
     16 N           7.0697   -7.2071   -0.5590 N.am    1  UNL1       -0.2704
     17 C           8.4730   -7.0189   -0.9096 C.3     1  UNL1        0.0086
     18 C           6.6480   -8.5800   -0.3832 C.ar    1  UNL1        0.0364
     19 C           5.3473   -8.9846   -0.6848 C.ar    1  UNL1       -0.0385
     20 C           4.9265  -10.3081   -0.4803 C.ar    1  UNL1       -0.0389
     21 C           5.7735  -11.2922    0.0423 C.ar    1  UNL1        0.0299
     22 N           5.3177  -12.5547    0.3572 N.pl3   1  UNL1       -0.3255
     23 C           6.1418  -13.7693    0.2635 C.3     1  UNL1        0.0357
     24 C           5.9300  -14.6333    1.5187 C.3     1  UNL1        0.0634
     25 O           4.5396  -14.9385    1.7272 O.3     1  UNL1       -0.3767
     26 C           3.7846  -13.7246    1.8763 C.3     1  UNL1        0.0634
     27 C           3.8964  -12.8286    0.6310 C.3     1  UNL1        0.0357
     28 C           7.0945  -10.8937    0.2810 C.ar    1  UNL1       -0.0389
     29 C           7.5288   -9.5702    0.0690 C.ar    1  UNL1       -0.0385
     30 C           5.3368   -3.9427   -1.0294 C.ar    1  UNL1       -0.0350
     31 C           5.4265   -2.5462   -1.2156 C.ar    1  UNL1        0.0265
     32 H           1.0108   -1.8315   -4.5906 H       1  UNL1        0.0231
     33 H           0.8003   -0.7278   -3.2206 H       1  UNL1        0.0231
     34 H           0.7203   -2.4823   -2.9688 H       1  UNL1        0.0231
     35 H           3.2066   -0.9381   -3.8878 H       1  UNL1        0.0294
     36 H           3.1185   -2.6849   -3.6352 H       1  UNL1        0.0294
     37 H           2.6039   -0.6124   -1.4348 H       1  UNL1        0.0718
     38 H           8.6889   -2.0898   -0.2946 H       1  UNL1        0.0675
     39 H           9.4392   -4.0087    0.3983 H       1  UNL1        0.2922
     40 H           8.6053   -6.1376   -1.5382 H       1  UNL1        0.0433
     41 H           8.8515   -7.8676   -1.4891 H       1  UNL1        0.0433
     42 H           9.0582   -6.9386    0.0126 H       1  UNL1        0.0433
     43 H           4.6272   -8.2865   -1.1028 H       1  UNL1        0.0637
     44 H           3.9028  -10.5472   -0.7541 H       1  UNL1        0.0637
     45 H           7.2087  -13.5675    0.1360 H       1  UNL1        0.0486
     46 H           5.8142  -14.3337   -0.6191 H       1  UNL1        0.0486
     47 H           6.3210  -14.1304    2.4114 H       1  UNL1        0.0575
     48 H           6.4609  -15.5842    1.4110 H       1  UNL1        0.0575
     49 H           4.1379  -13.1937    2.7693 H       1  UNL1        0.0575
     50 H           2.7386  -13.9989    2.0448 H       1  UNL1        0.0575
     51 H           3.3168  -11.9206    0.8256 H       1  UNL1        0.0486
     52 H           3.4614  -13.3380   -0.2371 H       1  UNL1        0.0486
     53 H           7.8106  -11.5907    0.7069 H       1  UNL1        0.0637
     54 H           8.5538   -9.3310    0.3373 H       1  UNL1        0.0637
     55 H           4.3777   -4.4337   -1.1953 H       1  UNL1        0.0633
@<TRIPOS>BOND
     1     1     2    1
     2     2     3    1
     3     3     4    1
     4     3     5    1
     5     5     6   ar
     6     6     7   ar
     7     7     8    1
     8     7     9   ar
     9     9    10   ar
    10    10    11   ar
    11    11    12    1
    12    11    13   ar
    13    13    14    1
    14    14    15    2
    15    14    16   am
    16    16    17    1
    17    16    18    1
    18    18    19   ar
    19    19    20   ar
    20    20    21   ar
    21    21    22    1
    22    22    23    1
    23    23    24    1
    24    24    25    1
    25    25    26    1
    26    26    27    1
    27    22    27    1
    28    21    28   ar
    29    28    29   ar
    30    18    29   ar
    31    13    30   ar
    32    30    31   ar
    33     9    31   ar
    34     5    31   ar
    35     1    32    1
    36     1    33    1
    37     1    34    1
    38     2    35    1
    39     2    36    1
    40     3    37    1
    41    10    38    1
    42    12    39    1
    43    17    40    1
    44    17    41    1
    45    17    42    1
    46    19    43    1
    47    20    44    1
    48    23    45    1
    49    23    46    1
    50    24    47    1
    51    24    48    1
    52    26    49    1
    53    26    50    1
    54    27    51    1
    55    27    52    1
    56    28    53    1
    57    29    54    1
    58    30    55    1
@<TRIPOS>MOLECULE
*****
 58 61 0 0 0
SMALL
GASTEIGER

@<TRIPOS>ATOM
      1 C           3.9134   -1.8505   -3.3925 C.3     1  UNL1       -0.0647
      2 C           3.0828   -2.3180   -2.2036 C.3     1  UNL1       -0.0478
      3 C           3.3153   -1.4810   -0.9332 C.3     1  UNL1        0.0006
      4 C           2.3843   -1.9453    0.1932 C.3     1  UNL1       -0.0569
      5 C           4.7567   -1.4714   -0.4848 C.ar    1  UNL1        0.0733
      6 N           5.3930   -0.2915   -0.3965 N.ar    1  UNL1       -0.1775
      7 N           6.6166   -0.6165    0.0458 N.ar    1  UNL1       -0.2766
      8 H           7.2826    0.1348    0.1997 H       1  UNL1        0.1889
      9 C           6.8032   -1.9553    0.2531 C.ar    1  UNL1        0.0695
     10 C           7.8926   -2.6755    0.7490 C.ar    1  UNL1        0.0060
     11 C           7.7421   -4.0687    0.8952 C.ar    1  UNL1        0.1310
     12 O           8.7610   -4.7326    1.5224 O.3     1  UNL1       -0.5059
     13 C           6.5828   -4.7361    0.4803 C.ar    1  UNL1        0.0793
     14 C           6.2699   -6.1982    0.6354 C.2     1  UNL1        0.2541
     15 O           5.1112   -6.4111    1.0164 O.2     1  UNL1       -0.2695
     16 N           7.1806   -7.2437    0.3419 N.am    1  UNL1       -0.2704
     17 C           8.5967   -7.0394    0.0593 C.3     1  UNL1        0.0086
     18 C           6.7431   -8.6215    0.4058 C.ar    1  UNL1        0.0364
     19 C           5.4484   -8.9909    0.0392 C.ar    1  UNL1       -0.0385
     20 C           5.0094  -10.3200    0.1425 C.ar    1  UNL1       -0.0389
     21 C           5.8334  -11.3458    0.6191 C.ar    1  UNL1        0.0299
     22 N           5.3565  -12.6211    0.8291 N.pl3   1  UNL1       -0.3255
     23 C           6.1673  -13.8378    0.6784 C.3     1  UNL1        0.0357
     24 C           5.9621  -14.7528    1.8974 C.3     1  UNL1        0.0634
     25 O           4.5708  -15.0491    2.1128 O.3     1  UNL1       -0.3767
     26 C           3.8343  -13.8337    2.3273 C.3     1  UNL1        0.0634
     27 C           3.9374  -12.8853    1.1205 C.3     1  UNL1        0.0357
     28 C           7.1518  -10.9812    0.9159 C.ar    1  UNL1       -0.0389
     29 C           7.6027   -9.6509    0.8094 C.ar    1  UNL1       -0.0385
     30 C           5.5043   -3.9558   -0.0145 C.ar    1  UNL1       -0.0351
     31 C           5.6038   -2.5539   -0.1118 C.ar    1  UNL1        0.0239
     32 H           3.6961   -2.4706   -4.2675 H       1  UNL1        0.0230
     33 H           4.9864   -1.9280   -3.1921 H       1  UNL1        0.0230
     34 H           3.6842   -0.8108   -3.6463 H       1  UNL1        0.0230
     35 H           3.2929   -3.3759   -2.0147 H       1  UNL1        0.0269
     36 H           2.0227   -2.2561   -2.4816 H       1  UNL1        0.0269
     37 H           3.0252   -0.4470   -1.1692 H       1  UNL1        0.0362
     38 H           2.5874   -2.9798    0.4903 H       1  UNL1        0.0236
     39 H           1.3362   -1.8871   -0.1206 H       1  UNL1        0.0236
     40 H           2.5005   -1.3155    1.0829 H       1  UNL1        0.0236
     41 H           8.7977   -2.1599    1.0583 H       1  UNL1        0.0675
     42 H           9.5136   -4.1306    1.6466 H       1  UNL1        0.2922
     43 H           8.7553   -6.1155   -0.4977 H       1  UNL1        0.0433
     44 H           8.9948   -7.8463   -0.5644 H       1  UNL1        0.0433
     45 H           9.1460   -7.0267    1.0069 H       1  UNL1        0.0433
     46 H           4.7482   -8.2590   -0.3536 H       1  UNL1        0.0637
     47 H           3.9918  -10.5320   -0.1737 H       1  UNL1        0.0637
     48 H           7.2342  -13.6393    0.5430 H       1  UNL1        0.0486
     49 H           5.8229  -14.3613   -0.2224 H       1  UNL1        0.0486
     50 H           6.3724  -14.2954    2.8057 H       1  UNL1        0.0575
     51 H           6.4785  -15.7048    1.7395 H       1  UNL1        0.0575
     52 H           4.2083  -13.3477    3.2373 H       1  UNL1        0.0575
     53 H           2.7876  -14.1026    2.5005 H       1  UNL1        0.0575
     54 H           3.3751  -11.9776    1.3629 H       1  UNL1        0.0486
     55 H           3.4790  -13.3501    0.2398 H       1  UNL1        0.0486
     56 H           7.8502  -11.7157    1.3068 H       1  UNL1        0.0637
     57 H           8.6228   -9.4431    1.1183 H       1  UNL1        0.0637
     58 H           4.5668   -4.4402   -0.2806 H       1  UNL1        0.0633
@<TRIPOS>BOND
     1     1     2    1
     2     2     3    1
     3     3     4    1
     4     3     5    1
     5     5     6   ar
     6     6     7   ar
     7     7     8    1
     8     7     9   ar
     9     9    10   ar
    10    10    11   ar
    11    11    12    1
    12    11    13   ar
    13    13    14    1
    14    14    15    2
    15    14    16   am
    16    16    17    1
    17    16    18    1
    18    18    19   ar
    19    19    20   ar
    20    20    21   ar
    21    21    22    1
    22    22    23    1
    23    23    24    1
    24    24    25    1
    25    25    26    1
    26    26    27    1
    27    22    27    1
    28    21    28   ar
    29    28    29   ar
    30    18    29   ar
    31    13    30   ar
    32    30    31   ar
    33     9    31   ar
    34     5    31   ar
    35     1    32    1
    36     1    33    1
    37     1    34    1
    38     2    35    1
    39     2    36    1
    40     3    37    1
    41     4    38    1
    42     4    39    1
    43     4    40    1
    44    10    41    1
    45    12    42    1
    46    17    43    1
    47    17    44    1
    48    17    45    1
    49    19    46    1
    50    20    47    1
    51    23    48    1
    52    23    49    1
    53    24    50    1
    54    24    51    1
    55    26    52    1
    56    26    53    1
    57    27    54    1
    58    27    55    1
    59    28    56    1
    60    29    57    1
    61    30    58    1
@<TRIPOS>MOLECULE
*****
 31 33 0 0 0
SMALL
GASTEIGER

@<TRIPOS>ATOM
      1 O           0.9689   -0.0433    0.5626 O.3     1  UNL1       -0.5056
      2 C           2.3268    0.0208    0.4185 C.ar    1  UNL1        0.1334
      3 C           2.9040    1.1362   -0.1849 C.ar    1  UNL1        0.0230
      4 C           4.2821    1.1588   -0.4182 C.ar    1  UNL1        0.1295
      5 O           4.8094    2.2660   -1.0322 O.3     1  UNL1       -0.5060
      6 C           5.1163    0.0840   -0.0493 C.ar    1  UNL1        0.0431
      7 C           6.5546    0.0424   -0.4119 C.ar    1  UNL1        0.0782
      8 C           7.4338    1.1138   -0.5094 C.ar    1  UNL1       -0.0158
      9 C           8.6961    0.5704   -0.7470 C.ar    1  UNL1        0.0504
     10 N           8.6747   -0.7555   -0.7639 N.ar    1  UNL1       -0.1742
     11 N           7.3495   -1.0872   -0.6889 N.ar    1  UNL1       -0.2292
     12 C           7.0132   -2.4610   -0.8362 C.ar    1  UNL1        0.1011
     13 C           7.9492   -3.4335   -0.4338 C.ar    1  UNL1       -0.0334
     14 C           7.6140   -4.7897   -0.4559 C.ar    1  UNL1       -0.0596
     15 C           6.3546   -5.1906   -0.8987 C.ar    1  UNL1       -0.0589
     16 C           5.4510   -4.2381   -1.3677 C.ar    1  UNL1       -0.0243
     17 C           5.7944   -2.8857   -1.3629 C.ar    1  UNL1        0.1487
     18 F           4.9277   -2.0225   -1.9131 F       1  UNL1       -0.2033
     19 C           4.5240   -0.9582    0.6877 C.ar    1  UNL1       -0.0324
     20 C           3.1362   -1.0193    0.8718 C.ar    1  UNL1        0.0556
     21 I           2.3353   -2.7428    1.7475 I       1  UNL1       -0.0400
     22 H           0.5520    0.6620    0.0410 H       1  UNL1        0.2922
     23 H           2.2795    1.9654   -0.4979 H       1  UNL1        0.0691
     24 H           4.1416    2.9696   -1.0619 H       1  UNL1        0.2922
     25 H           7.1930    2.1603   -0.3901 H       1  UNL1        0.0655
     26 H           9.6386    1.0843   -0.8808 H       1  UNL1        0.0848
     27 H           8.9296   -3.1409   -0.0608 H       1  UNL1        0.0640
     28 H           8.3325   -5.5312   -0.1132 H       1  UNL1        0.0618
     29 H           6.0857   -6.2429   -0.8932 H       1  UNL1        0.0618
     30 H           4.4789   -4.5407   -1.7440 H       1  UNL1        0.0647
     31 H           5.1383   -1.7647    1.0786 H       1  UNL1        0.0637
@<TRIPOS>BOND
     1     1     2    1
     2     2     3   ar
     3     3     4   ar
     4     4     5    1
     5     4     6   ar
     6     6     7    1
     7     7     8   ar
     8     8     9   ar
     9     9    10   ar
    10    10    11   ar
    11     7    11   ar
    12    11    12    1
    13    12    13   ar
    14    13    14   ar
    15    14    15   ar
    16    15    16   ar
    17    16    17   ar
    18    12    17   ar
    19    17    18    1
    20     6    19   ar
    21    19    20   ar
    22     2    20   ar
    23    20    21    1
    24     1    22    1
    25     3    23    1
    26     5    24    1
    27     8    25    1
    28     9    26    1
    29    13    27    1
    30    14    28    1
    31    15    29    1
    32    16    30    1
    33    19    31    1
@<TRIPOS>MOLECULE
*****
 40 42 0 0 0
SMALL
GASTEIGER

@<TRIPOS>ATOM
      1 C           3.8712    2.7505    5.4117 C.3     1  UNL1       -0.0611
      2 C           4.5061    2.4858    4.0612 C.3     1  UNL1       -0.0271
      3 C           3.5129    2.4846    2.9265 C.ar    1  UNL1       -0.0054
      4 C           3.1673    3.7003    2.3079 C.ar    1  UNL1       -0.0424
      5 C           2.4238    3.7337    1.1174 C.ar    1  UNL1        0.0446
      6 C           2.0941    5.0126    0.4549 C.ar    1  UNL1        0.1040
      7 N           0.9815    5.0566   -0.3003 N.ar    1  UNL1       -0.1729
      8 N           0.8164    6.3447   -0.5865 N.ar    1  UNL1       -0.2807
      9 H          -0.0311    6.6164   -1.0731 H       1  UNL1        0.1885
     10 C           1.8231    7.1541   -0.1496 C.ar    1  UNL1        0.0413
     11 C           1.7347    8.6175   -0.3868 C.3     1  UNL1       -0.0223
     12 C           2.7428    6.3109    0.4676 C.ar    1  UNL1        0.0316
     13 C           3.9992    6.7540    1.1028 C.ar    1  UNL1        0.0042
     14 C           4.0188    7.9530    1.8404 C.ar    1  UNL1       -0.0525
     15 C           5.1216    8.3176    2.6192 C.ar    1  UNL1       -0.0611
     16 C           6.2090    7.4613    2.7254 C.ar    1  UNL1       -0.0603
     17 C           6.2430    6.3011    1.9571 C.ar    1  UNL1       -0.0428
     18 C           5.1800    5.9843    1.0980 C.ar    1  UNL1        0.0488
     19 CL          5.4394    4.6490    0.0248 Cl      1  UNL1       -0.0829
     20 C           1.9767    2.5021    0.6011 C.ar    1  UNL1        0.1296
     21 O           1.2837    2.4064   -0.5853 O.3     1  UNL1       -0.5060
     22 C           2.1983    1.3036    1.2681 C.ar    1  UNL1        0.0222
     23 C           2.9496    1.3055    2.4404 C.ar    1  UNL1        0.1235
     24 O           3.1292    0.1447    3.1381 O.3     1  UNL1       -0.5064
     25 H           4.6473    2.8078    6.1814 H       1  UNL1        0.0233
     26 H           3.1779    1.9489    5.6842 H       1  UNL1        0.0233
     27 H           3.3196    3.6961    5.4141 H       1  UNL1        0.0233
     28 H           5.0539    1.5348    4.0840 H       1  UNL1        0.0312
     29 H           5.2694    3.2484    3.8581 H       1  UNL1        0.0312
     30 H           3.5183    4.6203    2.7652 H       1  UNL1        0.0629
     31 H           0.9990    8.8538   -1.1629 H       1  UNL1        0.0292
     32 H           2.6964    9.0340   -0.6973 H       1  UNL1        0.0292
     33 H           1.4051    9.1226    0.5275 H       1  UNL1        0.0292
     34 H           3.1643    8.6218    1.8477 H       1  UNL1        0.0624
     35 H           5.1112    9.2569    3.1672 H       1  UNL1        0.0618
     36 H           7.0361    7.7053    3.3872 H       1  UNL1        0.0618
     37 H           7.1058    5.6425    2.0267 H       1  UNL1        0.0632
     38 H           1.0944    3.3319   -0.8594 H       1  UNL1        0.2922
     39 H           1.7997    0.3839    0.8540 H       1  UNL1        0.0691
     40 H           2.4180   -0.4669    2.8813 H       1  UNL1        0.2921
@<TRIPOS>BOND
     1     1     2    1
     2     2     3    1
     3     3     4   ar
     4     4     5   ar
     5     5     6    1
     6     6     7   ar
     7     7     8   ar
     8     8     9    1
     9     8    10   ar
    10    10    11    1
    11    10    12   ar
    12     6    12   ar
    13    12    13    1
    14    13    14   ar
    15    14    15   ar
    16    15    16   ar
    17    16    17   ar
    18    17    18   ar
    19    13    18   ar
    20    18    19    1
    21     5    20   ar
    22    20    21    1
    23    20    22   ar
    24    22    23   ar
    25     3    23   ar
    26    23    24    1
    27     1    25    1
    28     1    26    1
    29     1    27    1
    30     2    28    1
    31     2    29    1
    32     4    30    1
    33    11    31    1
    34    11    32    1
    35    11    33    1
    36    14    34    1
    37    15    35    1
    38    16    36    1
    39    17    37    1
    40    21    38    1
    41    22    39    1
    42    24    40    1
@<TRIPOS>MOLECULE
*****
 46 49 0 0 0
SMALL
GASTEIGER

@<TRIPOS>ATOM
      1 C           1.9525    0.7860   -0.8879 C.3     1  UNL1       -0.0650
      2 C           2.6635   -0.5588   -0.9070 C.3     1  UNL1       -0.0518
      3 C           3.9165   -0.5586   -1.7877 C.3     1  UNL1       -0.0245
      4 C           4.9790    0.4213   -1.3468 C.ar    1  UNL1       -0.0051
      5 C           5.5751    0.2644   -0.0845 C.ar    1  UNL1       -0.0423
      6 C           6.6350    1.0816    0.3335 C.ar    1  UNL1        0.0446
      7 C           7.3381    0.7957    1.5914 C.ar    1  UNL1        0.1037
      8 N           7.8303    1.8145    2.3258 N.ar    1  UNL1       -0.1732
      9 N           8.3625    1.2217    3.4040 N.ar    1  UNL1       -0.2835
     10 H           8.7707    1.8097    4.1239 H       1  UNL1        0.1882
     11 C           8.3027   -0.1360    3.3695 C.ar    1  UNL1        0.0306
     12 C           7.6629   -0.4705    2.1929 C.ar    1  UNL1        0.0274
     13 C           7.4695   -1.8518    1.7544 C.ar    1  UNL1       -0.0107
     14 C           7.2138   -2.8784    2.6774 C.ar    1  UNL1       -0.0502
     15 C           6.9987   -4.1933    2.2461 C.ar    1  UNL1       -0.0157
     16 C           7.0126   -4.4919    0.8866 C.ar    1  UNL1        0.1621
     17 C           7.2896   -3.4861   -0.0392 C.ar    1  UNL1        0.1626
     18 C           7.5324   -2.1824    0.3928 C.ar    1  UNL1       -0.0085
     19 O           7.3237   -3.6970   -1.3934 O.3     1  UNL1       -0.4849
     20 C           7.4373   -5.0892   -1.6996 C.3     1  UNL1        0.1237
     21 C           6.4677   -5.9101   -0.8650 C.3     1  UNL1        0.1237
     22 O           6.7595   -5.7913    0.5328 O.3     1  UNL1       -0.4849
     23 C           7.0235    2.1396   -0.5015 C.ar    1  UNL1        0.1296
     24 O           8.0052    3.0298   -0.1445 O.3     1  UNL1       -0.5060
     25 C           6.4286    2.3316   -1.7461 C.ar    1  UNL1        0.0222
     26 C           5.4209    1.4647   -2.1664 C.ar    1  UNL1        0.1235
     27 O           4.8439    1.6357   -3.3932 O.3     1  UNL1       -0.5064
     28 H           1.0408    0.7205   -0.2866 H       1  UNL1        0.0230
     29 H           1.6731    1.0952   -1.8997 H       1  UNL1        0.0230
     30 H           2.5823    1.5671   -0.4500 H       1  UNL1        0.0230
     31 H           1.9713   -1.3196   -1.2874 H       1  UNL1        0.0266
     32 H           2.9118   -0.8504    0.1201 H       1  UNL1        0.0266
     33 H           3.6221   -0.3814   -2.8280 H       1  UNL1        0.0314
     34 H           4.3614   -1.5631   -1.7755 H       1  UNL1        0.0314
     35 H           5.2226   -0.5340    0.5652 H       1  UNL1        0.0629
     36 H           8.7340   -0.7319    4.1607 H       1  UNL1        0.0830
     37 H           7.1649   -2.6689    3.7431 H       1  UNL1        0.0625
     38 H           6.8009   -4.9782    2.9710 H       1  UNL1        0.0655
     39 H           7.7671   -1.4312   -0.3572 H       1  UNL1        0.0661
     40 H           8.4760   -5.3957   -1.5273 H       1  UNL1        0.0731
     41 H           7.2172   -5.2133   -2.7646 H       1  UNL1        0.0731
     42 H           6.5498   -6.9689   -1.1307 H       1  UNL1        0.0731
     43 H           5.4296   -5.5966   -1.0306 H       1  UNL1        0.0731
     44 H           8.1785    2.8701    0.8119 H       1  UNL1        0.2922
     45 H           6.7690    3.1502   -2.3712 H       1  UNL1        0.0691
     46 H           5.2359    2.4189   -3.8131 H       1  UNL1        0.2921
@<TRIPOS>BOND
     1     1     2    1
     2     2     3    1
     3     3     4    1
     4     4     5   ar
     5     5     6   ar
     6     6     7    1
     7     7     8   ar
     8     8     9   ar
     9     9    10    1
    10     9    11   ar
    11    11    12   ar
    12     7    12   ar
    13    12    13    1
    14    13    14   ar
    15    14    15   ar
    16    15    16   ar
    17    16    17   ar
    18    17    18   ar
    19    13    18   ar
    20    17    19    1
    21    19    20    1
    22    20    21    1
    23    21    22    1
    24    16    22    1
    25     6    23   ar
    26    23    24    1
    27    23    25   ar
    28    25    26   ar
    29     4    26   ar
    30    26    27    1
    31     1    28    1
    32     1    29    1
    33     1    30    1
    34     2    31    1
    35     2    32    1
    36     3    33    1
    37     3    34    1
    38     5    35    1
    39    11    36    1
    40    14    37    1
    41    15    38    1
    42    18    39    1
    43    20    40    1
    44    20    41    1
    45    21    42    1
    46    21    43    1
    47    24    44    1
    48    25    45    1
    49    27    46    1
@<TRIPOS>MOLECULE
*****
 34 36 0 0 0
SMALL
GASTEIGER

@<TRIPOS>ATOM
      1 C           1.9556   -0.3630    2.0226 C.3     1  UNL1       -0.0377
      2 C           2.9635   -0.0918    0.9405 C.ar    1  UNL1       -0.0264
      3 C           3.7085    1.0989    0.9970 C.ar    1  UNL1       -0.0569
      4 C           4.8274    1.2880    0.1838 C.ar    1  UNL1       -0.0614
      5 C           5.2503    0.2668   -0.6591 C.ar    1  UNL1       -0.0598
      6 C           4.5116   -0.9121   -0.7429 C.ar    1  UNL1       -0.0374
      7 C           3.3329   -1.0766    0.0053 C.ar    1  UNL1        0.0558
      8 N           2.5659   -2.2356   -0.2094 N.ar    1  UNL1       -0.2434
      9 C           3.0904   -3.5092   -0.1053 C.ar    1  UNL1        0.3489
     10 O           4.2229   -3.8683    0.1738 O.2     1  UNL1       -0.2446
     11 N           2.0329   -4.3655   -0.3786 N.ar    1  UNL1       -0.2260
     12 H           2.0721   -5.3728   -0.3997 H       1  UNL1        0.1937
     13 N           0.9266   -3.6659   -0.7343 N.ar    1  UNL1       -0.1507
     14 C           1.2631   -2.4045   -0.6336 C.ar    1  UNL1        0.1727
     15 C           0.3279   -1.3208   -1.0765 C.ar    1  UNL1        0.0612
     16 C           0.7941   -0.1306   -1.6581 C.ar    1  UNL1       -0.0441
     17 C          -0.0948    0.8090   -2.2027 C.ar    1  UNL1       -0.0193
     18 C          -1.4572    0.5436   -2.2072 C.ar    1  UNL1        0.1204
     19 O          -2.3575    1.4151   -2.7417 O.3     1  UNL1       -0.5066
     20 C          -1.9496   -0.6314   -1.6590 C.ar    1  UNL1        0.0220
     21 C          -1.0648   -1.5446   -1.0750 C.ar    1  UNL1        0.1310
     22 O          -1.6017   -2.6546   -0.4788 O.3     1  UNL1       -0.5059
     23 H           1.6849    0.5559    2.5526 H       1  UNL1        0.0278
     24 H           2.3977   -1.0496    2.7545 H       1  UNL1        0.0278
     25 H           1.0349   -0.8011    1.6379 H       1  UNL1        0.0278
     26 H           3.4413    1.8803    1.7064 H       1  UNL1        0.0621
     27 H           5.3939    2.2145    0.2419 H       1  UNL1        0.0618
     28 H           6.1537    0.3852   -1.2524 H       1  UNL1        0.0618
     29 H           4.8533   -1.6979   -1.4140 H       1  UNL1        0.0638
     30 H           1.8541    0.0841   -1.7408 H       1  UNL1        0.0627
     31 H           0.3007    1.7188   -2.6454 H       1  UNL1        0.0654
     32 H          -1.9170    2.2669   -2.8995 H       1  UNL1        0.2921
     33 H          -3.0186   -0.8171   -1.6880 H       1  UNL1        0.0691
     34 H          -2.5349   -2.7425   -0.7313 H       1  UNL1        0.2922
@<TRIPOS>BOND
     1     1     2    1
     2     2     3   ar
     3     3     4   ar
     4     4     5   ar
     5     5     6   ar
     6     6     7   ar
     7     2     7   ar
     8     7     8    1
     9     8     9   ar
    10     9    10    2
    11     9    11   ar
    12    11    12    1
    13    11    13   ar
    14    13    14   ar
    15     8    14   ar
    16    14    15    1
    17    15    16   ar
    18    16    17   ar
    19    17    18   ar
    20    18    19    1
    21    18    20   ar
    22    20    21   ar
    23    15    21   ar
    24    21    22    1
    25     1    23    1
    26     1    24    1
    27     1    25    1
    28     3    26    1
    29     4    27    1
    30     5    28    1
    31     6    29    1
    32    16    30    1
    33    17    31    1
    34    19    32    1
    35    20    33    1
    36    22    34    1
@<TRIPOS>MOLECULE
*****
 37 39 0 0 0
SMALL
GASTEIGER

@<TRIPOS>ATOM
      1 C           0.0579   -1.5595    2.3009 C.3     1  UNL1       -0.0612
      2 C           1.3035   -0.7823    1.8812 C.3     1  UNL1       -0.0286
      3 C           2.4133   -1.6814    1.3796 C.ar    1  UNL1       -0.0236
      4 C           3.5367   -1.8739    2.2113 C.ar    1  UNL1       -0.0566
      5 C           4.5015   -2.8388    1.9158 C.ar    1  UNL1       -0.0614
      6 C           4.3414   -3.6566    0.8058 C.ar    1  UNL1       -0.0598
      7 C           3.2510   -3.4619   -0.0419 C.ar    1  UNL1       -0.0374
      8 C           2.3106   -2.4384    0.1944 C.ar    1  UNL1        0.0561
      9 N           1.2790   -2.2653   -0.7444 N.ar    1  UNL1       -0.2433
     10 C           0.4628   -3.3132   -1.1353 C.ar    1  UNL1        0.3489
     11 O           0.4792   -4.4868   -0.7927 O.2     1  UNL1       -0.2446
     12 N          -0.4455   -2.7642   -2.0244 N.ar    1  UNL1       -0.2260
     13 H          -1.1860   -3.2535   -2.5004 H       1  UNL1        0.1937
     14 N          -0.1724   -1.4529   -2.2409 N.ar    1  UNL1       -0.1507
     15 C           0.8587   -1.1778   -1.4793 C.ar    1  UNL1        0.1727
     16 C           1.5290    0.1587   -1.5775 C.ar    1  UNL1        0.0612
     17 C           2.9114    0.3096   -1.3897 C.ar    1  UNL1       -0.0441
     18 C           3.5536    1.5215   -1.6933 C.ar    1  UNL1       -0.0193
     19 C           2.8209    2.5825   -2.2114 C.ar    1  UNL1        0.1204
     20 O           3.4098    3.7586   -2.5682 O.3     1  UNL1       -0.5066
     21 C           1.4520    2.4706   -2.3936 C.ar    1  UNL1        0.0220
     22 C           0.8108    1.2722   -2.0659 C.ar    1  UNL1        0.1310
     23 O          -0.5485    1.2226   -2.2264 O.3     1  UNL1       -0.5059
     24 H          -0.7454   -0.8647    2.5664 H       1  UNL1        0.0233
     25 H           0.2602   -2.1896    3.1742 H       1  UNL1        0.0233
     26 H          -0.3179   -2.2103    1.5061 H       1  UNL1        0.0233
     27 H           1.6532   -0.2116    2.7509 H       1  UNL1        0.0311
     28 H           1.0471   -0.0384    1.1254 H       1  UNL1        0.0311
     29 H           3.6509   -1.2927    3.1247 H       1  UNL1        0.0621
     30 H           5.3560   -2.9772    2.5740 H       1  UNL1        0.0618
     31 H           5.0583   -4.4474    0.5981 H       1  UNL1        0.0618
     32 H           3.1463   -4.1162   -0.9061 H       1  UNL1        0.0638
     33 H           3.5318   -0.5128   -1.0509 H       1  UNL1        0.0627
     34 H           4.6269    1.6037   -1.5478 H       1  UNL1        0.0654
     35 H           4.3639    3.7034   -2.3947 H       1  UNL1        0.2921
     36 H           0.8985    3.3156   -2.7923 H       1  UNL1        0.0691
     37 H          -0.8126    1.8683   -2.9024 H       1  UNL1        0.2922
@<TRIPOS>BOND
     1     1     2    1
     2     2     3    1
     3     3     4   ar
     4     4     5   ar
     5     5     6   ar
     6     6     7   ar
     7     7     8   ar
     8     3     8   ar
     9     8     9    1
    10     9    10   ar
    11    10    11    2
    12    10    12   ar
    13    12    13    1
    14    12    14   ar
    15    14    15   ar
    16     9    15   ar
    17    15    16    1
    18    16    17   ar
    19    17    18   ar
    20    18    19   ar
    21    19    20    1
    22    19    21   ar
    23    21    22   ar
    24    16    22   ar
    25    22    23    1
    26     1    24    1
    27     1    25    1
    28     1    26    1
    29     2    27    1
    30     2    28    1
    31     4    29    1
    32     5    30    1
    33     6    31    1
    34     7    32    1
    35    17    33    1
    36    18    34    1
    37    20    35    1
    38    21    36    1
    39    23    37    1
@<TRIPOS>MOLECULE
*****
 31 33 0 0 0
SMALL
GASTEIGER

@<TRIPOS>ATOM
      1 O           1.0612    0.1819    0.3949 O.2     1  UNL1       -0.2446
      2 C           2.2525   -0.0086    0.2027 C.ar    1  UNL1        0.3490
      3 N           3.2023    0.9913    0.0904 N.ar    1  UNL1       -0.2260
      4 H           3.0266    1.9813    0.1952 H       1  UNL1        0.1937
      5 N           4.4510    0.4635    0.0016 N.ar    1  UNL1       -0.1507
      6 C           4.2726   -0.8369    0.0208 C.ar    1  UNL1        0.1727
      7 C           5.4442   -1.7455   -0.1006 C.ar    1  UNL1        0.0612
      8 C           6.6710   -1.2371    0.3751 C.ar    1  UNL1       -0.0441
      9 C           7.8437   -1.9938    0.3175 C.ar    1  UNL1       -0.0193
     10 C           7.7919   -3.2759   -0.2096 C.ar    1  UNL1        0.1204
     11 O           8.9056   -4.0585   -0.2824 O.3     1  UNL1       -0.5066
     12 C           6.6017   -3.7948   -0.7067 C.ar    1  UNL1        0.0220
     13 C           5.4391   -3.0140   -0.6901 C.ar    1  UNL1        0.1310
     14 O           4.3245   -3.4984   -1.3132 O.3     1  UNL1       -0.5059
     15 N           2.9545   -1.2004    0.1305 N.ar    1  UNL1       -0.2422
     16 C           2.3056   -2.4291    0.3683 C.ar    1  UNL1        0.0712
     17 C           1.1837   -2.7284   -0.4301 C.ar    1  UNL1       -0.0362
     18 C           0.4309   -3.8847   -0.2201 C.ar    1  UNL1       -0.0597
     19 C           0.7770   -4.7552    0.8039 C.ar    1  UNL1       -0.0603
     20 C           1.8826   -4.4757    1.6090 C.ar    1  UNL1       -0.0414
     21 C           2.6484   -3.3185    1.4012 C.ar    1  UNL1        0.0649
     22 CL          3.8955   -2.9905    2.5489 Cl      1  UNL1       -0.0814
     23 H           6.7216   -0.2318    0.7921 H       1  UNL1        0.0627
     24 H           8.7704   -1.5670    0.6883 H       1  UNL1        0.0654
     25 H           9.6767   -3.5301   -0.0157 H       1  UNL1        0.2921
     26 H           6.6051   -4.7971   -1.1241 H       1  UNL1        0.0691
     27 H           4.5219   -4.3715   -1.6932 H       1  UNL1        0.2922
     28 H           0.8928   -2.0532   -1.2339 H       1  UNL1        0.0639
     29 H          -0.4332   -4.0873   -0.8508 H       1  UNL1        0.0618
     30 H           0.1739   -5.6411    0.9890 H       1  UNL1        0.0618
     31 H           2.1204   -5.1477    2.4301 H       1  UNL1        0.0633
@<TRIPOS>BOND
     1     1     2    2
     2     2     3   ar
     3     3     4    1
     4     3     5   ar
     5     5     6   ar
     6     6     7    1
     7     7     8   ar
     8     8     9   ar
     9     9    10   ar
    10    10    11    1
    11    10    12   ar
    12    12    13   ar
    13     7    13   ar
    14    13    14    1
    15     6    15   ar
    16     2    15   ar
    17    15    16    1
    18    16    17   ar
    19    17    18   ar
    20    18    19   ar
    21    19    20   ar
    22    20    21   ar
    23    16    21   ar
    24    21    22    1
    25     8    23    1
    26     9    24    1
    27    11    25    1
    28    12    26    1
    29    14    27    1
    30    17    28    1
    31    18    29    1
    32    19    30    1
    33    20    31    1
@<TRIPOS>MOLECULE
*****
 46 49 0 0 0
SMALL
GASTEIGER

@<TRIPOS>ATOM
      1 C           1.5880   -1.2048    0.3053 C.3     1  UNL1       -0.0307
      2 C           2.9957   -1.2499    0.8795 C.3     1  UNL1        0.0868
      3 O           3.4224    0.0897    1.1291 O.3     1  UNL1       -0.4922
      4 C           4.7538    0.2966    1.3751 C.ar    1  UNL1        0.1208
      5 C           5.7227   -0.7024    1.5688 C.ar    1  UNL1       -0.0196
      6 C           7.0729   -0.3747    1.7946 C.ar    1  UNL1       -0.0533
      7 C           7.4316    0.9643    1.8517 C.ar    1  UNL1       -0.0252
      8 C           6.4626    1.9575    1.6828 C.ar    1  UNL1       -0.0220
      9 C           5.1323    1.6404    1.4397 C.ar    1  UNL1       -0.0150
     10 C           7.0834    3.3045    1.8408 C.3     1  UNL1        0.0408
     11 N           8.4937    3.0222    2.1311 N.am    1  UNL1       -0.2876
     12 C           9.3323    4.0968    2.4093 C.2     1  UNL1        0.2663
     13 O           8.8326    5.2250    2.3872 O.2     1  UNL1       -0.2683
     14 C          10.8222    3.9421    2.6993 C.ar    1  UNL1        0.1383
     15 N          11.3128    2.6799    2.6950 N.ar    1  UNL1       -0.2094
     16 C          12.6312    2.5592    2.8260 C.ar    1  UNL1        0.2138
     17 N          13.1671    1.2960    2.9292 N.pl3   1  UNL1       -0.3274
     18 N          13.4975    3.5664    2.8408 N.ar    1  UNL1       -0.2146
     19 C          13.0194    4.8130    2.8306 C.ar    1  UNL1        0.0768
     20 C          13.9293    5.8684    2.7871 C.ar    1  UNL1       -0.0353
     21 C          13.5198    7.2037    2.7767 C.ar    1  UNL1       -0.0568
     22 C          12.1695    7.5068    2.8797 C.ar    1  UNL1       -0.0497
     23 C          11.6596    8.9140    2.8055 C.3     1  UNL1       -0.0397
     24 C          11.2540    6.4532    2.9549 C.ar    1  UNL1       -0.0474
     25 C          11.6517    5.0894    2.8378 C.ar    1  UNL1        0.0313
     26 C           8.7777    1.5847    2.1117 C.3     1  UNL1        0.0407
     27 H           1.1993   -2.2151    0.1441 H       1  UNL1        0.0262
     28 H           1.5837   -0.6744   -0.6532 H       1  UNL1        0.0262
     29 H           0.9063   -0.6654    0.9709 H       1  UNL1        0.0262
     30 H           3.6478   -1.7417    0.1494 H       1  UNL1        0.0694
     31 H           2.9885   -1.8161    1.8178 H       1  UNL1        0.0694
     32 H           5.4523   -1.7544    1.5623 H       1  UNL1        0.0654
     33 H           7.8089   -1.1511    1.9409 H       1  UNL1        0.0622
     34 H           4.3899    2.4231    1.3074 H       1  UNL1        0.0657
     35 H           6.6454    3.8466    2.6846 H       1  UNL1        0.0514
     36 H           7.0113    3.8986    0.9236 H       1  UNL1        0.0514
     37 H          12.6048    0.6127    2.4488 H       1  UNL1        0.1452
     38 H          14.1580    1.3237    2.7130 H       1  UNL1        0.1452
     39 H          14.9928    5.6434    2.7288 H       1  UNL1        0.0639
     40 H          14.2625    7.9942    2.6805 H       1  UNL1        0.0621
     41 H          12.4698    9.6447    2.8791 H       1  UNL1        0.0278
     42 H          10.9484    9.1119    3.6144 H       1  UNL1        0.0278
     43 H          11.1529    9.0606    1.8449 H       1  UNL1        0.0278
     44 H          10.2081    6.7171    3.0866 H       1  UNL1        0.0627
     45 H           9.1721    1.2796    3.0833 H       1  UNL1        0.0514
     46 H           9.4787    1.3655    1.3005 H       1  UNL1        0.0514
@<TRIPOS>BOND
     1     1     2    1
     2     2     3    1
     3     3     4    1
     4     4     5   ar
     5     5     6   ar
     6     6     7   ar
     7     7     8   ar
     8     8     9   ar
     9     4     9   ar
    10     8    10    1
    11    10    11    1
    12    11    12   am
    13    12    13    2
    14    12    14    1
    15    14    15   ar
    16    15    16   ar
    17    16    17    1
    18    16    18   ar
    19    18    19   ar
    20    19    20   ar
    21    20    21   ar
    22    21    22   ar
    23    22    23    1
    24    22    24   ar
    25    24    25   ar
    26    19    25   ar
    27    14    25   ar
    28    11    26    1
    29     7    26    1
    30     1    27    1
    31     1    28    1
    32     1    29    1
    33     2    30    1
    34     2    31    1
    35     5    32    1
    36     6    33    1
    37     9    34    1
    38    10    35    1
    39    10    36    1
    40    17    37    1
    41    17    38    1
    42    20    39    1
    43    21    40    1
    44    23    41    1
    45    23    42    1
    46    23    43    1
    47    24    44    1
    48    26    45    1
    49    26    46    1
@<TRIPOS>MOLECULE
*****
 39 42 0 0 0
SMALL
GASTEIGER

@<TRIPOS>ATOM
      1 C           0.8865    0.0512   -0.0209 C.3     1  UNL1       -0.0397
      2 C           2.3840    0.0080    0.0518 C.ar    1  UNL1       -0.0497
      3 C           3.1467    1.1688    0.0450 C.ar    1  UNL1       -0.0568
      4 C           4.5398    1.0868    0.1347 C.ar    1  UNL1       -0.0353
      5 C           5.2101   -0.1288    0.2289 C.ar    1  UNL1        0.0768
      6 N           6.5427   -0.1087    0.3262 N.ar    1  UNL1       -0.2146
      7 C           7.1867   -1.2711    0.4229 C.ar    1  UNL1        0.2138
      8 N           8.5600   -1.2090    0.5251 N.pl3   1  UNL1       -0.3274
      9 N           6.6150   -2.4689    0.3892 N.ar    1  UNL1       -0.2094
     10 C           5.2656   -2.4762    0.2777 C.ar    1  UNL1        0.1383
     11 C           4.6348   -3.8304    0.1002 C.2     1  UNL1        0.2663
     12 O           3.6060   -3.9239   -0.5746 O.2     1  UNL1       -0.2683
     13 N           5.1777   -4.9730    0.6689 N.am    1  UNL1       -0.2876
     14 C           6.4068   -5.1481    1.4566 C.3     1  UNL1        0.0407
     15 C           6.3880   -6.6139    1.8036 C.ar    1  UNL1       -0.0253
     16 C           7.2992   -7.3657    2.5293 C.ar    1  UNL1       -0.0557
     17 C           7.0448   -8.7332    2.7083 C.ar    1  UNL1       -0.0474
     18 C           5.8920   -9.3228    2.1652 C.ar    1  UNL1        0.0182
     19 BR          5.5643  -11.1680    2.4284 Br      1  UNL1       -0.0503
     20 C           4.9811   -8.5682    1.4314 C.ar    1  UNL1       -0.0428
     21 C           5.2487   -7.2198    1.2587 C.ar    1  UNL1       -0.0244
     22 C           4.4404   -6.2203    0.5087 C.3     1  UNL1        0.0408
     23 C           4.4705   -1.3108    0.2152 C.ar    1  UNL1        0.0313
     24 C           3.0467   -1.2207    0.1462 C.ar    1  UNL1       -0.0474
     25 H           0.5226    1.0643   -0.2208 H       1  UNL1        0.0278
     26 H           0.4545   -0.2855    0.9270 H       1  UNL1        0.0278
     27 H           0.5264   -0.5950   -0.8284 H       1  UNL1        0.0278
     28 H           2.6729    2.1454   -0.0267 H       1  UNL1        0.0621
     29 H           5.1205    2.0075    0.1313 H       1  UNL1        0.0639
     30 H           8.8821   -0.3171    0.1767 H       1  UNL1        0.1452
     31 H           8.9804   -2.0347    0.1203 H       1  UNL1        0.1452
     32 H           6.3641   -4.5168    2.3485 H       1  UNL1        0.0514
     33 H           7.2756   -4.9089    0.8371 H       1  UNL1        0.0514
     34 H           8.1940   -6.9185    2.9500 H       1  UNL1        0.0621
     35 H           7.7487   -9.3407    3.2725 H       1  UNL1        0.0629
     36 H           4.0883   -9.0138    1.0044 H       1  UNL1        0.0632
     37 H           3.4412   -6.1062    0.9410 H       1  UNL1        0.0514
     38 H           4.3757   -6.4679   -0.5552 H       1  UNL1        0.0514
     39 H           2.4381   -2.1234    0.1654 H       1  UNL1        0.0627
@<TRIPOS>BOND
     1     1     2    1
     2     2     3   ar
     3     3     4   ar
     4     4     5   ar
     5     5     6   ar
     6     6     7   ar
     7     7     8    1
     8     7     9   ar
     9     9    10   ar
    10    10    11    1
    11    11    12    2
    12    11    13   am
    13    13    14    1
    14    14    15    1
    15    15    16   ar
    16    16    17   ar
    17    17    18   ar
    18    18    19    1
    19    18    20   ar
    20    20    21   ar
    21    15    21   ar
    22    21    22    1
    23    13    22    1
    24    10    23   ar
    25     5    23   ar
    26    23    24   ar
    27     2    24   ar
    28     1    25    1
    29     1    26    1
    30     1    27    1
    31     3    28    1
    32     4    29    1
    33     8    30    1
    34     8    31    1
    35    14    32    1
    36    14    33    1
    37    16    34    1
    38    17    35    1
    39    20    36    1
    40    22    37    1
    41    22    38    1
    42    24    39    1
@<TRIPOS>MOLECULE
*****
 48 50 0 0 0
SMALL
GASTEIGER

@<TRIPOS>ATOM
      1 C           0.7365    1.7945   -0.6396 C.3     1  UNL1       -0.0481
      2 C           2.2329    2.1350   -0.7248 C.3     1  UNL1        0.0259
      3 C           2.6171    2.7351    0.6310 C.3     1  UNL1       -0.0481
      4 N           3.0409    0.9062   -1.0794 N.3     1  UNL1       -0.1770
      5 C           2.5496    0.2042   -2.3037 C.3     1  UNL1        0.0092
      6 S           4.7746    0.9940   -1.0640 S.O2    1  UNL1        0.0643
      7 O           5.2194    1.6931    0.1233 O.2     1  UNL1       -0.1527
      8 O           5.3009   -0.3260   -1.3421 O.2     1  UNL1       -0.1527
      9 C           5.0924    2.0703   -2.4536 C.ar    1  UNL1        0.1475
     10 C           5.0398    3.4520   -2.2179 C.ar    1  UNL1       -0.0175
     11 C           5.2278    4.3640   -3.2589 C.ar    1  UNL1        0.0631
     12 C           5.1989    5.8263   -3.0196 C.ar    1  UNL1        0.1728
     13 N           4.7190    6.6409   -3.9229 N.ar    1  UNL1       -0.1507
     14 N           4.8028    7.8695   -3.3371 N.ar    1  UNL1       -0.2260
     15 H           4.5550    8.7295   -3.8121 H       1  UNL1        0.1937
     16 C           5.4026    7.7902   -2.0798 C.ar    1  UNL1        0.3490
     17 O           5.7232    8.7572   -1.4031 O.2     1  UNL1       -0.2446
     18 N           5.6169    6.4446   -1.8667 N.ar    1  UNL1       -0.2422
     19 C           6.2974    5.9107   -0.7512 C.ar    1  UNL1        0.0712
     20 C           7.3802    5.0403   -0.9675 C.ar    1  UNL1       -0.0362
     21 C           7.9224    4.2965    0.0817 C.ar    1  UNL1       -0.0597
     22 C           7.3995    4.4228    1.3640 C.ar    1  UNL1       -0.0603
     23 C           6.3792    5.3404    1.6114 C.ar    1  UNL1       -0.0414
     24 C           5.8395    6.1019    0.5669 C.ar    1  UNL1        0.0649
     25 CL          4.4973    7.1161    0.9651 Cl      1  UNL1       -0.0814
     26 C           5.3837    3.8675   -4.5582 C.ar    1  UNL1        0.1311
     27 O           5.4315    4.6704   -5.6653 O.3     1  UNL1       -0.5059
     28 C           5.4781    2.4954   -4.7941 C.ar    1  UNL1        0.0240
     29 C           5.3496    1.5943   -3.7377 C.ar    1  UNL1        0.1466
     30 O           5.4012    0.2621   -4.0088 O.3     1  UNL1       -0.5047
     31 H           0.1573    2.6555   -0.2870 H       1  UNL1        0.0245
     32 H           0.5599    0.9606    0.0488 H       1  UNL1        0.0245
     33 H           0.3219    1.5283   -1.6160 H       1  UNL1        0.0245
     34 H           2.3588    2.8896   -1.5089 H       1  UNL1        0.0474
     35 H           2.6740    1.9660    1.4084 H       1  UNL1        0.0245
     36 H           1.8846    3.4855    0.9510 H       1  UNL1        0.0245
     37 H           3.5700    3.2655    0.5968 H       1  UNL1        0.0245
     38 H           1.5204   -0.1363   -2.1793 H       1  UNL1        0.0408
     39 H           3.1319   -0.6987   -2.5046 H       1  UNL1        0.0408
     40 H           2.5936    0.8673   -3.1734 H       1  UNL1        0.0408
     41 H           4.8238    3.8016   -1.2137 H       1  UNL1        0.0646
     42 H           7.7951    4.9070   -1.9647 H       1  UNL1        0.0639
     43 H           8.7290    3.5918   -0.1078 H       1  UNL1        0.0618
     44 H           7.7753    3.7959    2.1699 H       1  UNL1        0.0618
     45 H           5.9757    5.4234    2.6181 H       1  UNL1        0.0633
     46 H           5.1092    5.5640   -5.4123 H       1  UNL1        0.2922
     47 H           5.6106    2.1462   -5.8152 H       1  UNL1        0.0691
     48 H           5.8091    0.1099   -4.8785 H       1  UNL1        0.2922
@<TRIPOS>BOND
     1     1     2    1
     2     2     3    1
     3     2     4    1
     4     4     5    1
     5     4     6    1
     6     6     7    2
     7     6     8    2
     8     6     9    1
     9     9    10   ar
    10    10    11   ar
    11    11    12    1
    12    12    13   ar
    13    13    14   ar
    14    14    15    1
    15    14    16   ar
    16    16    17    2
    17    16    18   ar
    18    12    18   ar
    19    18    19    1
    20    19    20   ar
    21    20    21   ar
    22    21    22   ar
    23    22    23   ar
    24    23    24   ar
    25    19    24   ar
    26    24    25    1
    27    11    26   ar
    28    26    27    1
    29    26    28   ar
    30    28    29   ar
    31     9    29   ar
    32    29    30    1
    33     1    31    1
    34     1    32    1
    35     1    33    1
    36     2    34    1
    37     3    35    1
    38     3    36    1
    39     3    37    1
    40     5    38    1
    41     5    39    1
    42     5    40    1
    43    10    41    1
    44    20    42    1
    45    21    43    1
    46    22    44    1
    47    23    45    1
    48    27    46    1
    49    28    47    1
    50    30    48    1
@<TRIPOS>MOLECULE
*****
 43 46 0 0 0
SMALL
GASTEIGER

@<TRIPOS>ATOM
      1 C           4.3395   -4.4484    2.0223 C.3     1  UNL1        0.0788
      2 O           3.8608   -4.5886    0.6877 O.3     1  UNL1       -0.4951
      3 C           4.2607   -3.5992   -0.1712 C.ar    1  UNL1        0.1204
      4 C           4.3975   -2.2455    0.1824 C.ar    1  UNL1       -0.0196
      5 C           4.8263   -1.2978   -0.7638 C.ar    1  UNL1       -0.0533
      6 C           5.1357   -1.7342   -2.0364 C.ar    1  UNL1       -0.0252
      7 C           4.9959   -3.0776   -2.3821 C.ar    1  UNL1       -0.0220
      8 C           4.5232   -4.0143   -1.4774 C.ar    1  UNL1       -0.0150
      9 C           5.4919   -3.3043   -3.7676 C.3     1  UNL1        0.0408
     10 N           5.9711   -1.9871   -4.1911 N.am    1  UNL1       -0.2876
     11 C           6.6360   -1.8964   -5.4057 C.2     1  UNL1        0.2663
     12 O           6.7563   -2.9336   -6.0633 O.2     1  UNL1       -0.2683
     13 C           7.1795   -0.5798   -5.9503 C.ar    1  UNL1        0.1383
     14 N           6.9561    0.5208   -5.1930 N.ar    1  UNL1       -0.2094
     15 C           7.2810    1.6905   -5.7377 C.ar    1  UNL1        0.2138
     16 N           7.1171    2.8327   -4.9827 N.pl3   1  UNL1       -0.3274
     17 N           7.7943    1.8555   -6.9543 N.ar    1  UNL1       -0.2146
     18 C           8.0190    0.7688   -7.6975 C.ar    1  UNL1        0.0768
     19 C           8.4763    0.9482   -8.9979 C.ar    1  UNL1       -0.0353
     20 C           8.6881   -0.1271   -9.8665 C.ar    1  UNL1       -0.0568
     21 C           8.5089   -1.4248   -9.4068 C.ar    1  UNL1       -0.0497
     22 C           8.5643   -2.6082  -10.3243 C.3     1  UNL1       -0.0397
     23 C           8.1118   -1.6122   -8.0822 C.ar    1  UNL1       -0.0474
     24 C           7.7785   -0.5248   -7.2279 C.ar    1  UNL1        0.0313
     25 C           5.6900   -0.9514   -3.1944 C.3     1  UNL1        0.0407
     26 H           4.1739   -5.3998    2.5378 H       1  UNL1        0.0660
     27 H           3.7795   -3.6778    2.5602 H       1  UNL1        0.0660
     28 H           5.4155   -4.2406    2.0460 H       1  UNL1        0.0660
     29 H           4.1709   -1.9081    1.1877 H       1  UNL1        0.0654
     30 H           4.9342   -0.2536   -0.4833 H       1  UNL1        0.0622
     31 H           4.4075   -5.0565   -1.7579 H       1  UNL1        0.0657
     32 H           4.7048   -3.6486   -4.4461 H       1  UNL1        0.0514
     33 H           6.3324   -4.0053   -3.7674 H       1  UNL1        0.0514
     34 H           7.2183    2.6246   -4.0007 H       1  UNL1        0.1452
     35 H           7.7089    3.5646   -5.3555 H       1  UNL1        0.1452
     36 H           8.6314    1.9602   -9.3674 H       1  UNL1        0.0639
     37 H           8.9738    0.0616  -10.8984 H       1  UNL1        0.0621
     38 H           9.2730   -2.4518  -11.1408 H       1  UNL1        0.0278
     39 H           7.5654   -2.7749  -10.7432 H       1  UNL1        0.0278
     40 H           8.8647   -3.5126   -9.7841 H       1  UNL1        0.0278
     41 H           8.0300   -2.6390   -7.7355 H       1  UNL1        0.0627
     42 H           4.9496   -0.2536   -3.5985 H       1  UNL1        0.0514
     43 H           6.6170   -0.4454   -2.9159 H       1  UNL1        0.0514
@<TRIPOS>BOND
     1     1     2    1
     2     2     3    1
     3     3     4   ar
     4     4     5   ar
     5     5     6   ar
     6     6     7   ar
     7     7     8   ar
     8     3     8   ar
     9     7     9    1
    10     9    10    1
    11    10    11   am
    12    11    12    2
    13    11    13    1
    14    13    14   ar
    15    14    15   ar
    16    15    16    1
    17    15    17   ar
    18    17    18   ar
    19    18    19   ar
    20    19    20   ar
    21    20    21   ar
    22    21    22    1
    23    21    23   ar
    24    23    24   ar
    25    18    24   ar
    26    13    24   ar
    27    10    25    1
    28     6    25    1
    29     1    26    1
    30     1    27    1
    31     1    28    1
    32     4    29    1
    33     5    30    1
    34     8    31    1
    35     9    32    1
    36     9    33    1
    37    16    34    1
    38    16    35    1
    39    19    36    1
    40    20    37    1
    41    22    38    1
    42    22    39    1
    43    22    40    1
    44    23    41    1
    45    25    42    1
    46    25    43    1
@<TRIPOS>MOLECULE
*****
 40 43 0 0 0
SMALL
GASTEIGER

@<TRIPOS>ATOM
      1 C           1.0464    0.0088    0.0380 C.3     1  UNL1       -0.0397
      2 C           2.5449   -0.0356    0.0810 C.ar    1  UNL1       -0.0497
      3 C           3.3050    1.1281    0.1028 C.ar    1  UNL1       -0.0568
      4 C           4.7002    1.0461    0.1399 C.ar    1  UNL1       -0.0353
      5 C           5.3749   -0.1704    0.1478 C.ar    1  UNL1        0.0768
      6 N           6.7119   -0.1491    0.1518 N.ar    1  UNL1       -0.2146
      7 C           7.3616   -1.3118    0.1215 C.ar    1  UNL1        0.2138
      8 N           8.7400   -1.2493    0.1204 N.pl3   1  UNL1       -0.3274
      9 N           6.7906   -2.5097    0.1268 N.ar    1  UNL1       -0.2094
     10 C           5.4353   -2.5172    0.1491 C.ar    1  UNL1        0.1383
     11 C           4.7978   -3.8744    0.2535 C.2     1  UNL1        0.2663
     12 O           3.7429   -3.9860    0.8827 O.2     1  UNL1       -0.2683
     13 N           5.3606   -4.9932   -0.3427 N.am    1  UNL1       -0.2876
     14 C           6.6246   -5.1388   -1.0801 C.3     1  UNL1        0.0407
     15 C           6.6327   -6.5934   -1.4702 C.ar    1  UNL1       -0.0252
     16 C           7.5894   -7.3248   -2.1589 C.ar    1  UNL1       -0.0533
     17 C           7.3592   -8.6914   -2.3797 C.ar    1  UNL1       -0.0199
     18 C           6.1832   -9.2944   -1.9125 C.ar    1  UNL1        0.1172
     19 O           5.9341  -10.6215   -2.1088 O.3     1  UNL1       -0.5068
     20 C           5.2238   -8.5627   -1.2257 C.ar    1  UNL1       -0.0152
     21 C           5.4672   -7.2167   -1.0106 C.ar    1  UNL1       -0.0220
     22 C           4.6026   -6.2392   -0.2952 C.3     1  UNL1        0.0408
     23 C           4.6380   -1.3538    0.1440 C.ar    1  UNL1        0.0313
     24 C           3.2121   -1.2656    0.1160 C.ar    1  UNL1       -0.0474
     25 H           0.6809    1.0227   -0.1563 H       1  UNL1        0.0278
     26 H           0.6292   -0.3292    0.9917 H       1  UNL1        0.0278
     27 H           0.6723   -0.6344   -0.7656 H       1  UNL1        0.0278
     28 H           2.8275    2.1046    0.0806 H       1  UNL1        0.0621
     29 H           5.2793    1.9680    0.1503 H       1  UNL1        0.0639
     30 H           9.0367   -0.3583    0.4976 H       1  UNL1        0.1452
     31 H           9.1311   -2.0786    0.5422 H       1  UNL1        0.1452
     32 H           7.4632   -4.9120   -0.4163 H       1  UNL1        0.0514
     33 H           6.6173   -4.4812   -1.9541 H       1  UNL1        0.0514
     34 H           8.5025   -6.8604   -2.5174 H       1  UNL1        0.0622
     35 H           8.1036   -9.2754   -2.9132 H       1  UNL1        0.0654
     36 H           6.6862  -11.0151   -2.5796 H       1  UNL1        0.2921
     37 H           4.3171   -9.0367   -0.8656 H       1  UNL1        0.0657
     38 H           4.4360   -6.5256    0.7468 H       1  UNL1        0.0514
     39 H           3.6498   -6.0955   -0.8153 H       1  UNL1        0.0514
     40 H           2.6058   -2.1702    0.1104 H       1  UNL1        0.0627
@<TRIPOS>BOND
     1     1     2    1
     2     2     3   ar
     3     3     4   ar
     4     4     5   ar
     5     5     6   ar
     6     6     7   ar
     7     7     8    1
     8     7     9   ar
     9     9    10   ar
    10    10    11    1
    11    11    12    2
    12    11    13   am
    13    13    14    1
    14    14    15    1
    15    15    16   ar
    16    16    17   ar
    17    17    18   ar
    18    18    19    1
    19    18    20   ar
    20    20    21   ar
    21    15    21   ar
    22    21    22    1
    23    13    22    1
    24    10    23   ar
    25     5    23   ar
    26    23    24   ar
    27     2    24   ar
    28     1    25    1
    29     1    26    1
    30     1    27    1
    31     3    28    1
    32     4    29    1
    33     8    30    1
    34     8    31    1
    35    14    32    1
    36    14    33    1
    37    16    34    1
    38    17    35    1
    39    19    36    1
    40    20    37    1
    41    22    38    1
    42    22    39    1
    43    24    40    1
