@<TRIPOS>MOLECULE
*****
 56 59 0 0 0
SMALL
GASTEIGER

@<TRIPOS>ATOM
      1 C           2.0025   -0.0628   -0.1026 C.3     1  UNL1       -0.0495
      2 C           2.7620    1.1656    0.3757 C.3     1  UNL1        0.0091
      3 N           3.4095    1.8564   -0.7156 N.am    1  UNL1       -0.3102
      4 C           4.7016    1.5754   -1.1224 C.2     1  UNL1        0.2664
      5 O           5.4376    0.8046   -0.5274 O.2     1  UNL1       -0.2684
      6 C           5.0635    2.2240   -2.3920 C.ar    1  UNL1        0.1758
      7 N           4.5325    3.4240   -2.6790 N.ar    1  UNL1       -0.0723
      8 O           4.9263    3.7150   -3.9556 O.2     1  UNL1       -0.3532
      9 C           5.6643    2.6972   -4.4877 C.ar    1  UNL1        0.1792
     10 C           5.8431    1.7243   -3.4990 C.ar    1  UNL1        0.0614
     11 C           6.4064    0.3867   -3.7182 C.ar    1  UNL1       -0.0119
     12 C           7.4684    0.1600   -4.6045 C.ar    1  UNL1       -0.0535
     13 C           7.6835   -1.1207   -5.1365 C.ar    1  UNL1       -0.0568
     14 C           6.9139   -2.2076   -4.7030 C.ar    1  UNL1       -0.0333
     15 C           6.0292   -2.0166   -3.6419 C.ar    1  UNL1       -0.0568
     16 C           5.7641   -0.7328   -3.1732 C.ar    1  UNL1       -0.0535
     17 C           6.8926   -3.5288   -5.4380 C.3     1  UNL1        0.0242
     18 N           8.2028   -4.1331   -5.6896 N.3     1  UNL1       -0.2938
     19 C           8.9204   -4.4831   -4.4443 C.3     1  UNL1        0.0228
     20 C           8.3213   -5.6786   -3.6846 C.3     1  UNL1        0.0604
     21 O           8.2386   -6.8390   -4.5223 O.3     1  UNL1       -0.3772
     22 C           7.4679   -6.5664   -5.6981 C.3     1  UNL1        0.0604
     23 C           8.0415   -5.3748   -6.4890 C.3     1  UNL1        0.0228
     24 C           5.9222    2.8804   -5.9314 C.ar    1  UNL1        0.0635
     25 C           5.9643    1.7794   -6.8044 C.ar    1  UNL1       -0.0255
     26 C           6.1644    1.9439   -8.1773 C.ar    1  UNL1        0.0832
     27 CL          6.3145    0.5529   -9.1855 Cl      1  UNL1       -0.0797
     28 C           6.2357    3.2212   -8.7232 C.ar    1  UNL1        0.1386
     29 C           6.1671    4.3352   -7.8999 C.ar    1  UNL1        0.0235
     30 C           6.0423    4.1617   -6.5163 C.ar    1  UNL1        0.1312
     31 O           6.0390    5.2803   -5.7246 O.3     1  UNL1       -0.5059
     32 O           6.3627    3.4338  -10.0674 O.3     1  UNL1       -0.5052
     33 H           1.5268   -0.5700    0.7431 H       1  UNL1        0.0245
     34 H           2.6686   -0.7770   -0.5982 H       1  UNL1        0.0245
     35 H           1.2185    0.2110   -0.8172 H       1  UNL1        0.0245
     36 H           3.5102    0.8728    1.1194 H       1  UNL1        0.0459
     37 H           2.0704    1.8725    0.8429 H       1  UNL1        0.0459
     38 H           2.8711    2.4912   -1.2999 H       1  UNL1        0.1490
     39 H           8.0564    0.9881   -4.9952 H       1  UNL1        0.0624
     40 H           8.4020   -1.2532   -5.9441 H       1  UNL1        0.0621
     41 H           5.4682   -2.8502   -3.2261 H       1  UNL1        0.0621
     42 H           4.9828   -0.6427   -2.4268 H       1  UNL1        0.0624
     43 H           6.4009   -3.3230   -6.3993 H       1  UNL1        0.0476
     44 H           6.2249   -4.2207   -4.9106 H       1  UNL1        0.0476
     45 H           9.0020   -3.6169   -3.7788 H       1  UNL1        0.0449
     46 H           9.9501   -4.7356   -4.7300 H       1  UNL1        0.0449
     47 H           7.3276   -5.4511   -3.2817 H       1  UNL1        0.0572
     48 H           8.9671   -5.9316   -2.8369 H       1  UNL1        0.0572
     49 H           6.4230   -6.4025   -5.4110 H       1  UNL1        0.0572
     50 H           7.4918   -7.4665   -6.3211 H       1  UNL1        0.0572
     51 H           7.4237   -5.1849   -7.3756 H       1  UNL1        0.0449
     52 H           9.0344   -5.6535   -6.8631 H       1  UNL1        0.0449
     53 H           5.8206    0.7703   -6.4332 H       1  UNL1        0.0641
     54 H           6.2155    5.3242   -8.3448 H       1  UNL1        0.0691
     55 H           5.9834    6.0762   -6.2785 H       1  UNL1        0.2922
     56 H           6.3909    2.5585  -10.4990 H       1  UNL1        0.2922
@<TRIPOS>BOND
     1     1     2    1
     2     2     3    1
     3     3     4   am
     4     4     5    2
     5     4     6    1
     6     6     7   ar
     7     7     8   ar
     8     8     9   ar
     9     9    10   ar
    10     6    10   ar
    11    10    11    1
    12    11    12   ar
    13    12    13   ar
    14    13    14   ar
    15    14    15   ar
    16    15    16   ar
    17    11    16   ar
    18    14    17    1
    19    17    18    1
    20    18    19    1
    21    19    20    1
    22    20    21    1
    23    21    22    1
    24    22    23    1
    25    18    23    1
    26     9    24    1
    27    24    25   ar
    28    25    26   ar
    29    26    27    1
    30    26    28   ar
    31    28    29   ar
    32    29    30   ar
    33    24    30   ar
    34    30    31    1
    35    28    32    1
    36     1    33    1
    37     1    34    1
    38     1    35    1
    39     2    36    1
    40     2    37    1
    41     3    38    1
    42    12    39    1
    43    13    40    1
    44    15    41    1
    45    16    42    1
    46    17    43    1
    47    17    44    1
    48    19    45    1
    49    19    46    1
    50    20    47    1
    51    20    48    1
    52    22    49    1
    53    22    50    1
    54    23    51    1
    55    23    52    1
    56    25    53    1
    57    29    54    1
    58    31    55    1
    59    32    56    1
@<TRIPOS>MOLECULE
*****
 44 46 0 0 0
SMALL
GASTEIGER

@<TRIPOS>ATOM
      1 C           5.1479    1.5834    2.4879 C.3     1  UNL1       -0.0495
      2 C           5.5272    0.7919    1.2536 C.3     1  UNL1        0.0091
      3 N           5.5426   -0.6266    1.5196 N.am    1  UNL1       -0.3102
      4 C           4.4414   -1.4443    1.3489 C.2     1  UNL1        0.2664
      5 O           3.3530   -1.0256    0.9590 O.2     1  UNL1       -0.2684
      6 C           4.7173   -2.8549    1.6345 C.ar    1  UNL1        0.1758
      7 N           5.6693   -3.1501    2.5313 N.ar    1  UNL1       -0.0723
      8 O           5.7577   -4.5102    2.5569 O.2     1  UNL1       -0.3532
      9 C           4.8895   -5.0789    1.6680 C.ar    1  UNL1        0.1792
     10 C           4.1755   -4.0561    1.0404 C.ar    1  UNL1        0.0614
     11 C           3.2579   -4.2109   -0.0911 C.ar    1  UNL1       -0.0117
     12 C           2.4433   -5.3404   -0.2386 C.ar    1  UNL1       -0.0504
     13 C           1.7909   -5.5973   -1.4466 C.ar    1  UNL1       -0.0194
     14 C           1.8279   -4.6760   -2.4926 C.ar    1  UNL1        0.1201
     15 C           2.5134   -3.4821   -2.3107 C.ar    1  UNL1       -0.0194
     16 C           3.2388   -3.2665   -1.1308 C.ar    1  UNL1       -0.0504
     17 O           1.2327   -5.0790   -3.6545 O.3     1  UNL1       -0.4951
     18 C           0.7129   -4.0491   -4.4861 C.3     1  UNL1        0.0788
     19 C           5.0538   -6.5428    1.5884 C.ar    1  UNL1        0.0635
     20 C           4.9307   -7.2284    0.3679 C.ar    1  UNL1       -0.0255
     21 C           5.1452   -8.6088    0.2920 C.ar    1  UNL1        0.0832
     22 CL          4.8791   -9.4300   -1.2006 Cl      1  UNL1       -0.0797
     23 C           5.5686   -9.3161    1.4150 C.ar    1  UNL1        0.1386
     24 C           5.7143   -8.6696    2.6322 C.ar    1  UNL1        0.0235
     25 C           5.4163   -7.3067    2.7222 C.ar    1  UNL1        0.1312
     26 O           5.4684   -6.7158    3.9581 O.3     1  UNL1       -0.5059
     27 O           5.8518  -10.6530    1.3760 O.3     1  UNL1       -0.5052
     28 H           5.1491    2.6555    2.2701 H       1  UNL1        0.0245
     29 H           5.8577    1.3963    3.3006 H       1  UNL1        0.0245
     30 H           4.1511    1.3039    2.8437 H       1  UNL1        0.0245
     31 H           6.5282    1.0727    0.9154 H       1  UNL1        0.0459
     32 H           4.8209    1.0020    0.4396 H       1  UNL1        0.0459
     33 H           6.3683   -1.0535    1.9322 H       1  UNL1        0.1490
     34 H           2.3653   -6.0818    0.5559 H       1  UNL1        0.0625
     35 H           1.2612   -6.5398   -1.5869 H       1  UNL1        0.0654
     36 H           2.5616   -2.7189   -3.0798 H       1  UNL1        0.0654
     37 H           3.8167   -2.3480   -1.0733 H       1  UNL1        0.0625
     38 H           0.3130   -4.5243   -5.3873 H       1  UNL1        0.0660
     39 H           1.4790   -3.3399   -4.8127 H       1  UNL1        0.0660
     40 H          -0.1095   -3.5358   -3.9790 H       1  UNL1        0.0660
     41 H           4.6753   -6.6973   -0.5444 H       1  UNL1        0.0641
     42 H           6.0557   -9.2336    3.4947 H       1  UNL1        0.0691
     43 H           5.6412   -7.3882    4.6375 H       1  UNL1        0.2922
     44 H           5.6870  -10.9602    0.4645 H       1  UNL1        0.2922
@<TRIPOS>BOND
     1     1     2    1
     2     2     3    1
     3     3     4   am
     4     4     5    2
     5     4     6    1
     6     6     7   ar
     7     7     8   ar
     8     8     9   ar
     9     9    10   ar
    10     6    10   ar
    11    10    11    1
    12    11    12   ar
    13    12    13   ar
    14    13    14   ar
    15    14    15   ar
    16    15    16   ar
    17    11    16   ar
    18    14    17    1
    19    17    18    1
    20     9    19    1
    21    19    20   ar
    22    20    21   ar
    23    21    22    1
    24    21    23   ar
    25    23    24   ar
    26    24    25   ar
    27    19    25   ar
    28    25    26    1
    29    23    27    1
    30     1    28    1
    31     1    29    1
    32     1    30    1
    33     2    31    1
    34     2    32    1
    35     3    33    1
    36    12    34    1
    37    13    35    1
    38    15    36    1
    39    16    37    1
    40    18    38    1
    41    18    39    1
    42    18    40    1
    43    20    41    1
    44    24    42    1
    45    26    43    1
    46    27    44    1
@<TRIPOS>MOLECULE
*****
 45 47 0 0 0
SMALL
GASTEIGER

@<TRIPOS>ATOM
      1 C           1.7475    0.1539   -0.2503 C.3     1  UNL1       -0.0495
      2 C           2.8090    1.2208   -0.4634 C.3     1  UNL1        0.0091
      3 N           3.3421    1.6904    0.8023 N.am    1  UNL1       -0.3104
      4 C           4.5104    1.1674    1.3278 C.2     1  UNL1        0.2624
      5 O           5.2169    0.3955    0.6891 O.2     1  UNL1       -0.2685
      6 C           4.7897    1.5837    2.6831 C.ar    1  UNL1        0.1284
      7 N           4.5763    2.8545    3.1291 N.ar    1  UNL1       -0.2714
      8 H           4.2421    3.6416    2.5854 H       1  UNL1        0.1891
      9 N           4.9069    3.0712    4.4032 N.ar    1  UNL1       -0.1724
     10 C           5.3917    1.8917    4.8342 C.ar    1  UNL1        0.1045
     11 C           5.3683    0.9176    3.7604 C.ar    1  UNL1        0.0397
     12 C           5.8528   -0.4641    3.7011 C.ar    1  UNL1       -0.0134
     13 C           5.1135   -1.4749    3.0697 C.ar    1  UNL1       -0.0504
     14 C           5.5887   -2.7895    3.0192 C.ar    1  UNL1       -0.0194
     15 C           6.7930   -3.1270    3.6310 C.ar    1  UNL1        0.1201
     16 C           7.5181   -2.1445    4.3016 C.ar    1  UNL1       -0.0194
     17 C           7.0670   -0.8192    4.3059 C.ar    1  UNL1       -0.0504
     18 O           7.1357   -4.4497    3.5664 O.3     1  UNL1       -0.4951
     19 C           8.5368   -4.7209    3.6212 C.3     1  UNL1        0.0788
     20 C           5.9255    1.7903    6.2068 C.ar    1  UNL1        0.0457
     21 C           6.6065    2.8969    6.7528 C.ar    1  UNL1       -0.0271
     22 C           7.2310    2.8065    7.9975 C.ar    1  UNL1        0.0831
     23 CL          8.0458    4.1818    8.6459 Cl      1  UNL1       -0.0797
     24 C           7.2036    1.6062    8.7064 C.ar    1  UNL1        0.1386
     25 C           6.5046    0.5137    8.2088 C.ar    1  UNL1        0.0234
     26 C           5.8421    0.6223    6.9825 C.ar    1  UNL1        0.1296
     27 O           5.0804   -0.4341    6.5673 O.3     1  UNL1       -0.5060
     28 O           7.8439    1.4536    9.9056 O.3     1  UNL1       -0.5052
     29 H           1.3408   -0.1799   -1.2101 H       1  UNL1        0.0245
     30 H           0.9203    0.5437    0.3529 H       1  UNL1        0.0245
     31 H           2.1579   -0.7166    0.2718 H       1  UNL1        0.0245
     32 H           2.3726    2.0856   -0.9716 H       1  UNL1        0.0459
     33 H           3.6133    0.8250   -1.0924 H       1  UNL1        0.0459
     34 H           2.6981    2.1627    1.4204 H       1  UNL1        0.1490
     35 H           4.1635   -1.2583    2.5897 H       1  UNL1        0.0625
     36 H           5.0216   -3.5475    2.4852 H       1  UNL1        0.0654
     37 H           8.4284   -2.3740    4.8433 H       1  UNL1        0.0654
     38 H           7.6693   -0.0713    4.8144 H       1  UNL1        0.0625
     39 H           8.6725   -5.8004    3.5078 H       1  UNL1        0.0660
     40 H           8.9673   -4.4426    4.5879 H       1  UNL1        0.0660
     41 H           9.0635   -4.2247    2.7987 H       1  UNL1        0.0660
     42 H           6.6529    3.8314    6.1961 H       1  UNL1        0.0641
     43 H           6.4654   -0.4029    8.7896 H       1  UNL1        0.0691
     44 H           5.5258   -1.2598    6.8248 H       1  UNL1        0.2922
     45 H           8.2616    2.3089   10.1226 H       1  UNL1        0.2922
@<TRIPOS>BOND
     1     1     2    1
     2     2     3    1
     3     3     4   am
     4     4     5    2
     5     4     6    1
     6     6     7   ar
     7     7     8    1
     8     7     9   ar
     9     9    10   ar
    10    10    11   ar
    11     6    11   ar
    12    11    12    1
    13    12    13   ar
    14    13    14   ar
    15    14    15   ar
    16    15    16   ar
    17    16    17   ar
    18    12    17   ar
    19    15    18    1
    20    18    19    1
    21    10    20    1
    22    20    21   ar
    23    21    22   ar
    24    22    23    1
    25    22    24   ar
    26    24    25   ar
    27    25    26   ar
    28    20    26   ar
    29    26    27    1
    30    24    28    1
    31     1    29    1
    32     1    30    1
    33     1    31    1
    34     2    32    1
    35     2    33    1
    36     3    34    1
    37    13    35    1
    38    14    36    1
    39    16    37    1
    40    17    38    1
    41    19    39    1
    42    19    40    1
    43    19    41    1
    44    21    42    1
    45    25    43    1
    46    27    44    1
    47    28    45    1
@<TRIPOS>MOLECULE
*****
 60 63 0 0 0
SMALL
GASTEIGER

@<TRIPOS>ATOM
      1 C           3.2286    2.2336    1.3369 C.3     1  UNL1       -0.0495
      2 C           4.5806    1.6002    1.0672 C.3     1  UNL1        0.0091
      3 N           4.8561    0.5237    1.9873 N.am    1  UNL1       -0.3102
      4 C           4.3269   -0.7459    1.8293 C.2     1  UNL1        0.2664
      5 O           3.6271   -1.0484    0.8695 O.2     1  UNL1       -0.2684
      6 C           4.6936   -1.6872    2.8933 C.ar    1  UNL1        0.1758
      7 N           5.2626   -1.2116    4.0159 N.ar    1  UNL1       -0.0723
      8 O           5.5408   -2.2994    4.7914 O.2     1  UNL1       -0.3532
      9 C           5.1709   -3.4544    4.1602 C.ar    1  UNL1        0.1791
     10 C           4.5652   -3.1201    2.9505 C.ar    1  UNL1        0.0614
     11 C           4.0945   -4.0915    1.9631 C.ar    1  UNL1       -0.0119
     12 C           3.4530   -5.2807    2.3504 C.ar    1  UNL1       -0.0534
     13 C           3.2630   -6.3260    1.4397 C.ar    1  UNL1       -0.0530
     14 C           3.6674   -6.1861    0.1070 C.ar    1  UNL1       -0.0029
     15 C           4.1513   -4.9445   -0.3197 C.ar    1  UNL1       -0.0530
     16 C           4.3837   -3.9213    0.6038 C.ar    1  UNL1       -0.0534
     17 C           3.7302   -7.3669   -0.8164 C.3     1  UNL1       -0.0058
     18 N           2.4370   -7.7669   -1.4796 N.4     1  UNL1        0.2417
     19 H           1.7346   -7.8912   -0.7405 H       1  UNL1        0.2038
     20 C           1.9236   -6.6851   -2.4236 C.3     1  UNL1       -0.0075
     21 C           0.7465   -7.2088   -3.2492 C.3     1  UNL1        0.0878
     22 O           1.1275   -8.3796   -3.9764 O.3     1  UNL1       -0.3693
     23 C           1.4413   -9.4537   -3.0880 C.3     1  UNL1        0.0878
     24 C           2.6325   -9.1026   -2.1952 C.3     1  UNL1       -0.0075
     25 C           5.5825   -4.6494    4.9013 C.ar    1  UNL1        0.0624
     26 C           5.4826   -4.6421    6.3091 C.ar    1  UNL1       -0.0411
     27 C           6.0292   -5.6668    7.1028 C.ar    1  UNL1       -0.0081
     28 C           6.0424   -5.5142    8.5967 C.3     1  UNL1       -0.0362
     29 C           6.6238   -6.7517    6.4578 C.ar    1  UNL1        0.1232
     30 C           6.6853   -6.8148    5.0693 C.ar    1  UNL1        0.0223
     31 C           6.1988   -5.7553    4.3003 C.ar    1  UNL1        0.1311
     32 O           6.3942   -5.7967    2.9455 O.3     1  UNL1       -0.5059
     33 O           7.2099   -7.7873    7.1270 O.3     1  UNL1       -0.5064
     34 H           3.0325    3.0371    0.6231 H       1  UNL1        0.0245
     35 H           3.1920    2.6509    2.3488 H       1  UNL1        0.0245
     36 H           2.4244    1.4960    1.2530 H       1  UNL1        0.0245
     37 H           5.3797    2.3426    1.1733 H       1  UNL1        0.0459
     38 H           4.6117    1.2088    0.0424 H       1  UNL1        0.0459
     39 H           5.3558    0.7080    2.8527 H       1  UNL1        0.1490
     40 H           3.1912   -5.4426    3.3951 H       1  UNL1        0.0624
     41 H           2.8841   -7.2742    1.8199 H       1  UNL1        0.0622
     42 H           4.4407   -4.7709   -1.3552 H       1  UNL1        0.0622
     43 H           4.8638   -3.0150    0.2422 H       1  UNL1        0.0624
     44 H           4.0839   -8.2395   -0.2521 H       1  UNL1        0.0867
     45 H           4.4618   -7.1911   -1.6158 H       1  UNL1        0.0867
     46 H           2.7595   -6.4121   -3.0764 H       1  UNL1        0.0837
     47 H           1.6172   -5.8308   -1.8131 H       1  UNL1        0.0837
     48 H           0.4396   -6.4504   -3.9758 H       1  UNL1        0.0613
     49 H          -0.1187   -7.4368   -2.6164 H       1  UNL1        0.0613
     50 H           1.6934  -10.3262   -3.6992 H       1  UNL1        0.0613
     51 H           0.5565   -9.7085   -2.4951 H       1  UNL1        0.0613
     52 H           3.5418   -9.0052   -2.7991 H       1  UNL1        0.0837
     53 H           2.7797   -9.8649   -1.4227 H       1  UNL1        0.0837
     54 H           5.0141   -3.7901    6.8030 H       1  UNL1        0.0630
     55 H           5.4495   -4.6532    8.9224 H       1  UNL1        0.0279
     56 H           7.0718   -5.3561    8.9376 H       1  UNL1        0.0279
     57 H           5.6312   -6.4033    9.0845 H       1  UNL1        0.0279
     58 H           7.1666   -7.6726    4.6095 H       1  UNL1        0.0691
     59 H           6.9731   -6.5488    2.7402 H       1  UNL1        0.2922
     60 H           7.2755   -7.5694    8.0710 H       1  UNL1        0.2921
@<TRIPOS>BOND
     1     1     2    1
     2     2     3    1
     3     3     4   am
     4     4     5    2
     5     4     6    1
     6     6     7   ar
     7     7     8   ar
     8     8     9   ar
     9     9    10   ar
    10     6    10   ar
    11    10    11    1
    12    11    12   ar
    13    12    13   ar
    14    13    14   ar
    15    14    15   ar
    16    15    16   ar
    17    11    16   ar
    18    14    17    1
    19    17    18    1
    20    18    19    1
    21    18    20    1
    22    20    21    1
    23    21    22    1
    24    22    23    1
    25    23    24    1
    26    18    24    1
    27     9    25    1
    28    25    26   ar
    29    26    27   ar
    30    27    28    1
    31    27    29   ar
    32    29    30   ar
    33    30    31   ar
    34    25    31   ar
    35    31    32    1
    36    29    33    1
    37     1    34    1
    38     1    35    1
    39     1    36    1
    40     2    37    1
    41     2    38    1
    42     3    39    1
    43    12    40    1
    44    13    41    1
    45    15    42    1
    46    16    43    1
    47    17    44    1
    48    17    45    1
    49    20    46    1
    50    20    47    1
    51    21    48    1
    52    21    49    1
    53    23    50    1
    54    23    51    1
    55    24    52    1
    56    24    53    1
    57    26    54    1
    58    28    55    1
    59    28    56    1
    60    28    57    1
    61    30    58    1
    62    32    59    1
    63    33    60    1
@<TRIPOS>MOLECULE
*****
 31 33 0 0 0
SMALL
GASTEIGER

@<TRIPOS>ATOM
      1 O           1.3917    0.2441    0.8559 O.3     1  UNL1       -0.5059
      2 C           2.6440    0.1289    0.3232 C.ar    1  UNL1        0.1311
      3 C           3.4295    1.2820    0.2234 C.ar    1  UNL1        0.0231
      4 C           4.7677    1.1718   -0.1467 C.ar    1  UNL1        0.1343
      5 O           5.5282    2.2991   -0.2784 O.3     1  UNL1       -0.5055
      6 C           5.3328   -0.0840   -0.3626 C.ar    1  UNL1        0.0601
      7 C           4.5264   -1.2228   -0.3316 C.ar    1  UNL1       -0.0300
      8 C           3.1521   -1.1222   -0.0521 C.ar    1  UNL1        0.0622
      9 C           2.3641   -2.3843   -0.1551 C.ar    1  UNL1        0.1728
     10 N           2.9337   -3.5406    0.0652 N.ar    1  UNL1       -0.1507
     11 N           1.9301   -4.4537   -0.0769 N.ar    1  UNL1       -0.2260
     12 H           2.0810   -5.4541   -0.0191 H       1  UNL1        0.1937
     13 C           0.7345   -3.8332   -0.4083 C.ar    1  UNL1        0.3490
     14 O          -0.3142   -4.4127   -0.6447 O.2     1  UNL1       -0.2446
     15 N           1.0292   -2.4831   -0.4645 N.ar    1  UNL1       -0.2408
     16 C           0.0909   -1.5167   -0.8642 C.ar    1  UNL1        0.0881
     17 C          -1.1489   -1.4635   -0.2101 C.ar    1  UNL1       -0.0348
     18 C          -2.0345   -0.4095   -0.4515 C.ar    1  UNL1       -0.0596
     19 C          -1.7145    0.5726   -1.3883 C.ar    1  UNL1       -0.0589
     20 C          -0.5197    0.4860   -2.1025 C.ar    1  UNL1       -0.0244
     21 C           0.3740   -0.5522   -1.8369 C.ar    1  UNL1        0.1473
     22 F           1.5138   -0.6081   -2.5423 F       1  UNL1       -0.2033
     23 BR          7.1838   -0.2914   -0.7132 Br      1  UNL1       -0.0465
     24 H           1.1360    1.1793    0.9210 H       1  UNL1        0.2922
     25 H           3.0114    2.2541    0.4629 H       1  UNL1        0.0691
     26 H           4.9473    3.0668   -0.4060 H       1  UNL1        0.2922
     27 H           4.9703   -2.1971   -0.5293 H       1  UNL1        0.0638
     28 H          -1.4023   -2.2029    0.5474 H       1  UNL1        0.0639
     29 H          -2.9653   -0.3505    0.1081 H       1  UNL1        0.0618
     30 H          -2.4008    1.3975   -1.5647 H       1  UNL1        0.0618
     31 H          -0.2736    1.2265   -2.8575 H       1  UNL1        0.0647
@<TRIPOS>BOND
     1     1     2    1
     2     2     3   ar
     3     3     4   ar
     4     4     5    1
     5     4     6   ar
     6     6     7   ar
     7     7     8   ar
     8     2     8   ar
     9     8     9    1
    10     9    10   ar
    11    10    11   ar
    12    11    12    1
    13    11    13   ar
    14    13    14    2
    15    13    15   ar
    16     9    15   ar
    17    15    16    1
    18    16    17   ar
    19    17    18   ar
    20    18    19   ar
    21    19    20   ar
    22    20    21   ar
    23    16    21   ar
    24    21    22    1
    25     6    23    1
    26     1    24    1
    27     3    25    1
    28     5    26    1
    29     7    27    1
    30    17    28    1
    31    18    29    1
    32    19    30    1
    33    20    31    1
@<TRIPOS>MOLECULE
*****
 49 51 0 0 0
SMALL
GASTEIGER

@<TRIPOS>ATOM
      1 C           1.0429    0.2285   -0.3897 C.3     1  UNL1        0.0790
      2 O           2.3463   -0.0473    0.0983 O.3     1  UNL1       -0.4915
      3 C           3.0089    0.9075    0.8134 C.ar    1  UNL1        0.1615
      4 C           2.7450    2.2594    0.6482 C.ar    1  UNL1       -0.0157
      5 C           3.5051    3.2259    1.3153 C.ar    1  UNL1       -0.0503
      6 C           4.4866    2.9124    2.2798 C.ar    1  UNL1       -0.0122
      7 C           4.6969    1.5322    2.4696 C.ar    1  UNL1       -0.0085
      8 C           4.0334    0.5319    1.7012 C.ar    1  UNL1        0.1625
      9 O           4.4951   -0.7516    1.9413 O.3     1  UNL1       -0.4883
     10 C           4.0502   -1.7821    1.0395 C.3     1  UNL1        0.0901
     11 C           4.7806   -3.1008    1.2961 C.3     1  UNL1       -0.0135
     12 C           4.1940   -4.2361    0.4519 C.3     1  UNL1       -0.0101
     13 C           4.2898   -4.0485   -1.0644 C.2     1  UNL1        0.0419
     14 O           5.3058   -3.4293   -1.4821 O.co2   1  UNL1       -0.5498
     15 O           3.3296   -4.5512   -1.7194 O.co2   1  UNL1       -0.5498
     16 C           5.1887    4.0135    3.0426 C.ar    1  UNL1        0.0144
     17 C           4.4799    5.1987    3.4574 C.ar    1  UNL1        0.0995
     18 C           3.0755    5.4142    3.2262 C.1     1  UNL1        0.1032
     19 N           1.9667    5.6888    2.9994 N.1     1  UNL1       -0.1907
     20 C           5.1381    6.2572    4.0900 C.ar    1  UNL1        0.1356
     21 N           4.4974    7.4240    4.5077 N.pl3   1  UNL1       -0.3421
     22 N           6.4178    6.2207    4.4157 N.ar    1  UNL1       -0.2239
     23 C           7.0762    5.1109    4.0775 C.ar    1  UNL1        0.1135
     24 C           6.5979    3.9832    3.3967 C.ar    1  UNL1        0.0381
     25 C           7.7460    3.0819    3.2357 C.ar    1  UNL1        0.0540
     26 N           7.7365    1.9033    2.5702 N.pl3   1  UNL1       -0.3564
     27 C           8.9153    3.5197    3.8499 C.ar    1  UNL1        0.0968
     28 S           8.7020    5.0558    4.5375 S.2     1  UNL1       -0.0621
     29 C          10.2228    2.8836    3.9354 C.2     1  UNL1        0.2500
     30 O          10.4937    1.7797    3.4567 O.2     1  UNL1       -0.2698
     31 N          11.2080    3.5638    4.6035 N.am    1  UNL1       -0.3249
     32 H           0.6652   -0.6841   -0.8630 H       1  UNL1        0.0660
     33 H           1.0499    1.0090   -1.1560 H       1  UNL1        0.0660
     34 H           0.3677    0.4847    0.4328 H       1  UNL1        0.0660
     35 H           1.9736    2.6072   -0.0323 H       1  UNL1        0.0655
     36 H           3.2777    4.2557    1.0495 H       1  UNL1        0.0625
     37 H           5.4064    1.1855    3.2190 H       1  UNL1        0.0661
     38 H           4.2364   -1.4768    0.0042 H       1  UNL1        0.0696
     39 H           2.9841   -1.9629    1.2173 H       1  UNL1        0.0696
     40 H           4.6992   -3.3612    2.3585 H       1  UNL1        0.0301
     41 H           5.8511   -2.9773    1.0956 H       1  UNL1        0.0301
     42 H           3.1395   -4.3799    0.7234 H       1  UNL1        0.0326
     43 H           4.7116   -5.1725    0.6930 H       1  UNL1        0.0326
     44 H           3.9514    7.8751    3.7822 H       1  UNL1        0.1437
     45 H           5.2121    8.0399    4.8882 H       1  UNL1        0.1437
     46 H           7.0728    1.6750    1.8351 H       1  UNL1        0.1424
     47 H           8.5858    1.3306    2.5044 H       1  UNL1        0.1424
     48 H          11.0385    4.4737    5.0148 H       1  UNL1        0.1453
     49 H          12.1212    3.1375    4.6724 H       1  UNL1        0.1453
@<TRIPOS>BOND
     1     1     2    1
     2     2     3    1
     3     3     4   ar
     4     4     5   ar
     5     5     6   ar
     6     6     7   ar
     7     7     8   ar
     8     3     8   ar
     9     8     9    1
    10     9    10    1
    11    10    11    1
    12    11    12    1
    13    12    13    1
    14    13    14   ar
    15    13    15   ar
    16     6    16    1
    17    16    17   ar
    18    17    18    1
    19    18    19    3
    20    17    20   ar
    21    20    21    1
    22    20    22   ar
    23    22    23   ar
    24    23    24   ar
    25    16    24   ar
    26    24    25   ar
    27    25    26    1
    28    25    27   ar
    29    27    28   ar
    30    23    28   ar
    31    27    29    1
    32    29    30    2
    33    29    31   am
    34     1    32    1
    35     1    33    1
    36     1    34    1
    37     4    35    1
    38     5    36    1
    39     7    37    1
    40    10    38    1
    41    10    39    1
    42    11    40    1
    43    11    41    1
    44    12    42    1
    45    12    43    1
    46    21    44    1
    47    21    45    1
    48    26    46    1
    49    26    47    1
    50    31    48    1
    51    31    49    1
@<TRIPOS>MOLECULE
*****
 40 42 0 0 0
SMALL
GASTEIGER

@<TRIPOS>ATOM
      1 C           2.8573   -0.3589   -1.3203 C.3     1  UNL1       -0.0611
      2 C           2.1137   -0.0485   -0.0331 C.3     1  UNL1       -0.0271
      3 C           2.6808    1.1213    0.7319 C.ar    1  UNL1       -0.0054
      4 C           2.2299    2.4281    0.4700 C.ar    1  UNL1       -0.0424
      5 C           2.6433    3.5307    1.2495 C.ar    1  UNL1        0.0446
      6 C           3.4403    3.2629    2.3628 C.ar    1  UNL1        0.1296
      7 C           4.0016    2.0004    2.5653 C.ar    1  UNL1        0.0222
      8 C           3.6497    0.9500    1.7199 C.ar    1  UNL1        0.1235
      9 O           4.2427   -0.2718    1.8672 O.3     1  UNL1       -0.5064
     10 O           3.7107    4.1773    3.3476 O.3     1  UNL1       -0.5060
     11 C           2.2405    4.8908    0.8380 C.ar    1  UNL1        0.1040
     12 N           1.0603    5.0496    0.2169 N.ar    1  UNL1       -0.1729
     13 N           0.9937    6.3448   -0.0840 N.ar    1  UNL1       -0.2807
     14 H           0.1842    6.6737   -0.6009 H       1  UNL1        0.1885
     15 C           2.0618    7.0747    0.3428 C.ar    1  UNL1        0.0414
     16 C           2.9328    6.1656    0.9365 C.ar    1  UNL1        0.0330
     17 C           4.2699    6.5278    1.4340 C.ar    1  UNL1        0.0211
     18 C           5.3584    5.6595    1.2509 C.ar    1  UNL1       -0.0512
     19 C           6.6365    5.9819    1.7299 C.ar    1  UNL1       -0.0610
     20 C           6.8685    7.2097    2.3413 C.ar    1  UNL1       -0.0590
     21 C           5.8117    8.0933    2.5203 C.ar    1  UNL1       -0.0258
     22 C           4.5280    7.7348    2.1051 C.ar    1  UNL1        0.1312
     23 F           3.5393    8.5922    2.3981 F       1  UNL1       -0.2049
     24 C           2.0932    8.5402    0.0991 C.3     1  UNL1       -0.0223
     25 H           2.3772   -1.1990   -1.8348 H       1  UNL1        0.0233
     26 H           3.8977   -0.6349   -1.1225 H       1  UNL1        0.0233
     27 H           2.8540    0.4997   -1.9989 H       1  UNL1        0.0233
     28 H           2.1058   -0.9390    0.6081 H       1  UNL1        0.0312
     29 H           1.0583    0.1492   -0.2595 H       1  UNL1        0.0312
     30 H           1.5367    2.5917   -0.3563 H       1  UNL1        0.0629
     31 H           4.6854    1.8476    3.3904 H       1  UNL1        0.0691
     32 H           5.0693   -0.1450    2.3611 H       1  UNL1        0.2921
     33 H           3.0485    4.8882    3.2876 H       1  UNL1        0.2922
     34 H           5.2299    4.7003    0.7550 H       1  UNL1        0.0625
     35 H           7.4491    5.2671    1.6233 H       1  UNL1        0.0618
     36 H           7.8658    7.4715    2.6869 H       1  UNL1        0.0618
     37 H           5.9697    9.0577    2.9940 H       1  UNL1        0.0646
     38 H           1.4256    8.8263   -0.7204 H       1  UNL1        0.0292
     39 H           3.0988    8.8837   -0.1623 H       1  UNL1        0.0292
     40 H           1.7556    9.0772    0.9914 H       1  UNL1        0.0292
@<TRIPOS>BOND
     1     1     2    1
     2     2     3    1
     3     3     4   ar
     4     4     5   ar
     5     5     6   ar
     6     6     7   ar
     7     7     8   ar
     8     3     8   ar
     9     8     9    1
    10     6    10    1
    11     5    11    1
    12    11    12   ar
    13    12    13   ar
    14    13    14    1
    15    13    15   ar
    16    15    16   ar
    17    11    16   ar
    18    16    17    1
    19    17    18   ar
    20    18    19   ar
    21    19    20   ar
    22    20    21   ar
    23    21    22   ar
    24    17    22   ar
    25    22    23    1
    26    15    24    1
    27     1    25    1
    28     1    26    1
    29     1    27    1
    30     2    28    1
    31     2    29    1
    32     4    30    1
    33     7    31    1
    34     9    32    1
    35    10    33    1
    36    18    34    1
    37    19    35    1
    38    20    36    1
    39    21    37    1
    40    24    38    1
    41    24    39    1
    42    24    40    1
@<TRIPOS>MOLECULE
*****
 31 33 0 0 0
SMALL
GASTEIGER

@<TRIPOS>ATOM
      1 O           0.9462    0.2054    0.2678 O.3     1  UNL1       -0.5066
      2 C           2.2997    0.1512    0.1227 C.ar    1  UNL1        0.1204
      3 C           3.0134    1.2209   -0.3980 C.ar    1  UNL1       -0.0193
      4 C           4.3934    1.0942   -0.5806 C.ar    1  UNL1       -0.0441
      5 C           5.0682   -0.0919   -0.2304 C.ar    1  UNL1        0.0612
      6 C           4.3409   -1.1046    0.4009 C.ar    1  UNL1        0.1310
      7 C           2.9534   -1.0045    0.5330 C.ar    1  UNL1        0.0220
      8 O           4.8985   -2.2092    0.9822 O.3     1  UNL1       -0.5059
      9 C           6.5229   -0.1283   -0.5201 C.ar    1  UNL1        0.1728
     10 N           7.2319    0.9704   -0.5171 N.ar    1  UNL1       -0.1507
     11 N           8.5058    0.5647   -0.7694 N.ar    1  UNL1       -0.2260
     12 H           9.2640    1.2072   -0.9555 H       1  UNL1        0.1937
     13 C           8.5553   -0.8074   -0.9805 C.ar    1  UNL1        0.3490
     14 O           9.5392   -1.4100   -1.3835 O.2     1  UNL1       -0.2446
     15 N           7.2627   -1.2577   -0.7682 N.ar    1  UNL1       -0.2408
     16 C           6.9058   -2.5758   -1.1102 C.ar    1  UNL1        0.0881
     17 C           5.9016   -2.8666   -2.0376 C.ar    1  UNL1       -0.0348
     18 C           5.6712   -4.1932   -2.4210 C.ar    1  UNL1       -0.0596
     19 C           6.4194   -5.2380   -1.8652 C.ar    1  UNL1       -0.0589
     20 C           7.3928   -4.9586   -0.9107 C.ar    1  UNL1       -0.0244
     21 C           7.6330   -3.6388   -0.5481 C.ar    1  UNL1        0.1473
     22 F           8.5313   -3.3959    0.4195 F       1  UNL1       -0.2033
     23 H           0.6200    1.0355   -0.1178 H       1  UNL1        0.2921
     24 H           2.5236    2.1524   -0.6663 H       1  UNL1        0.0654
     25 H           4.9427    1.9384   -0.9961 H       1  UNL1        0.0627
     26 H           2.3879   -1.8172    0.9806 H       1  UNL1        0.0691
     27 H           5.8179   -2.0101    1.2317 H       1  UNL1        0.2922
     28 H           5.3261   -2.0749   -2.5114 H       1  UNL1        0.0639
     29 H           4.9144   -4.4196   -3.1709 H       1  UNL1        0.0618
     30 H           6.2402   -6.2653   -2.1727 H       1  UNL1        0.0618
     31 H           7.9679   -5.7535   -0.4481 H       1  UNL1        0.0647
@<TRIPOS>BOND
     1     1     2    1
     2     2     3   ar
     3     3     4   ar
     4     4     5   ar
     5     5     6   ar
     6     6     7   ar
     7     2     7   ar
     8     6     8    1
     9     5     9    1
    10     9    10   ar
    11    10    11   ar
    12    11    12    1
    13    11    13   ar
    14    13    14    2
    15    13    15   ar
    16     9    15   ar
    17    15    16    1
    18    16    17   ar
    19    17    18   ar
    20    18    19   ar
    21    19    20   ar
    22    20    21   ar
    23    16    21   ar
    24    21    22    1
    25     1    23    1
    26     3    24    1
    27     4    25    1
    28     7    26    1
    29     8    27    1
    30    17    28    1
    31    18    29    1
    32    19    30    1
    33    20    31    1
@<TRIPOS>MOLECULE
*****
 38 41 0 0 0
SMALL
GASTEIGER

@<TRIPOS>ATOM
      1 O           4.7385    1.9976   -1.9265 O.3     1  UNL1       -0.5060
      2 C           4.1021    0.9109   -1.3845 C.ar    1  UNL1        0.1280
      3 C           4.6199   -0.3607   -1.6879 C.ar    1  UNL1        0.0059
      4 C           3.8674   -1.4629   -1.2766 C.ar    1  UNL1        0.0695
      5 N           4.0246   -2.8070   -1.4823 N.ar    1  UNL1       -0.2766
      6 H           4.7761   -3.2758   -1.9758 H       1  UNL1        0.1889
      7 N           3.0091   -3.5567   -1.0218 N.ar    1  UNL1       -0.1780
      8 C           2.1768   -2.6635   -0.4708 C.ar    1  UNL1        0.0675
      9 C           2.6912   -1.3423   -0.5535 C.ar    1  UNL1        0.0232
     10 C           2.2571   -0.0611   -0.1660 C.ar    1  UNL1       -0.0381
     11 C           2.9400    1.0926   -0.6129 C.ar    1  UNL1        0.0422
     12 C           2.2842    2.3980   -0.3827 C.ar    1  UNL1        0.0734
     13 C           0.9153    2.6448   -0.3686 C.ar    1  UNL1       -0.0162
     14 C           0.7619    4.0222   -0.1997 C.ar    1  UNL1        0.0500
     15 N           1.9286    4.6415   -0.0778 N.ar    1  UNL1       -0.1783
     16 N           2.8572    3.6404   -0.1341 N.ar    1  UNL1       -0.2530
     17 C           4.2549    3.9802    0.2009 C.3     1  UNL1        0.0896
     18 C           4.8393    4.9756   -0.7912 C.2     1  UNL1       -0.0597
     19 C           5.3048    6.1886   -0.4452 C.2     1  UNL1       -0.0819
     20 C           5.2960    6.7009    0.9675 C.3     1  UNL1       -0.0164
     21 C           4.8278    5.6881    1.9739 C.2     1  UNL1       -0.0819
     22 C           4.3603    4.4713    1.6357 C.2     1  UNL1       -0.0597
     23 C           0.8491   -3.0848    0.0404 C.3     1  UNL1       -0.0200
     24 H           5.5198    1.6992   -2.4210 H       1  UNL1        0.2922
     25 H           5.5153   -0.4918   -2.2843 H       1  UNL1        0.0675
     26 H           1.3473    0.0252    0.4217 H       1  UNL1        0.0632
     27 H           0.1267    1.9176   -0.4990 H       1  UNL1        0.0654
     28 H          -0.1499    4.6031   -0.1621 H       1  UNL1        0.0848
     29 H           4.8430    3.0623    0.1620 H       1  UNL1        0.0633
     30 H           4.8431    4.6780   -1.8356 H       1  UNL1        0.0593
     31 H           5.6842    6.8581   -1.2113 H       1  UNL1        0.0573
     32 H           4.6477    7.5828    1.0238 H       1  UNL1        0.0350
     33 H           6.3096    7.0171    1.2346 H       1  UNL1        0.0350
     34 H           4.8517    5.9781    3.0183 H       1  UNL1        0.0573
     35 H           4.0109    3.7942    2.4074 H       1  UNL1        0.0593
     36 H           0.7562   -4.1746    0.0789 H       1  UNL1        0.0293
     37 H           0.0622   -2.7056   -0.6224 H       1  UNL1        0.0293
     38 H           0.6717   -2.6879    1.0439 H       1  UNL1        0.0293
@<TRIPOS>BOND
     1     1     2    1
     2     2     3   ar
     3     3     4   ar
     4     4     5   ar
     5     5     6    1
     6     5     7   ar
     7     7     8   ar
     8     8     9   ar
     9     4     9   ar
    10     9    10   ar
    11    10    11   ar
    12     2    11   ar
    13    11    12    1
    14    12    13   ar
    15    13    14   ar
    16    14    15   ar
    17    15    16   ar
    18    12    16   ar
    19    16    17    1
    20    17    18    1
    21    18    19    2
    22    19    20    1
    23    20    21    1
    24    21    22    2
    25    17    22    1
    26     8    23    1
    27     1    24    1
    28     3    25    1
    29    10    26    1
    30    13    27    1
    31    14    28    1
    32    17    29    1
    33    18    30    1
    34    19    31    1
    35    20    32    1
    36    20    33    1
    37    21    34    1
    38    22    35    1
    39    23    36    1
    40    23    37    1
    41    23    38    1
@<TRIPOS>MOLECULE
*****
 40 42 0 0 0
SMALL
GASTEIGER

@<TRIPOS>ATOM
      1 C           0.9865    0.4522   -0.8076 C.3     1  UNL1        0.0376
      2 O           2.2396    0.1925   -0.1988 O.3     1  UNL1       -0.3717
      3 C           3.2240   -0.3822   -1.0613 C.3     1  UNL1        0.0947
      4 C           4.4712   -0.4812   -0.2141 C.2     1  UNL1       -0.0549
      5 C           4.8684   -1.6321    0.3574 C.2     1  UNL1       -0.0740
      6 C           4.0739   -2.9094    0.1986 C.3     1  UNL1        0.0242
      7 C           3.1864   -2.8872   -1.0270 C.2     1  UNL1       -0.0740
      8 C           2.7803   -1.7286   -1.5793 C.2     1  UNL1       -0.0549
      9 C           4.8504   -4.2003    0.3173 C.ar    1  UNL1        0.0113
     10 C           6.1696   -4.4706   -0.0314 C.ar    1  UNL1        0.0376
     11 C           7.2919   -3.6607   -0.5666 C.3     1  UNL1       -0.0226
     12 N           6.3449   -5.8055    0.1878 N.ar    1  UNL1       -0.2810
     13 H           7.1771   -6.3582    0.0117 H       1  UNL1        0.1885
     14 N           5.2688   -6.4343    0.6578 N.ar    1  UNL1       -0.1732
     15 C           4.3239   -5.4810    0.7641 C.ar    1  UNL1        0.1003
     16 C           2.9472   -5.8798    1.1436 C.ar    1  UNL1        0.0440
     17 C           2.4665   -7.1220    0.6783 C.ar    1  UNL1       -0.0455
     18 C           1.1376   -7.5176    0.8730 C.ar    1  UNL1       -0.0193
     19 C           0.2640   -6.6592    1.5230 C.ar    1  UNL1        0.1204
     20 C           0.7156   -5.4561    2.0446 C.ar    1  UNL1        0.0220
     21 C           2.0595   -5.0941    1.8934 C.ar    1  UNL1        0.1295
     22 O           2.4840   -3.9809    2.5645 O.3     1  UNL1       -0.5060
     23 O          -1.0527   -6.9684    1.6896 O.3     1  UNL1       -0.5066
     24 H           0.3951    1.0583   -0.1156 H       1  UNL1        0.0524
     25 H           0.4410   -0.4810   -0.9800 H       1  UNL1        0.0524
     26 H           1.1075    1.0047   -1.7431 H       1  UNL1        0.0524
     27 H           3.4240    0.2883   -1.9053 H       1  UNL1        0.0685
     28 H           5.0091    0.4386   -0.0199 H       1  UNL1        0.0598
     29 H           5.7203   -1.6357    1.0351 H       1  UNL1        0.0579
     30 H           3.3985   -2.8567    1.0435 H       1  UNL1        0.0435
     31 H           2.8162   -3.8314   -1.4157 H       1  UNL1        0.0579
     32 H           2.1022   -1.7461   -2.4240 H       1  UNL1        0.0598
     33 H           7.0440   -2.6046   -0.6756 H       1  UNL1        0.0292
     34 H           7.5945   -4.0271   -1.5526 H       1  UNL1        0.0292
     35 H           8.1574   -3.7284    0.1023 H       1  UNL1        0.0292
     36 H           3.1383   -7.7959    0.1482 H       1  UNL1        0.0626
     37 H           0.8127   -8.4850    0.5035 H       1  UNL1        0.0654
     38 H           0.0214   -4.8232    2.5887 H       1  UNL1        0.0691
     39 H           1.7249   -3.3852    2.6888 H       1  UNL1        0.2922
     40 H          -1.2239   -7.8290    1.2728 H       1  UNL1        0.2921
@<TRIPOS>BOND
     1     1     2    1
     2     2     3    1
     3     3     4    1
     4     4     5    2
     5     5     6    1
     6     6     7    1
     7     7     8    2
     8     3     8    1
     9     6     9    1
    10     9    10   ar
    11    10    11    1
    12    10    12   ar
    13    12    13    1
    14    12    14   ar
    15    14    15   ar
    16     9    15   ar
    17    15    16    1
    18    16    17   ar
    19    17    18   ar
    20    18    19   ar
    21    19    20   ar
    22    20    21   ar
    23    16    21   ar
    24    21    22    1
    25    19    23    1
    26     1    24    1
    27     1    25    1
    28     1    26    1
    29     3    27    1
    30     4    28    1
    31     5    29    1
    32     6    30    1
    33     7    31    1
    34     8    32    1
    35    11    33    1
    36    11    34    1
    37    11    35    1
    38    17    36    1
    39    18    37    1
    40    20    38    1
    41    22    39    1
    42    23    40    1
@<TRIPOS>MOLECULE
*****
 48 51 0 0 0
SMALL
GASTEIGER

@<TRIPOS>ATOM
      1 O           1.2093    0.0531   -1.8648 O.3     1  UNL1       -0.5059
      2 C           2.4340    0.1417   -1.2650 C.ar    1  UNL1        0.1325
      3 C           3.1653    1.3130   -1.4236 C.ar    1  UNL1        0.0228
      4 C           4.5075    1.3430   -1.0543 C.ar    1  UNL1        0.1310
      5 O           5.1712    2.5263   -1.2131 O.3     1  UNL1       -0.5059
      6 C           5.1512    0.1872   -0.5904 C.ar    1  UNL1        0.0619
      7 C           4.3357   -0.8909   -0.2012 C.ar    1  UNL1       -0.0319
      8 C           2.9615   -0.9319   -0.5388 C.ar    1  UNL1        0.0791
      9 C           2.2025   -2.1775   -0.1966 C.2     1  UNL1        0.2503
     10 O           2.8363   -3.2386   -0.2509 O.2     1  UNL1       -0.2699
     11 N           0.8641   -2.1519    0.2225 N.am    1  UNL1       -0.2932
     12 C           0.1963   -3.4247    0.4768 C.3     1  UNL1        0.0726
     13 C          -0.3946   -3.9881   -0.7684 C.ar    1  UNL1        0.1220
     14 C           0.1380   -4.6794   -1.8375 C.ar    1  UNL1       -0.0191
     15 C          -0.9426   -4.9942   -2.6946 C.ar    1  UNL1       -0.0236
     16 C          -2.0691   -4.4866   -2.0917 C.ar    1  UNL1        0.0921
     17 O          -1.7493   -3.8725   -0.9215 O.2     1  UNL1       -0.4662
     18 C           0.0236   -0.9702    0.4033 C.3     1  UNL1        0.0039
     19 C           6.6495    0.1164   -0.6266 C.ar    1  UNL1        0.1728
     20 N           7.3937    1.1888   -0.5489 N.ar    1  UNL1       -0.1507
     21 N           8.6790    0.7478   -0.6576 N.ar    1  UNL1       -0.2260
     22 H           9.4607    1.3745   -0.7803 H       1  UNL1        0.1937
     23 C           8.7133   -0.6251   -0.8285 C.ar    1  UNL1        0.3490
     24 O           9.7233   -1.2769   -1.0499 O.2     1  UNL1       -0.2446
     25 N           7.3930   -1.0367   -0.7655 N.ar    1  UNL1       -0.2408
     26 C           7.0312   -2.3889   -0.9186 C.ar    1  UNL1        0.0881
     27 C           7.6526   -3.3406   -0.1008 C.ar    1  UNL1       -0.0348
     28 C           7.2252   -4.6712   -0.1056 C.ar    1  UNL1       -0.0596
     29 C           6.1936   -5.0666   -0.9535 C.ar    1  UNL1       -0.0589
     30 C           5.6205   -4.1435   -1.8269 C.ar    1  UNL1       -0.0244
     31 C           6.0463   -2.8149   -1.8133 C.ar    1  UNL1        0.1473
     32 F           5.4944   -1.9542   -2.6825 F       1  UNL1       -0.2033
     33 H           0.9219    0.9295   -2.1673 H       1  UNL1        0.2922
     34 H           2.7264    2.1788   -1.9069 H       1  UNL1        0.0691
     35 H           4.5659    3.2624   -1.0234 H       1  UNL1        0.2922
     36 H           4.7630   -1.7468    0.3150 H       1  UNL1        0.0634
     37 H          -0.5825   -3.2729    1.2307 H       1  UNL1        0.0545
     38 H           0.9122   -4.1410    0.9019 H       1  UNL1        0.0545
     39 H           1.1836   -4.9238   -1.9667 H       1  UNL1        0.0652
     40 H          -0.9057   -5.5294   -3.6328 H       1  UNL1        0.0649
     41 H          -3.1183   -4.4812   -2.3526 H       1  UNL1        0.1029
     42 H           0.5863   -0.0399    0.4132 H       1  UNL1        0.0429
     43 H          -0.4749   -1.0340    1.3748 H       1  UNL1        0.0429
     44 H          -0.7356   -0.9497   -0.3858 H       1  UNL1        0.0429
     45 H           8.4468   -3.0487    0.5861 H       1  UNL1        0.0639
     46 H           7.6858   -5.3893    0.5685 H       1  UNL1        0.0618
     47 H           5.8334   -6.0928   -0.9308 H       1  UNL1        0.0618
     48 H           4.8184   -4.4407   -2.4954 H       1  UNL1        0.0647
@<TRIPOS>BOND
     1     1     2    1
     2     2     3   ar
     3     3     4   ar
     4     4     5    1
     5     4     6   ar
     6     6     7   ar
     7     7     8   ar
     8     2     8   ar
     9     8     9    1
    10     9    10    2
    11     9    11   am
    12    11    12    1
    13    12    13    1
    14    13    14   ar
    15    14    15   ar
    16    15    16   ar
    17    16    17   ar
    18    13    17   ar
    19    11    18    1
    20     6    19    1
    21    19    20   ar
    22    20    21   ar
    23    21    22    1
    24    21    23   ar
    25    23    24    2
    26    23    25   ar
    27    19    25   ar
    28    25    26    1
    29    26    27   ar
    30    27    28   ar
    31    28    29   ar
    32    29    30   ar
    33    30    31   ar
    34    26    31   ar
    35    31    32    1
    36     1    33    1
    37     3    34    1
    38     5    35    1
    39     7    36    1
    40    12    37    1
    41    12    38    1
    42    14    39    1
    43    15    40    1
    44    16    41    1
    45    18    42    1
    46    18    43    1
    47    18    44    1
    48    27    45    1
    49    28    46    1
    50    29    47    1
    51    30    48    1
@<TRIPOS>MOLECULE
*****
 51 54 0 0 0
SMALL
GASTEIGER

@<TRIPOS>ATOM
      1 O           1.4911   -0.1551   -1.7981 O.3     1  UNL1       -0.5059
      2 C           2.6362    0.0103   -1.0756 C.ar    1  UNL1        0.1325
      3 C           3.2845    1.2333   -1.1335 C.ar    1  UNL1        0.0228
      4 C           4.5614    1.3744   -0.5871 C.ar    1  UNL1        0.1310
      5 O           5.0508    2.6291   -0.5016 O.3     1  UNL1       -0.5059
      6 C           5.2756    0.2740   -0.1184 C.ar    1  UNL1        0.0619
      7 C           4.5192   -0.9098    0.0992 C.ar    1  UNL1       -0.0319
      8 C           3.1652   -1.0245   -0.3104 C.ar    1  UNL1        0.0791
      9 C           2.3948   -2.2733    0.0180 C.2     1  UNL1        0.2502
     10 O           3.0406   -3.3191    0.0611 O.2     1  UNL1       -0.2699
     11 N           1.0166   -2.2473    0.3191 N.am    1  UNL1       -0.2957
     12 C           0.3228   -3.5268    0.4963 C.3     1  UNL1        0.0459
     13 C          -0.2244   -4.0097   -0.8160 C.ar    1  UNL1        0.0071
     14 C           0.4678   -4.5835   -1.8651 C.ar    1  UNL1       -0.0500
     15 C          -0.3628   -4.8348   -2.9939 C.ar    1  UNL1       -0.0544
     16 C          -1.6753   -4.4983   -2.7525 C.ar    1  UNL1       -0.0240
     17 S          -1.9019   -3.9047   -1.1638 S.2     1  UNL1       -0.1000
     18 C           0.1482   -1.0732    0.4048 C.3     1  UNL1        0.0038
     19 C           6.7934    0.1668   -0.0942 C.ar    1  UNL1        0.1727
     20 N           7.3310   -1.0301   -0.1034 N.ar    1  UNL1       -0.1507
     21 N           8.6739   -0.8304   -0.2437 N.ar    1  UNL1       -0.2260
     22 H           9.3312   -1.5837   -0.3709 H       1  UNL1        0.1937
     23 C           8.9708    0.5227   -0.3362 C.ar    1  UNL1        0.3489
     24 O          10.0867    0.9925   -0.4888 O.2     1  UNL1       -0.2446
     25 N           7.7521    1.1637   -0.2102 N.ar    1  UNL1       -0.2434
     26 C           7.6631    2.5678   -0.1439 C.ar    1  UNL1        0.0558
     27 C           7.5641    3.2967   -1.3360 C.ar    1  UNL1       -0.0374
     28 C           7.3064    4.6671   -1.2976 C.ar    1  UNL1       -0.0598
     29 C           7.1689    5.3149   -0.0716 C.ar    1  UNL1       -0.0614
     30 C           7.3862    4.6119    1.1149 C.ar    1  UNL1       -0.0569
     31 C           7.6755    3.2384    1.0947 C.ar    1  UNL1       -0.0264
     32 C           8.1566    2.5836    2.3597 C.3     1  UNL1       -0.0377
     33 H           1.0874    0.7086   -1.9793 H       1  UNL1        0.2922
     34 H           2.8153    2.0757   -1.6272 H       1  UNL1        0.0691
     35 H           4.4343    3.2919   -0.8396 H       1  UNL1        0.2922
     36 H           4.9983   -1.7780    0.5559 H       1  UNL1        0.0634
     37 H          -0.4764   -3.3908    1.2365 H       1  UNL1        0.0519
     38 H           1.0067   -4.2758    0.9141 H       1  UNL1        0.0519
     39 H           1.5355   -4.7712   -1.8309 H       1  UNL1        0.0626
     40 H          -0.0102   -5.2325   -3.9370 H       1  UNL1        0.0623
     41 H          -2.5133   -4.5758   -3.4321 H       1  UNL1        0.0693
     42 H           0.7099   -0.1432    0.4912 H       1  UNL1        0.0429
     43 H          -0.4649   -1.1458    1.3033 H       1  UNL1        0.0429
     44 H          -0.5007   -1.0387   -0.4751 H       1  UNL1        0.0429
     45 H           7.6255    2.7864   -2.2932 H       1  UNL1        0.0638
     46 H           7.1826    5.2224   -2.2235 H       1  UNL1        0.0618
     47 H           6.9263    6.3737   -0.0366 H       1  UNL1        0.0618
     48 H           7.3429    5.1468    2.0619 H       1  UNL1        0.0621
     49 H           7.7108    3.0522    3.2430 H       1  UNL1        0.0278
     50 H           9.2454    2.7046    2.4225 H       1  UNL1        0.0278
     51 H           7.9234    1.5172    2.3983 H       1  UNL1        0.0278
@<TRIPOS>BOND
     1     1     2    1
     2     2     3   ar
     3     3     4   ar
     4     4     5    1
     5     4     6   ar
     6     6     7   ar
     7     7     8   ar
     8     2     8   ar
     9     8     9    1
    10     9    10    2
    11     9    11   am
    12    11    12    1
    13    12    13    1
    14    13    14   ar
    15    14    15   ar
    16    15    16   ar
    17    16    17   ar
    18    13    17   ar
    19    11    18    1
    20     6    19    1
    21    19    20   ar
    22    20    21   ar
    23    21    22    1
    24    21    23   ar
    25    23    24    2
    26    23    25   ar
    27    19    25   ar
    28    25    26    1
    29    26    27   ar
    30    27    28   ar
    31    28    29   ar
    32    29    30   ar
    33    30    31   ar
    34    26    31   ar
    35    31    32    1
    36     1    33    1
    37     3    34    1
    38     5    35    1
    39     7    36    1
    40    12    37    1
    41    12    38    1
    42    14    39    1
    43    15    40    1
    44    16    41    1
    45    18    42    1
    46    18    43    1
    47    18    44    1
    48    27    45    1
    49    28    46    1
    50    29    47    1
    51    30    48    1
    52    32    49    1
    53    32    50    1
    54    32    51    1
@<TRIPOS>MOLECULE
*****
 50 52 0 0 0
SMALL
GASTEIGER

@<TRIPOS>ATOM
      1 C           7.5073   -0.5921   -5.8623 C.3     1  UNL1       -0.0652
      2 C           6.8022    0.5189   -5.0966 C.3     1  UNL1       -0.0545
      3 C           6.9528    0.3130   -3.5913 C.3     1  UNL1       -0.0374
      4 C           6.2774    1.4128   -2.7629 C.3     1  UNL1        0.0147
      5 N           4.8122    1.3565   -2.7717 N.am    1  UNL1       -0.3005
      6 C           4.0832    2.5190   -3.1265 C.2     1  UNL1        0.2499
      7 O           4.6344    3.5383   -3.5349 O.2     1  UNL1       -0.2699
      8 C           2.5894    2.5245   -2.9585 C.ar    1  UNL1        0.0791
      9 C           1.8472    1.3997   -3.3306 C.ar    1  UNL1       -0.0319
     10 C           0.5647    1.1712   -2.8051 C.ar    1  UNL1        0.0619
     11 C          -0.0010    2.1470   -1.9826 C.ar    1  UNL1        0.1310
     12 C           0.6100    3.3952   -1.8627 C.ar    1  UNL1        0.0228
     13 C           1.9102    3.5807   -2.3411 C.ar    1  UNL1        0.1325
     14 O           2.4993    4.7932   -2.1267 O.3     1  UNL1       -0.5059
     15 O          -1.1303    1.9770   -1.2334 O.3     1  UNL1       -0.5059
     16 C           0.0144   -0.1820   -3.0473 C.ar    1  UNL1        0.1728
     17 N           0.8264   -1.2072   -2.9834 N.ar    1  UNL1       -0.1507
     18 N           0.0271   -2.2902   -3.1295 N.ar    1  UNL1       -0.2260
     19 H           0.3673   -3.2422   -3.0760 H       1  UNL1        0.1937
     20 C          -1.3006   -1.9132   -3.2677 C.ar    1  UNL1        0.3490
     21 O          -2.2257   -2.7076   -3.3689 O.2     1  UNL1       -0.2446
     22 N          -1.3020   -0.5260   -3.2601 N.ar    1  UNL1       -0.2408
     23 C          -2.4662    0.2770   -3.3965 C.ar    1  UNL1        0.0881
     24 C          -3.7157   -0.2103   -2.9787 C.ar    1  UNL1       -0.0348
     25 C          -4.8228    0.6385   -2.8715 C.ar    1  UNL1       -0.0596
     26 C          -4.7011    1.9897   -3.1782 C.ar    1  UNL1       -0.0589
     27 C          -3.5026    2.4665   -3.6953 C.ar    1  UNL1       -0.0244
     28 C          -2.4226    1.5997   -3.8545 C.ar    1  UNL1        0.1473
     29 F          -1.3293    2.0784   -4.4650 F       1  UNL1       -0.2033
     30 C           4.2323    0.1189   -2.2513 C.3     1  UNL1        0.0035
     31 H           7.4331   -0.4223   -6.9405 H       1  UNL1        0.0230
     32 H           7.0582   -1.5656   -5.6390 H       1  UNL1        0.0230
     33 H           8.5690   -0.6390   -5.5975 H       1  UNL1        0.0230
     34 H           5.7429    0.5340   -5.3759 H       1  UNL1        0.0263
     35 H           7.2320    1.4851   -5.3839 H       1  UNL1        0.0263
     36 H           8.0209    0.3012   -3.3400 H       1  UNL1        0.0280
     37 H           6.5639   -0.6756   -3.3206 H       1  UNL1        0.0280
     38 H           6.6430    2.3965   -3.0722 H       1  UNL1        0.0464
     39 H           6.5786    1.2883   -1.7137 H       1  UNL1        0.0464
     40 H           2.3098    0.6449   -3.9632 H       1  UNL1        0.0634
     41 H           0.1040    4.1828   -1.3101 H       1  UNL1        0.0691
     42 H           1.8225    5.4858   -2.2285 H       1  UNL1        0.2922
     43 H          -1.3297    1.0297   -1.1502 H       1  UNL1        0.2922
     44 H          -3.8546   -1.2435   -2.6689 H       1  UNL1        0.0639
     45 H          -5.7718    0.2436   -2.5151 H       1  UNL1        0.0618
     46 H          -5.5417    2.6627   -3.0317 H       1  UNL1        0.0618
     47 H          -3.3896    3.5127   -3.9616 H       1  UNL1        0.0647
     48 H           4.9746   -0.4533   -1.6879 H       1  UNL1        0.0429
     49 H           3.9133   -0.4918   -3.1019 H       1  UNL1        0.0429
     50 H           3.3960    0.3236   -1.5814 H       1  UNL1        0.0429
@<TRIPOS>BOND
     1     1     2    1
     2     2     3    1
     3     3     4    1
     4     4     5    1
     5     5     6   am
     6     6     7    2
     7     6     8    1
     8     8     9   ar
     9     9    10   ar
    10    10    11   ar
    11    11    12   ar
    12    12    13   ar
    13     8    13   ar
    14    13    14    1
    15    11    15    1
    16    10    16    1
    17    16    17   ar
    18    17    18   ar
    19    18    19    1
    20    18    20   ar
    21    20    21    2
    22    20    22   ar
    23    16    22   ar
    24    22    23    1
    25    23    24   ar
    26    24    25   ar
    27    25    26   ar
    28    26    27   ar
    29    27    28   ar
    30    23    28   ar
    31    28    29    1
    32     5    30    1
    33     1    31    1
    34     1    32    1
    35     1    33    1
    36     2    34    1
    37     2    35    1
    38     3    36    1
    39     3    37    1
    40     4    38    1
    41     4    39    1
    42     9    40    1
    43    12    41    1
    44    14    42    1
    45    15    43    1
    46    24    44    1
    47    25    45    1
    48    26    46    1
    49    27    47    1
    50    30    48    1
    51    30    49    1
    52    30    50    1
@<TRIPOS>MOLECULE
*****
 48 51 0 0 0
SMALL
GASTEIGER

@<TRIPOS>ATOM
      1 O           0.9747    0.3941    0.3788 O.3     1  UNL1       -0.5064
      2 C           2.3351    0.3660    0.2543 C.ar    1  UNL1        0.1235
      3 C           3.0292    1.5509    0.0193 C.ar    1  UNL1        0.0222
      4 C           4.4105    1.5144   -0.2015 C.ar    1  UNL1        0.1295
      5 O           5.0233    2.6653   -0.6157 O.3     1  UNL1       -0.5060
      6 C           5.1430    0.3241   -0.0753 C.ar    1  UNL1        0.0423
      7 C           4.4047   -0.8524    0.1958 C.ar    1  UNL1       -0.0424
      8 C           3.0009   -0.8604    0.3021 C.ar    1  UNL1       -0.0047
      9 C           2.2460   -2.1783    0.2672 C.3     1  UNL1       -0.0191
     10 C           2.5392   -3.1689    1.4039 C.3     1  UNL1       -0.0107
     11 C           1.8179   -4.4961    1.2100 C.2     1  UNL1        0.0043
     12 C           2.4721   -5.6720    1.1240 C.2     1  UNL1       -0.0632
     13 C           1.7369   -6.9830    0.9449 C.3     1  UNL1       -0.0134
     14 C           0.2457   -6.8205    0.8280 C.2     1  UNL1       -0.0664
     15 C          -0.3179   -5.6072    0.9232 C.2     1  UNL1       -0.0101
     16 N           0.4320   -4.4795    1.1266 N.pl3   1  UNL1       -0.3243
     17 C           6.5987    0.1909   -0.3486 C.ar    1  UNL1        0.0782
     18 C           7.2099   -0.9192   -0.9253 C.ar    1  UNL1       -0.0158
     19 C           8.5086   -0.5330   -1.2482 C.ar    1  UNL1        0.0504
     20 N           8.7584    0.7199   -0.8969 N.ar    1  UNL1       -0.1742
     21 N           7.6312    1.1424   -0.2382 N.ar    1  UNL1       -0.2306
     22 C           7.6868    2.4336    0.3620 C.ar    1  UNL1        0.0843
     23 C           8.4433    3.4194   -0.3102 C.ar    1  UNL1       -0.0348
     24 C           8.4139    4.7516    0.1040 C.ar    1  UNL1       -0.0597
     25 C           7.6421    5.1144    1.2015 C.ar    1  UNL1       -0.0603
     26 C           6.9647    4.1321    1.9272 C.ar    1  UNL1       -0.0413
     27 C           7.0116    2.7849    1.5344 C.ar    1  UNL1        0.0663
     28 CL          6.3493    1.6390    2.6470 Cl      1  UNL1       -0.0813
     29 H           0.6584    1.3054    0.2724 H       1  UNL1        0.2921
     30 H           2.4908    2.4886   -0.0585 H       1  UNL1        0.0691
     31 H           4.4387    3.4238   -0.4572 H       1  UNL1        0.2922
     32 H           4.9269   -1.8051    0.2600 H       1  UNL1        0.0629
     33 H           2.4740   -2.6502   -0.6985 H       1  UNL1        0.0318
     34 H           1.1681   -1.9813    0.2422 H       1  UNL1        0.0318
     35 H           2.2373   -2.7276    2.3619 H       1  UNL1        0.0329
     36 H           3.6197   -3.3421    1.4763 H       1  UNL1        0.0329
     37 H           3.5543   -5.7136    1.1928 H       1  UNL1        0.0590
     38 H           1.9562   -7.6298    1.8020 H       1  UNL1        0.0351
     39 H           2.1144   -7.4772    0.0432 H       1  UNL1        0.0351
     40 H          -0.3594   -7.7006    0.6711 H       1  UNL1        0.0587
     41 H          -1.3879   -5.4487    0.8481 H       1  UNL1        0.0778
     42 H          -0.0517   -3.5895    1.2107 H       1  UNL1        0.1513
     43 H           6.7423   -1.8625   -1.1678 H       1  UNL1        0.0655
     44 H           9.2749   -1.1023   -1.7581 H       1  UNL1        0.0848
     45 H           9.0244    3.1652   -1.1967 H       1  UNL1        0.0639
     46 H           8.9793    5.5013   -0.4443 H       1  UNL1        0.0618
     47 H           7.5925    6.1555    1.5101 H       1  UNL1        0.0618
     48 H           6.4115    4.4222    2.8172 H       1  UNL1        0.0633
@<TRIPOS>BOND
     1     1     2    1
     2     2     3   ar
     3     3     4   ar
     4     4     5    1
     5     4     6   ar
     6     6     7   ar
     7     7     8   ar
     8     2     8   ar
     9     8     9    1
    10     9    10    1
    11    10    11    1
    12    11    12    2
    13    12    13    1
    14    13    14    1
    15    14    15    2
    16    15    16    1
    17    11    16    1
    18     6    17    1
    19    17    18   ar
    20    18    19   ar
    21    19    20   ar
    22    20    21   ar
    23    17    21   ar
    24    21    22    1
    25    22    23   ar
    26    23    24   ar
    27    24    25   ar
    28    25    26   ar
    29    26    27   ar
    30    22    27   ar
    31    27    28    1
    32     1    29    1
    33     3    30    1
    34     5    31    1
    35     7    32    1
    36     9    33    1
    37     9    34    1
    38    10    35    1
    39    10    36    1
    40    12    37    1
    41    13    38    1
    42    13    39    1
    43    14    40    1
    44    15    41    1
    45    16    42    1
    46    18    43    1
    47    19    44    1
    48    23    45    1
    49    24    46    1
    50    25    47    1
    51    26    48    1
@<TRIPOS>MOLECULE
*****
 48 50 0 0 0
SMALL
GASTEIGER

@<TRIPOS>ATOM
      1 C           0.6977   -0.9341   -0.8927 C.3     1  UNL1       -0.0641
      2 C           2.1113   -0.7184   -0.3734 C.3     1  UNL1       -0.0414
      3 C           3.1465   -1.3188   -1.3184 C.3     1  UNL1        0.0200
      4 N           4.5539   -1.1170   -0.8878 N.3     1  UNL1       -0.1795
      5 S           5.0307   -1.6856    0.6581 S.O2    1  UNL1        0.0641
      6 O           4.1854   -2.8257    0.9686 O.2     1  UNL1       -0.1527
      7 O           6.4689   -1.8110    0.7178 O.2     1  UNL1       -0.1527
      8 C           4.5835   -0.3604    1.7590 C.ar    1  UNL1        0.1475
      9 C           3.7025   -0.6226    2.8239 C.ar    1  UNL1       -0.0175
     10 C           3.3376    0.3967    3.7144 C.ar    1  UNL1        0.0631
     11 C           3.8588    1.6840    3.5010 C.ar    1  UNL1        0.1311
     12 C           4.7244    1.9466    2.4360 C.ar    1  UNL1        0.0240
     13 C           5.0913    0.9231    1.5652 C.ar    1  UNL1        0.1466
     14 O           5.9274    1.2000    0.5253 O.3     1  UNL1       -0.5047
     15 O           3.5638    2.7610    4.2943 O.3     1  UNL1       -0.5059
     16 C           2.2940    0.1831    4.7553 C.ar    1  UNL1        0.1728
     17 N           1.4864    1.1558    5.0981 N.ar    1  UNL1       -0.1507
     18 N           0.5784    0.5682    5.9284 N.ar    1  UNL1       -0.2260
     19 H          -0.1975    1.0640    6.3480 H       1  UNL1        0.1937
     20 C           0.8583   -0.7862    6.1013 C.ar    1  UNL1        0.3490
     21 O           0.2230   -1.5471    6.8119 O.2     1  UNL1       -0.2446
     22 N           1.9947   -1.0145    5.3493 N.ar    1  UNL1       -0.2408
     23 C           2.7346   -2.2064    5.4288 C.ar    1  UNL1        0.0881
     24 C           2.0903   -3.4393    5.2646 C.ar    1  UNL1       -0.0348
     25 C           2.8312   -4.6227    5.2492 C.ar    1  UNL1       -0.0596
     26 C           4.2115   -4.5898    5.4497 C.ar    1  UNL1       -0.0589
     27 C           4.8523   -3.3737    5.6791 C.ar    1  UNL1       -0.0244
     28 C           4.1147   -2.1935    5.6604 C.ar    1  UNL1        0.1473
     29 F           4.7468   -1.0376    5.9119 F       1  UNL1       -0.2033
     30 C           5.5158   -1.4649   -1.9601 C.3     1  UNL1        0.0089
     31 H          -0.0310   -0.5598   -0.1672 H       1  UNL1        0.0230
     32 H           0.4998   -1.9998   -1.0493 H       1  UNL1        0.0230
     33 H           0.5399   -0.4101   -1.8398 H       1  UNL1        0.0230
     34 H           2.1643   -1.1897    0.6092 H       1  UNL1        0.0275
     35 H           2.2951    0.3532   -0.2375 H       1  UNL1        0.0275
     36 H           3.0217   -0.8368   -2.2971 H       1  UNL1        0.0444
     37 H           2.9643   -2.3891   -1.4677 H       1  UNL1        0.0444
     38 H           3.2802   -1.6197    2.9133 H       1  UNL1        0.0646
     39 H           5.0886    2.9610    2.2952 H       1  UNL1        0.0691
     40 H           6.1754    2.1392    0.5385 H       1  UNL1        0.2922
     41 H           2.8749    2.4962    4.9389 H       1  UNL1        0.2922
     42 H           1.0153   -3.4866    5.1000 H       1  UNL1        0.0639
     43 H           2.3302   -5.5722    5.0717 H       1  UNL1        0.0618
     44 H           4.7856   -5.5133    5.4327 H       1  UNL1        0.0618
     45 H           5.9202   -3.3373    5.8697 H       1  UNL1        0.0647
     46 H           5.2200   -0.9848   -2.8972 H       1  UNL1        0.0408
     47 H           5.5436   -2.5453   -2.1170 H       1  UNL1        0.0408
     48 H           6.5186   -1.0972   -1.7226 H       1  UNL1        0.0408
@<TRIPOS>BOND
     1     1     2    1
     2     2     3    1
     3     3     4    1
     4     4     5    1
     5     5     6    2
     6     5     7    2
     7     5     8    1
     8     8     9   ar
     9     9    10   ar
    10    10    11   ar
    11    11    12   ar
    12    12    13   ar
    13     8    13   ar
    14    13    14    1
    15    11    15    1
    16    10    16    1
    17    16    17   ar
    18    17    18   ar
    19    18    19    1
    20    18    20   ar
    21    20    21    2
    22    20    22   ar
    23    16    22   ar
    24    22    23    1
    25    23    24   ar
    26    24    25   ar
    27    25    26   ar
    28    26    27   ar
    29    27    28   ar
    30    23    28   ar
    31    28    29    1
    32     4    30    1
    33     1    31    1
    34     1    32    1
    35     1    33    1
    36     2    34    1
    37     2    35    1
    38     3    36    1
    39     3    37    1
    40     9    38    1
    41    12    39    1
    42    14    40    1
    43    15    41    1
    44    24    42    1
    45    25    43    1
    46    26    44    1
    47    27    45    1
    48    30    46    1
    49    30    47    1
    50    30    48    1
@<TRIPOS>MOLECULE
*****
 48 50 0 0 0
SMALL
GASTEIGER

@<TRIPOS>ATOM
      1 C           0.8259   -1.9892   -0.8802 C.3     1  UNL1       -0.0481
      2 C           2.0772   -1.2755   -0.3445 C.3     1  UNL1        0.0259
      3 N           3.3401   -2.0476   -0.6764 N.3     1  UNL1       -0.1770
      4 S           4.8532   -1.3444   -0.1938 S.O2    1  UNL1        0.0643
      5 O           4.5942   -0.6001    1.0203 O.2     1  UNL1       -0.1527
      6 O           5.8995   -2.3489   -0.2182 O.2     1  UNL1       -0.1527
      7 C           5.2313   -0.1827   -1.4807 C.ar    1  UNL1        0.1475
      8 C           5.3204    1.1755   -1.1382 C.ar    1  UNL1       -0.0175
      9 C           5.4513    2.1403   -2.1395 C.ar    1  UNL1        0.0631
     10 C           5.4598    1.7259   -3.4795 C.ar    1  UNL1        0.1311
     11 C           5.4861    0.3714   -3.8125 C.ar    1  UNL1        0.0240
     12 C           5.3844   -0.5877   -2.8059 C.ar    1  UNL1        0.1466
     13 O           5.4068   -1.9072   -3.1440 O.3     1  UNL1       -0.5047
     14 O           5.3979    2.6004   -4.5317 O.3     1  UNL1       -0.5059
     15 C           5.4077    3.5770   -1.8017 C.ar    1  UNL1        0.1728
     16 N           4.8206    4.4323   -2.6039 N.ar    1  UNL1       -0.1507
     17 N           4.8638    5.6111   -1.9228 N.ar    1  UNL1       -0.2260
     18 H           4.5478    6.4888   -2.3119 H       1  UNL1        0.1937
     19 C           5.5263    5.4646   -0.7084 C.ar    1  UNL1        0.3490
     20 O           5.7933    6.3796    0.0533 O.2     1  UNL1       -0.2446
     21 N           5.8561    4.1230   -0.6317 N.ar    1  UNL1       -0.2408
     22 C           6.7686    3.6492    0.3323 C.ar    1  UNL1        0.0881
     23 C           6.5356    3.9189    1.6872 C.ar    1  UNL1       -0.0348
     24 C           7.4733    3.5567    2.6571 C.ar    1  UNL1       -0.0596
     25 C           8.6694    2.9508    2.2788 C.ar    1  UNL1       -0.0589
     26 C           8.9092    2.6658    0.9347 C.ar    1  UNL1       -0.0244
     27 C           7.9537    2.9963   -0.0259 C.ar    1  UNL1        0.1473
     28 F           8.2343    2.7520   -1.3146 F       1  UNL1       -0.2033
     29 C           3.2789   -3.4761   -0.2659 C.3     1  UNL1        0.0092
     30 C           2.0702    0.1372   -0.9294 C.3     1  UNL1       -0.0481
     31 H           0.6563   -2.9477   -0.3816 H       1  UNL1        0.0245
     32 H           0.8997   -2.1687   -1.9581 H       1  UNL1        0.0245
     33 H          -0.0740   -1.3910   -0.6955 H       1  UNL1        0.0245
     34 H           1.9832   -1.2136    0.7466 H       1  UNL1        0.0474
     35 H           5.2122    1.4675   -0.0988 H       1  UNL1        0.0646
     36 H           5.5320    0.0868   -4.8587 H       1  UNL1        0.0691
     37 H           5.7723   -2.0055   -4.0399 H       1  UNL1        0.2922
     38 H           5.0934    3.4681   -4.1855 H       1  UNL1        0.2922
     39 H           5.6163    4.4092    2.0007 H       1  UNL1        0.0639
     40 H           7.2749    3.7674    3.7060 H       1  UNL1        0.0618
     41 H           9.4184    2.7113    3.0310 H       1  UNL1        0.0618
     42 H           9.8460    2.2101    0.6279 H       1  UNL1        0.0647
     43 H           2.4510   -3.9923   -0.7565 H       1  UNL1        0.0408
     44 H           3.1673   -3.5586    0.8193 H       1  UNL1        0.0408
     45 H           4.1737   -4.0168   -0.5870 H       1  UNL1        0.0408
     46 H           2.3932    0.1468   -1.9751 H       1  UNL1        0.0245
     47 H           2.7093    0.8084   -0.3516 H       1  UNL1        0.0245
     48 H           1.0666    0.5781   -0.8927 H       1  UNL1        0.0245
@<TRIPOS>BOND
     1     1     2    1
     2     2     3    1
     3     3     4    1
     4     4     5    2
     5     4     6    2
     6     4     7    1
     7     7     8   ar
     8     8     9   ar
     9     9    10   ar
    10    10    11   ar
    11    11    12   ar
    12     7    12   ar
    13    12    13    1
    14    10    14    1
    15     9    15    1
    16    15    16   ar
    17    16    17   ar
    18    17    18    1
    19    17    19   ar
    20    19    20    2
    21    19    21   ar
    22    15    21   ar
    23    21    22    1
    24    22    23   ar
    25    23    24   ar
    26    24    25   ar
    27    25    26   ar
    28    26    27   ar
    29    22    27   ar
    30    27    28    1
    31     3    29    1
    32     2    30    1
    33     1    31    1
    34     1    32    1
    35     1    33    1
    36     2    34    1
    37     8    35    1
    38    11    36    1
    39    13    37    1
    40    14    38    1
    41    23    39    1
    42    24    40    1
    43    25    41    1
    44    26    42    1
    45    29    43    1
    46    29    44    1
    47    29    45    1
    48    30    46    1
    49    30    47    1
    50    30    48    1
@<TRIPOS>MOLECULE
*****
 54 60 0 0 0
SMALL
GASTEIGER

@<TRIPOS>ATOM
      1 O           2.4658   -2.9916    0.3908 O.2     1  UNL1       -0.2701
      2 C           2.1907   -1.8014    0.4850 C.2     1  UNL1        0.2481
      3 C           0.7776   -1.3291    0.4672 C.ar    1  UNL1        0.0810
      4 C          -0.3212   -2.1435    0.8009 C.ar    1  UNL1        0.0502
      5 BR         -0.1826   -3.8819    1.5525 Br      1  UNL1       -0.0479
      6 C          -1.6177   -1.6318    0.6626 C.ar    1  UNL1        0.0447
      7 N          -1.9482   -0.3862    0.2452 N.ar    1  UNL1       -0.2348
      8 C          -0.8624    0.3599   -0.0014 C.ar    1  UNL1        0.1584
      9 C           0.4753   -0.0060    0.0828 C.ar    1  UNL1        0.1208
     10 N           1.2758    1.0806   -0.2406 N.ar    1  UNL1       -0.2335
     11 C           0.4391    2.0594   -0.5234 C.ar    1  UNL1        0.0956
     12 N          -0.8649    1.6626   -0.4009 N.ar    1  UNL1       -0.3293
     13 H          -1.6888    2.2221   -0.5643 H       1  UNL1        0.1682
     14 N           3.1617   -0.8366    0.5879 N.am    1  UNL1       -0.3004
     15 C           4.5752   -1.1398    0.6912 C.3     1  UNL1        0.0751
     16 H           4.8565   -2.0080    0.0853 H       1  UNL1        0.0599
     17 C           4.9885   -1.3260    2.1357 C.ar    1  UNL1       -0.0151
     18 C           4.7389   -2.4364    2.9354 C.ar    1  UNL1       -0.0559
     19 C           5.2432   -2.4426    4.2321 C.ar    1  UNL1       -0.0614
     20 C           5.9821   -1.3518    4.7045 C.ar    1  UNL1       -0.0612
     21 C           6.2549   -0.2525    3.8777 C.ar    1  UNL1       -0.0537
     22 C           5.7537   -0.2228    2.5840 C.ar    1  UNL1       -0.0117
     23 C           5.9500    0.7089    1.4655 C.ar    1  UNL1       -0.0045
     24 C           5.3816    0.0904    0.3132 C.ar    1  UNL1       -0.0145
     25 C           5.5536    0.5834   -0.9725 C.ar    1  UNL1       -0.0559
     26 C           6.2159    1.7898   -1.1184 C.ar    1  UNL1       -0.0608
     27 C           6.6795    2.4764    0.0129 C.ar    1  UNL1       -0.0534
     28 C           6.5977    1.9466    1.3292 C.ar    1  UNL1       -0.0084
     29 C           7.2355    2.7105    2.4179 C.ar    1  UNL1        0.0014
     30 C           8.5094    3.2586    2.2531 C.ar    1  UNL1        0.0360
     31 N           9.1965    3.9581    3.1866 N.ar    1  UNL1       -0.2544
     32 C           8.6236    4.1147    4.3859 C.ar    1  UNL1        0.0710
     33 C           7.3363    3.6182    4.6768 C.ar    1  UNL1        0.0010
     34 C           6.6341    2.9550    3.6546 C.ar    1  UNL1       -0.0434
     35 C           6.7998    3.7750    5.9665 C.ar    1  UNL1       -0.0525
     36 C           7.5246    4.4394    6.9548 C.ar    1  UNL1       -0.0611
     37 C           8.7840    4.9503    6.6607 C.ar    1  UNL1       -0.0597
     38 C           9.3206    4.7806    5.3830 C.ar    1  UNL1       -0.0357
     39 H          -2.4811   -2.2501    0.9098 H       1  UNL1        0.0842
     40 H           0.7139    3.0634   -0.8100 H       1  UNL1        0.1027
     41 H           2.8868    0.1427    0.6141 H       1  UNL1        0.1499
     42 H           4.1873   -3.2886    2.5471 H       1  UNL1        0.0621
     43 H           5.0816   -3.3058    4.8728 H       1  UNL1        0.0618
     44 H           6.3783   -1.3708    5.7174 H       1  UNL1        0.0618
     45 H           6.8930    0.5272    4.2701 H       1  UNL1        0.0624
     46 H           5.1817    0.0406   -1.8357 H       1  UNL1        0.0621
     47 H           6.3706    2.2131   -2.1077 H       1  UNL1        0.0618
     48 H           7.1391    3.4515   -0.1520 H       1  UNL1        0.0624
     49 H           9.0496    3.1448    1.3154 H       1  UNL1        0.0836
     50 H           5.6261    2.5917    3.8459 H       1  UNL1        0.0631
     51 H           5.8218    3.3663    6.2103 H       1  UNL1        0.0624
     52 H           7.1081    4.5570    7.9517 H       1  UNL1        0.0618
     53 H           9.3559    5.4756    7.4206 H       1  UNL1        0.0618
     54 H          10.3115    5.1686    5.1584 H       1  UNL1        0.0639
@<TRIPOS>BOND
     1     1     2    2
     2     2     3    1
     3     3     4   ar
     4     4     5    1
     5     4     6   ar
     6     6     7   ar
     7     7     8   ar
     8     8     9   ar
     9     3     9   ar
    10     9    10   ar
    11    10    11   ar
    12    11    12   ar
    13    12    13    1
    14     8    12   ar
    15     2    14   am
    16    14    15    1
    17    15    16    1
    18    15    17    1
    19    17    18   ar
    20    18    19   ar
    21    19    20   ar
    22    20    21   ar
    23    21    22   ar
    24    17    22   ar
    25    22    23    1
    26    23    24   ar
    27    15    24    1
    28    24    25   ar
    29    25    26   ar
    30    26    27   ar
    31    27    28   ar
    32    23    28   ar
    33    28    29    1
    34    29    30   ar
    35    30    31   ar
    36    31    32   ar
    37    32    33   ar
    38    33    34   ar
    39    29    34   ar
    40    33    35   ar
    41    35    36   ar
    42    36    37   ar
    43    37    38   ar
    44    32    38   ar
    45     6    39    1
    46    11    40    1
    47    14    41    1
    48    18    42    1
    49    19    43    1
    50    20    44    1
    51    21    45    1
    52    25    46    1
    53    26    47    1
    54    27    48    1
    55    30    49    1
    56    34    50    1
    57    35    51    1
    58    36    52    1
    59    37    53    1
    60    38    54    1
@<TRIPOS>MOLECULE
*****
 53 59 0 0 0
SMALL
GASTEIGER

@<TRIPOS>ATOM
      1 F           0.9564   -0.1014    0.3245 F       1  UNL1       -0.2054
      2 C           2.2670   -0.0441    0.0491 C.ar    1  UNL1        0.1255
      3 C           2.8857   -1.1656   -0.5023 C.ar    1  UNL1       -0.0244
      4 C           4.2369   -1.1358   -0.8548 C.ar    1  UNL1       -0.0335
      5 C           4.9140    0.0562   -0.5925 C.ar    1  UNL1        0.0666
      6 C           4.3390    1.1535    0.0328 C.ar    1  UNL1        0.0922
      7 C           2.9706    1.1298    0.3304 C.ar    1  UNL1        0.0010
      8 N           5.2962    2.1163    0.2817 N.ar    1  UNL1       -0.2276
      9 C           6.4463    1.6168   -0.1550 C.ar    1  UNL1        0.1399
     10 N           6.1940    0.4668   -0.8577 N.ar    1  UNL1       -0.3379
     11 H           6.8761   -0.0486   -1.3943 H       1  UNL1        0.1674
     12 C           7.7766    2.2228   -0.0219 C.ar    1  UNL1        0.0253
     13 C           7.8236    3.6322    0.0754 C.ar    1  UNL1       -0.0505
     14 C           9.0330    4.3418    0.1225 C.ar    1  UNL1       -0.0607
     15 C          10.2412    3.6654    0.0441 C.ar    1  UNL1       -0.0559
     16 C          10.2101    2.2792   -0.0530 C.ar    1  UNL1       -0.0144
     17 C           8.9977    1.5300   -0.0274 C.ar    1  UNL1       -0.0017
     18 C           9.3735    0.1078   -0.0305 C.ar    1  UNL1       -0.0116
     19 C           8.6514   -1.0633    0.1599 C.ar    1  UNL1       -0.0537
     20 C           9.2950   -2.3059    0.0577 C.ar    1  UNL1       -0.0612
     21 C          10.6745   -2.3855   -0.1561 C.ar    1  UNL1       -0.0614
     22 C          11.4309   -1.2235   -0.2483 C.ar    1  UNL1       -0.0559
     23 C          10.7748    0.0020   -0.1865 C.ar    1  UNL1       -0.0151
     24 C          11.4218    1.3714   -0.1802 C.3     1  UNL1        0.0751
     25 H          12.0610    1.4789    0.7042 H       1  UNL1        0.0599
     26 N          12.1534    1.6276   -1.4032 N.am    1  UNL1       -0.3005
     27 C          13.4915    1.3039   -1.4918 C.2     1  UNL1        0.2455
     28 O          14.1207    0.8458   -0.5442 O.2     1  UNL1       -0.2702
     29 C          14.1644    1.5337   -2.7960 C.ar    1  UNL1        0.0488
     30 C          13.7208    2.5069   -3.7018 C.ar    1  UNL1       -0.0308
     31 C          14.4589    2.7362   -4.8550 C.ar    1  UNL1        0.0306
     32 N          15.5964    2.0982   -5.2038 N.ar    1  UNL1       -0.2375
     33 C          15.9833    1.1778   -4.3044 C.ar    1  UNL1        0.1388
     34 C          15.3468    0.8310   -3.1167 C.ar    1  UNL1        0.0307
     35 C          16.1405   -0.1985   -2.5284 C.ar    1  UNL1       -0.0344
     36 C          17.2327   -0.4147   -3.3421 C.ar    1  UNL1        0.0041
     37 N          17.1238    0.4292   -4.4161 N.ar    1  UNL1       -0.3458
     38 H          17.7792    0.5188   -5.1784 H       1  UNL1        0.1668
     39 H           2.3008   -2.0664   -0.6663 H       1  UNL1        0.0647
     40 H           4.7311   -1.9963   -1.2916 H       1  UNL1        0.0640
     41 H           2.4740    1.9810    0.7792 H       1  UNL1        0.0668
     42 H           6.8910    4.1982    0.1059 H       1  UNL1        0.0625
     43 H           9.0177    5.4259    0.2078 H       1  UNL1        0.0618
     44 H          11.1846    4.2029    0.0707 H       1  UNL1        0.0621
     45 H           7.6039   -1.0648    0.4330 H       1  UNL1        0.0624
     46 H           8.7210   -3.2228    0.1754 H       1  UNL1        0.0618
     47 H          11.1636   -3.3552   -0.2089 H       1  UNL1        0.0618
     48 H          12.5122   -1.2736   -0.3453 H       1  UNL1        0.0621
     49 H          11.6090    1.7641   -2.2418 H       1  UNL1        0.1499
     50 H          12.8451    3.1151   -3.5067 H       1  UNL1        0.0640
     51 H          14.1434    3.5015   -5.5615 H       1  UNL1        0.0830
     52 H          15.9409   -0.7105   -1.5947 H       1  UNL1        0.0639
     53 H          18.0765   -1.0849   -3.2436 H       1  UNL1        0.0807
@<TRIPOS>BOND
     1     1     2    1
     2     2     3   ar
     3     3     4   ar
     4     4     5   ar
     5     5     6   ar
     6     6     7   ar
     7     2     7   ar
     8     6     8   ar
     9     8     9   ar
    10     9    10   ar
    11    10    11    1
    12     5    10   ar
    13     9    12    1
    14    12    13   ar
    15    13    14   ar
    16    14    15   ar
    17    15    16   ar
    18    16    17   ar
    19    12    17   ar
    20    17    18    1
    21    18    19   ar
    22    19    20   ar
    23    20    21   ar
    24    21    22   ar
    25    22    23   ar
    26    18    23   ar
    27    23    24    1
    28    16    24    1
    29    26    27   am
    30    27    28    2
    31    27    29    1
    32    29    30   ar
    33    30    31   ar
    34    31    32   ar
    35    32    33   ar
    36    33    34   ar
    37    29    34   ar
    38    34    35   ar
    39    35    36   ar
    40    36    37   ar
    41    37    38    1
    42    33    37   ar
    43    24    26    1
    44    24    25    1
    45     3    39    1
    46     4    40    1
    47     7    41    1
    48    13    42    1
    49    14    43    1
    50    15    44    1
    51    19    45    1
    52    20    46    1
    53    21    47    1
    54    22    48    1
    55    26    49    1
    56    30    50    1
    57    31    51    1
    58    35    52    1
    59    36    53    1
@<TRIPOS>MOLECULE
*****
 52 58 0 0 0
SMALL
GASTEIGER

@<TRIPOS>ATOM
      1 O           2.4553    1.4372   -2.9350 O.2     1  UNL1       -0.2702
      2 C           2.1441    0.8129   -1.9270 C.2     1  UNL1        0.2455
      3 C           0.7156    0.6304   -1.5788 C.ar    1  UNL1        0.0488
      4 C          -0.2078    1.5937   -2.0038 C.ar    1  UNL1       -0.0308
      5 C          -1.5524    1.3971   -1.7347 C.ar    1  UNL1        0.0306
      6 N          -2.0771    0.3313   -1.0940 N.ar    1  UNL1       -0.2375
      7 C          -1.1544   -0.5722   -0.7210 C.ar    1  UNL1        0.1388
      8 C           0.2246   -0.5106   -0.9073 C.ar    1  UNL1        0.0307
      9 C           0.7477   -1.7196   -0.3558 C.ar    1  UNL1       -0.0344
     10 C          -0.3061   -2.4582    0.1374 C.ar    1  UNL1        0.0041
     11 N          -1.4534   -1.7497   -0.0942 N.ar    1  UNL1       -0.3458
     12 H          -2.3955   -2.0391    0.1332 H       1  UNL1        0.1668
     13 N           3.0519    0.2663   -1.0634 N.am    1  UNL1       -0.3005
     14 C           4.4749    0.2602   -1.3149 C.3     1  UNL1        0.0751
     15 H           4.7083    0.2858   -2.3849 H       1  UNL1        0.0599
     16 C           5.0859   -0.9562   -0.6521 C.ar    1  UNL1       -0.0151
     17 C           4.8205   -2.2903   -0.9519 C.ar    1  UNL1       -0.0559
     18 C           5.4530   -3.2760   -0.2009 C.ar    1  UNL1       -0.0614
     19 C           6.3677   -2.9177    0.7938 C.ar    1  UNL1       -0.0612
     20 C           6.6514   -1.5706    1.0597 C.ar    1  UNL1       -0.0537
     21 C           5.9761   -0.5710    0.3754 C.ar    1  UNL1       -0.0116
     22 C           6.0019    0.8960    0.4651 C.ar    1  UNL1       -0.0017
     23 C           5.1717    1.3915   -0.5813 C.ar    1  UNL1       -0.0144
     24 C           5.0185    2.7454   -0.8443 C.ar    1  UNL1       -0.0559
     25 C           5.6861    3.6466   -0.0291 C.ar    1  UNL1       -0.0607
     26 C           6.4582    3.1877    1.0513 C.ar    1  UNL1       -0.0505
     27 C           6.6145    1.8100    1.3391 C.ar    1  UNL1        0.0253
     28 C           7.3057    1.4113    2.5734 C.ar    1  UNL1        0.1399
     29 N           7.0779    0.3117    3.2640 N.ar    1  UNL1       -0.2276
     30 C           7.9642    0.2942    4.3019 C.ar    1  UNL1        0.0924
     31 C           8.6979    1.4679    4.3290 C.ar    1  UNL1        0.0848
     32 N           8.2630    2.1663    3.2299 N.ar    1  UNL1       -0.3367
     33 H           8.6070    3.0654    2.9307 H       1  UNL1        0.1674
     34 C           9.6347    1.7195    5.3157 C.ar    1  UNL1        0.0530
     35 N           9.8636    0.7603    6.2470 N.ar    1  UNL1       -0.2611
     36 C           9.1719   -0.4042    6.1880 C.ar    1  UNL1        0.0297
     37 C           8.2031   -0.7013    5.2453 C.ar    1  UNL1       -0.0161
     38 H           0.1183    2.4776   -2.5431 H       1  UNL1        0.0640
     39 H          -2.2860    2.1336   -2.0565 H       1  UNL1        0.0830
     40 H           1.7831   -2.0349   -0.3256 H       1  UNL1        0.0639
     41 H          -0.3346   -3.4265    0.6213 H       1  UNL1        0.0807
     42 H           2.7590   -0.0096   -0.1366 H       1  UNL1        0.1499
     43 H           4.1237   -2.5564   -1.7405 H       1  UNL1        0.0621
     44 H           5.2446   -4.3259   -0.3898 H       1  UNL1        0.0618
     45 H           6.8677   -3.6911    1.3726 H       1  UNL1        0.0618
     46 H           7.4001   -1.3508    1.8084 H       1  UNL1        0.0624
     47 H           4.3849    3.0858   -1.6590 H       1  UNL1        0.0621
     48 H           5.5791    4.7144   -0.2064 H       1  UNL1        0.0618
     49 H           6.9005    3.9455    1.6939 H       1  UNL1        0.0625
     50 H          10.2088    2.6331    5.3977 H       1  UNL1        0.0851
     51 H           9.4282   -1.1309    6.9547 H       1  UNL1        0.0830
     52 H           7.6712   -1.6419    5.2269 H       1  UNL1        0.0655
@<TRIPOS>BOND
     1     1     2    2
     2     2     3    1
     3     3     4   ar
     4     4     5   ar
     5     5     6   ar
     6     6     7   ar
     7     7     8   ar
     8     3     8   ar
     9     8     9   ar
    10     9    10   ar
    11    10    11   ar
    12    11    12    1
    13     7    11   ar
    14     2    13   am
    15    13    14    1
    16    14    15    1
    17    14    16    1
    18    16    17   ar
    19    17    18   ar
    20    18    19   ar
    21    19    20   ar
    22    20    21   ar
    23    16    21   ar
    24    21    22    1
    25    22    23   ar
    26    14    23    1
    27    23    24   ar
    28    24    25   ar
    29    25    26   ar
    30    26    27   ar
    31    22    27   ar
    32    27    28    1
    33    28    29   ar
    34    29    30   ar
    35    30    31   ar
    36    31    32   ar
    37    32    33    1
    38    28    32   ar
    39    31    34   ar
    40    34    35   ar
    41    35    36   ar
    42    36    37   ar
    43    30    37   ar
    44     4    38    1
    45     5    39    1
    46     9    40    1
    47    10    41    1
    48    13    42    1
    49    17    43    1
    50    18    44    1
    51    19    45    1
    52    20    46    1
    53    24    47    1
    54    25    48    1
    55    26    49    1
    56    34    50    1
    57    36    51    1
    58    37    52    1
@<TRIPOS>MOLECULE
*****
 66 71 0 0 0
SMALL
GASTEIGER

@<TRIPOS>ATOM
      1 O           3.1811    3.1844   -0.5201 O.3     1  UNL1       -0.3918
      2 C           2.6654    2.2517   -1.4623 C.3     1  UNL1        0.0554
      3 H           1.6470    2.5731   -1.7119 H       1  UNL1        0.0593
      4 C           2.6117    0.8621   -0.8285 C.3     1  UNL1       -0.0252
      5 C           2.1721   -0.1987   -1.8347 C.3     1  UNL1       -0.0323
      6 C           3.0868   -0.1857   -3.0668 C.3     1  UNL1        0.0208
      7 H           4.0912   -0.4006   -2.6933 H       1  UNL1        0.0497
      8 C           3.0891    1.2018   -3.7220 C.3     1  UNL1       -0.0323
      9 C           3.5239    2.2736   -2.7268 C.3     1  UNL1       -0.0252
     10 N           2.6177   -1.1982   -4.0233 N.pl3   1  UNL1       -0.3403
     11 C           3.5228   -1.7683   -4.9438 C.ar    1  UNL1        0.0416
     12 C           4.8788   -1.9396   -4.6206 C.ar    1  UNL1       -0.0146
     13 C           5.7980   -2.5298   -5.5088 C.ar    1  UNL1        0.0678
     14 C           5.3615   -3.0239   -6.7316 C.ar    1  UNL1       -0.0354
     15 C           4.0130   -2.9096   -7.0637 C.ar    1  UNL1       -0.0459
     16 C           3.0968   -2.2990   -6.1869 C.ar    1  UNL1        0.0574
     17 C           1.7001   -2.1890   -6.6974 C.2     1  UNL1        0.2433
     18 O           1.4525   -2.1039   -7.8945 O.2     1  UNL1       -0.2704
     19 N           0.6906   -2.2257   -5.7776 N.am    1  UNL1       -0.3253
     20 N           7.1755   -2.5069   -5.1606 N.ar    1  UNL1       -0.2318
     21 N           7.6326   -1.4688   -4.4277 N.ar    1  UNL1       -0.1705
     22 C           8.9627   -1.5613   -4.4967 C.ar    1  UNL1        0.0687
     23 C           9.3848   -2.8234   -5.0375 C.ar    1  UNL1        0.0308
     24 C           8.1869   -3.3934   -5.5010 C.ar    1  UNL1        0.0755
     25 C           8.1348   -4.6512   -6.1240 C.ar    1  UNL1       -0.0356
     26 C           9.3197   -5.3436   -6.3157 C.ar    1  UNL1       -0.0591
     27 C          10.5202   -4.8097   -5.8672 C.ar    1  UNL1       -0.0532
     28 C          10.6091   -3.5520   -5.2155 C.ar    1  UNL1       -0.0055
     29 C          11.9183   -3.0783   -4.7159 C.ar    1  UNL1        0.0015
     30 C          12.0677   -2.3767   -3.5264 C.ar    1  UNL1        0.0360
     31 N          13.2213   -1.8445   -3.0527 N.ar    1  UNL1       -0.2544
     32 C          14.3525   -2.1333   -3.7076 C.ar    1  UNL1        0.0710
     33 C          14.3652   -2.9639   -4.8423 C.ar    1  UNL1        0.0010
     34 C          13.1264   -3.3833   -5.3623 C.ar    1  UNL1       -0.0434
     35 C          15.5897   -3.3618   -5.4072 C.ar    1  UNL1       -0.0525
     36 C          16.7927   -2.9081   -4.8690 C.ar    1  UNL1       -0.0611
     37 C          16.7762   -2.0196   -3.7997 C.ar    1  UNL1       -0.0597
     38 C          15.5581   -1.6361   -3.2350 C.ar    1  UNL1       -0.0357
     39 C           9.7260   -0.3878   -3.9894 C.3     1  UNL1       -0.0200
     40 H           4.0806    2.9048   -0.2760 H       1  UNL1        0.2098
     41 H           1.9349    0.8714    0.0334 H       1  UNL1        0.0291
     42 H           3.6001    0.6017   -0.4240 H       1  UNL1        0.0291
     43 H           1.1299   -0.0216   -2.1290 H       1  UNL1        0.0284
     44 H           2.2011   -1.1867   -1.3587 H       1  UNL1        0.0284
     45 H           2.0866    1.4410   -4.1008 H       1  UNL1        0.0284
     46 H           3.7606    1.2140   -4.5886 H       1  UNL1        0.0284
     47 H           3.4713    3.2642   -3.1937 H       1  UNL1        0.0291
     48 H           4.5796    2.1259   -2.4637 H       1  UNL1        0.0291
     49 H           1.7781   -0.8754   -4.5114 H       1  UNL1        0.1464
     50 H           5.2600   -1.6295   -3.6516 H       1  UNL1        0.0657
     51 H           6.0462   -3.4286   -7.4711 H       1  UNL1        0.0639
     52 H           3.6726   -3.2751   -8.0325 H       1  UNL1        0.0626
     53 H           0.8631   -2.6062   -4.8537 H       1  UNL1        0.1453
     54 H          -0.2483   -2.3007   -6.1549 H       1  UNL1        0.1453
     55 H           7.1945   -5.1029   -6.4290 H       1  UNL1        0.0639
     56 H           9.3050   -6.3188   -6.7971 H       1  UNL1        0.0618
     57 H          11.4125   -5.4187   -6.0049 H       1  UNL1        0.0624
     58 H          11.2270   -2.2257   -2.8583 H       1  UNL1        0.0836
     59 H          13.1231   -3.9740   -6.2756 H       1  UNL1        0.0631
     60 H          15.6117   -4.0506   -6.2480 H       1  UNL1        0.0624
     61 H          17.7391   -3.2455   -5.2834 H       1  UNL1        0.0618
     62 H          17.7067   -1.6391   -3.3869 H       1  UNL1        0.0618
     63 H          15.5476   -0.9514   -2.3904 H       1  UNL1        0.0639
     64 H           9.1253    0.5251   -4.0592 H       1  UNL1        0.0293
     65 H          10.6347   -0.2203   -4.5747 H       1  UNL1        0.0293
     66 H           9.9786   -0.5097   -2.9303 H       1  UNL1        0.0293
@<TRIPOS>BOND
     1     2     4    1
     2     4     5    1
     3     5     6    1
     4     6     8    1
     5     8     9    1
     6     2     9    1
     7    10    11    1
     8    11    12   ar
     9    12    13   ar
    10    13    14   ar
    11    14    15   ar
    12    15    16   ar
    13    11    16   ar
    14    16    17    1
    15    17    18    2
    16    17    19   am
    17    13    20    1
    18    20    21   ar
    19    21    22   ar
    20    22    23   ar
    21    23    24   ar
    22    20    24   ar
    23    24    25   ar
    24    25    26   ar
    25    26    27   ar
    26    27    28   ar
    27    23    28   ar
    28    28    29    1
    29    29    30   ar
    30    30    31   ar
    31    31    32   ar
    32    32    33   ar
    33    33    34   ar
    34    29    34   ar
    35    33    35   ar
    36    35    36   ar
    37    36    37   ar
    38    37    38   ar
    39    32    38   ar
    40    22    39    1
    41     2     3    1
    42     2     1    1
    43     6    10    1
    44     6     7    1
    45     1    40    1
    46     4    41    1
    47     4    42    1
    48     5    43    1
    49     5    44    1
    50     8    45    1
    51     8    46    1
    52     9    47    1
    53     9    48    1
    54    10    49    1
    55    12    50    1
    56    14    51    1
    57    15    52    1
    58    19    53    1
    59    19    54    1
    60    25    55    1
    61    26    56    1
    62    27    57    1
    63    30    58    1
    64    34    59    1
    65    35    60    1
    66    36    61    1
    67    37    62    1
    68    38    63    1
    69    39    64    1
    70    39    65    1
    71    39    66    1
@<TRIPOS>MOLECULE
*****
 61 64 0 0 0
SMALL
GASTEIGER

@<TRIPOS>ATOM
      1 O           3.3641    1.6544    0.9025 O.3     1  UNL1       -0.3918
      2 C           2.8953    1.2631   -0.3821 C.3     1  UNL1        0.0554
      3 H           2.1178    1.9784   -0.6744 H       1  UNL1        0.0593
      4 C           2.2850   -0.1359   -0.2993 C.3     1  UNL1       -0.0252
      5 C           1.8751   -0.6536   -1.6758 C.3     1  UNL1       -0.0323
      6 C           3.0708   -0.6323   -2.6371 C.3     1  UNL1        0.0208
      7 H           3.8245   -1.2927   -2.1915 H       1  UNL1        0.0497
      8 C           3.6286    0.7922   -2.7574 C.3     1  UNL1       -0.0323
      9 C           4.0437    1.3294   -1.3889 C.3     1  UNL1       -0.0252
     10 N           2.6442   -1.1488   -3.9380 N.pl3   1  UNL1       -0.3403
     11 C           3.5403   -1.7105   -4.8622 C.ar    1  UNL1        0.0415
     12 C           4.9025   -1.9017   -4.5517 C.ar    1  UNL1       -0.0162
     13 C           5.8143   -2.4604   -5.4630 C.ar    1  UNL1        0.0481
     14 C           5.3329   -2.9635   -6.6689 C.ar    1  UNL1       -0.0370
     15 C           3.9900   -2.8082   -7.0034 C.ar    1  UNL1       -0.0459
     16 C           3.0962   -2.1813   -6.1227 C.ar    1  UNL1        0.0574
     17 C           1.6979   -2.0550   -6.6248 C.2     1  UNL1        0.2433
     18 O           1.4500   -1.9567   -7.8211 O.2     1  UNL1       -0.2704
     19 N           0.6937   -2.1029   -5.7040 N.am    1  UNL1       -0.3253
     20 N           7.2146   -2.4451   -5.1664 N.ar    1  UNL1       -0.3191
     21 C           7.7642   -2.3709   -3.8953 C.ar    1  UNL1        0.0137
     22 C           9.1427   -2.3018   -3.9718 C.ar    1  UNL1       -0.0218
     23 C           9.4654   -2.3659   -5.3499 C.ar    1  UNL1        0.0414
     24 C           8.2756   -2.4048   -6.0621 C.ar    1  UNL1        0.0350
     25 C           8.1842   -2.3138   -7.5543 C.3     1  UNL1       -0.0057
     26 C           9.4973   -1.7796   -8.1831 C.3     1  UNL1       -0.0225
     27 C           9.6018   -0.2495   -8.0134 C.3     1  UNL1       -0.0591
     28 C           9.4684   -2.0896   -9.6918 C.3     1  UNL1       -0.0591
     29 C          10.7195   -2.4815   -7.5427 C.3     1  UNL1        0.0160
     30 C          10.7582   -2.3284   -6.0265 C.2     1  UNL1        0.1656
     31 O          11.8233   -2.2413   -5.4179 O.2     1  UNL1       -0.2920
     32 C          10.0963   -2.1700   -2.8378 C.3     1  UNL1       -0.0376
     33 H           4.0398    1.0175    1.1920 H       1  UNL1        0.2098
     34 H           1.4208   -0.1253    0.3742 H       1  UNL1        0.0291
     35 H           3.0063   -0.8277    0.1556 H       1  UNL1        0.0291
     36 H           1.0535   -0.0436   -2.0726 H       1  UNL1        0.0284
     37 H           1.4900   -1.6763   -1.5814 H       1  UNL1        0.0284
     38 H           2.8736    1.4566   -3.1979 H       1  UNL1        0.0284
     39 H           4.4922    0.8191   -3.4313 H       1  UNL1        0.0284
     40 H           4.3948    2.3641   -1.4806 H       1  UNL1        0.0291
     41 H           4.9024    0.7575   -1.0125 H       1  UNL1        0.0291
     42 H           1.9509   -0.5606   -4.4075 H       1  UNL1        0.1464
     43 H           5.2843   -1.5248   -3.6110 H       1  UNL1        0.0657
     44 H           5.9589   -3.5030   -7.3682 H       1  UNL1        0.0638
     45 H           3.6347   -3.1882   -7.9611 H       1  UNL1        0.0626
     46 H           0.8917   -2.3849   -4.7499 H       1  UNL1        0.1453
     47 H          -0.2515   -2.1806   -6.0569 H       1  UNL1        0.1453
     48 H           7.1385   -2.3952   -3.0145 H       1  UNL1        0.0816
     49 H           7.3559   -1.6616   -7.8587 H       1  UNL1        0.0333
     50 H           7.9930   -3.3217   -7.9423 H       1  UNL1        0.0333
     51 H           8.7679    0.2590   -8.5110 H       1  UNL1        0.0235
     52 H          10.5305    0.1294   -8.4544 H       1  UNL1        0.0235
     53 H           9.5875    0.0565   -6.9622 H       1  UNL1        0.0235
     54 H           8.6129   -1.6038  -10.1766 H       1  UNL1        0.0235
     55 H           9.3821   -3.1668   -9.8740 H       1  UNL1        0.0235
     56 H          10.3792   -1.7387  -10.1870 H       1  UNL1        0.0235
     57 H          11.6520   -2.0819   -7.9581 H       1  UNL1        0.0350
     58 H          10.6936   -3.5582   -7.7540 H       1  UNL1        0.0350
     59 H           9.5748   -2.1763   -1.8751 H       1  UNL1        0.0278
     60 H          10.6471   -1.2269   -2.9138 H       1  UNL1        0.0278
     61 H          10.8160   -2.9937   -2.8394 H       1  UNL1        0.0278
@<TRIPOS>BOND
     1     2     4    1
     2     4     5    1
     3     5     6    1
     4     6     8    1
     5     8     9    1
     6     2     9    1
     7    10    11    1
     8    11    12   ar
     9    12    13   ar
    10    13    14   ar
    11    14    15   ar
    12    15    16   ar
    13    11    16   ar
    14    16    17    1
    15    17    18    2
    16    17    19   am
    17    13    20    1
    18    20    21   ar
    19    21    22   ar
    20    22    23   ar
    21    23    24   ar
    22    20    24   ar
    23    24    25    1
    24    25    26    1
    25    26    27    1
    26    26    28    1
    27    26    29    1
    28    29    30    1
    29    23    30    1
    30    30    31    2
    31    22    32    1
    32     6    10    1
    33     6     7    1
    34     2     3    1
    35     2     1    1
    36     1    33    1
    37     4    34    1
    38     4    35    1
    39     5    36    1
    40     5    37    1
    41     8    38    1
    42     8    39    1
    43     9    40    1
    44     9    41    1
    45    10    42    1
    46    12    43    1
    47    14    44    1
    48    15    45    1
    49    19    46    1
    50    19    47    1
    51    21    48    1
    52    25    49    1
    53    25    50    1
    54    27    51    1
    55    27    52    1
    56    27    53    1
    57    28    54    1
    58    28    55    1
    59    28    56    1
    60    29    57    1
    61    29    58    1
    62    32    59    1
    63    32    60    1
    64    32    61    1
@<TRIPOS>MOLECULE
*****
 59 62 0 0 0
SMALL
GASTEIGER

@<TRIPOS>ATOM
      1 O           2.1387   -3.0045   -0.0080 O.2     1  UNL1       -0.2974
      2 C           2.9916   -2.1158   -0.0363 C.2     1  UNL1        0.1335
      3 C           3.9944   -2.0268   -1.1681 C.3     1  UNL1        0.0075
      4 C           4.2120   -0.5834   -1.5953 C.3     1  UNL1       -0.0279
      5 C           4.4713    0.3642   -0.4195 C.3     1  UNL1        0.0214
      6 C           3.3299    0.2670    0.5983 C.3     1  UNL1       -0.0279
      7 C           3.1562   -1.1532    1.1172 C.3     1  UNL1        0.0075
      8 N           5.7416    0.0472    0.2489 N.pl3   1  UNL1       -0.3403
      9 C           6.7672    1.0078    0.3137 C.ar    1  UNL1        0.0415
     10 C           6.4587    2.3763    0.4031 C.ar    1  UNL1       -0.0162
     11 C           7.4496    3.3681    0.3876 C.ar    1  UNL1        0.0481
     12 C           8.7870    2.9772    0.4327 C.ar    1  UNL1       -0.0370
     13 C           9.1259    1.6239    0.4455 C.ar    1  UNL1       -0.0459
     14 C           8.1296    0.6376    0.3980 C.ar    1  UNL1        0.0574
     15 C           8.5441   -0.7954    0.3728 C.2     1  UNL1        0.2433
     16 O           7.8648   -1.6560   -0.1754 O.2     1  UNL1       -0.2704
     17 N           9.7127   -1.1215    1.0109 N.am    1  UNL1       -0.3253
     18 N           7.0640    4.7415    0.2882 N.ar    1  UNL1       -0.3191
     19 C           5.8268    5.2476    0.6566 C.ar    1  UNL1        0.0137
     20 C           5.7774    6.6090    0.4333 C.ar    1  UNL1       -0.0218
     21 C           7.0403    6.9655   -0.0977 C.ar    1  UNL1        0.0414
     22 C           7.7870    5.8045   -0.2383 C.ar    1  UNL1        0.0350
     23 C           9.1162    5.7355   -0.9290 C.3     1  UNL1       -0.0057
     24 C           9.3957    7.0097   -1.7736 C.3     1  UNL1       -0.0225
     25 C           8.6262    6.9653   -3.1103 C.3     1  UNL1       -0.0591
     26 C          10.9016    7.0563   -2.0938 C.3     1  UNL1       -0.0591
     27 C           9.0105    8.2783   -0.9735 C.3     1  UNL1        0.0160
     28 C           7.5562    8.2630   -0.5211 C.2     1  UNL1        0.1656
     29 O           6.8919    9.2940   -0.4572 O.2     1  UNL1       -0.2920
     30 C           4.6274    7.5146    0.6912 C.3     1  UNL1       -0.0376
     31 H           3.6137   -2.6016   -2.0187 H       1  UNL1        0.0342
     32 H           4.9280   -2.4913   -0.8383 H       1  UNL1        0.0342
     33 H           3.3119   -0.2351   -2.1207 H       1  UNL1        0.0287
     34 H           5.0360   -0.5311   -2.3158 H       1  UNL1        0.0287
     35 H           4.4694    1.3732   -0.8451 H       1  UNL1        0.0497
     36 H           2.3971    0.5869    0.1154 H       1  UNL1        0.0287
     37 H           3.5023    0.9491    1.4393 H       1  UNL1        0.0287
     38 H           2.2684   -1.2056    1.7557 H       1  UNL1        0.0342
     39 H           4.0183   -1.4703    1.7151 H       1  UNL1        0.0342
     40 H           6.1426   -0.8630   -0.0189 H       1  UNL1        0.1464
     41 H           5.4145    2.6642    0.4355 H       1  UNL1        0.0657
     42 H           9.5985    3.6900    0.4994 H       1  UNL1        0.0638
     43 H          10.1794    1.3556    0.4561 H       1  UNL1        0.0626
     44 H          10.1534   -0.5073    1.6811 H       1  UNL1        0.1453
     45 H           9.9489   -2.1048    1.0587 H       1  UNL1        0.1453
     46 H           5.0673    4.6131    1.0913 H       1  UNL1        0.0816
     47 H           9.1743    4.8525   -1.5767 H       1  UNL1        0.0333
     48 H           9.8924    5.6538   -0.1593 H       1  UNL1        0.0333
     49 H           8.9285    6.0995   -3.7102 H       1  UNL1        0.0235
     50 H           8.8257    7.8647   -3.7042 H       1  UNL1        0.0235
     51 H           7.5430    6.9003   -2.9671 H       1  UNL1        0.0235
     52 H          11.2110    6.1716   -2.6622 H       1  UNL1        0.0235
     53 H          11.5015    7.0877   -1.1772 H       1  UNL1        0.0235
     54 H          11.1539    7.9420   -2.6869 H       1  UNL1        0.0235
     55 H           9.1792    9.1790   -1.5741 H       1  UNL1        0.0350
     56 H           9.6269    8.3599   -0.0686 H       1  UNL1        0.0350
     57 H           3.7873    6.9733    1.1385 H       1  UNL1        0.0278
     58 H           4.2782    7.9616   -0.2455 H       1  UNL1        0.0278
     59 H           4.9164    8.3177    1.3757 H       1  UNL1        0.0278
@<TRIPOS>BOND
     1     1     2    2
     2     2     3    1
     3     3     4    1
     4     4     5    1
     5     5     6    1
     6     6     7    1
     7     2     7    1
     8     5     8    1
     9     8     9    1
    10     9    10   ar
    11    10    11   ar
    12    11    12   ar
    13    12    13   ar
    14    13    14   ar
    15     9    14   ar
    16    14    15    1
    17    15    16    2
    18    15    17   am
    19    11    18    1
    20    18    19   ar
    21    19    20   ar
    22    20    21   ar
    23    21    22   ar
    24    18    22   ar
    25    22    23    1
    26    23    24    1
    27    24    25    1
    28    24    26    1
    29    24    27    1
    30    27    28    1
    31    21    28    1
    32    28    29    2
    33    20    30    1
    34     3    31    1
    35     3    32    1
    36     4    33    1
    37     4    34    1
    38     5    35    1
    39     6    36    1
    40     6    37    1
    41     7    38    1
    42     7    39    1
    43     8    40    1
    44    10    41    1
    45    12    42    1
    46    13    43    1
    47    17    44    1
    48    17    45    1
    49    19    46    1
    50    23    47    1
    51    23    48    1
    52    25    49    1
    53    25    50    1
    54    25    51    1
    55    26    52    1
    56    26    53    1
    57    26    54    1
    58    27    55    1
    59    27    56    1
    60    30    57    1
    61    30    58    1
    62    30    59    1
@<TRIPOS>MOLECULE
*****
 48 50 0 0 0
SMALL
GASTEIGER

@<TRIPOS>ATOM
      1 C           7.8089   -0.8182   -4.1766 C.3     1  UNL1       -0.0481
      2 C           6.6273   -0.0389   -3.5775 C.3     1  UNL1        0.0259
      3 N           6.1353   -0.7053   -2.3082 N.3     1  UNL1       -0.1770
      4 S           4.8078    0.0525   -1.4870 S.O2    1  UNL1        0.0643
      5 O           3.8709    0.4490   -2.5269 O.2     1  UNL1       -0.1527
      6 O           4.3571   -0.8149   -0.4149 O.2     1  UNL1       -0.1527
      7 C           5.4091    1.5332   -0.7131 C.ar    1  UNL1        0.1475
      8 C           4.8190    2.7637   -1.0523 C.ar    1  UNL1       -0.0175
      9 C           5.0949    3.9267   -0.3125 C.ar    1  UNL1        0.0631
     10 C           5.8458    3.7866    0.8554 C.ar    1  UNL1        0.1311
     11 C           6.5174    2.5961    1.1366 C.ar    1  UNL1        0.0240
     12 C           6.3243    1.4749    0.3318 C.ar    1  UNL1        0.1466
     13 O           7.0261    0.3369    0.5885 O.3     1  UNL1       -0.5047
     14 O           5.9172    4.7347    1.8375 O.3     1  UNL1       -0.5059
     15 C           4.5157    5.2005   -0.8094 C.ar    1  UNL1        0.1728
     16 N           3.4531    5.2027   -1.5728 N.ar    1  UNL1       -0.1507
     17 N           3.1892    6.5185   -1.8008 N.ar    1  UNL1       -0.2260
     18 H           2.4691    6.8381   -2.4345 H       1  UNL1        0.1937
     19 C           4.1426    7.3262   -1.2003 C.ar    1  UNL1        0.3490
     20 O           4.2336    8.5342   -1.3501 O.2     1  UNL1       -0.2446
     21 N           4.9789    6.4574   -0.5139 N.ar    1  UNL1       -0.2422
     22 C           6.1766    6.9326    0.0587 C.ar    1  UNL1        0.0712
     23 C           7.4251    6.4948   -0.4035 C.ar    1  UNL1       -0.0362
     24 C           8.5987    7.0787    0.0925 C.ar    1  UNL1       -0.0597
     25 C           8.5369    8.0884    1.0534 C.ar    1  UNL1       -0.0603
     26 C           7.3043    8.4912    1.5599 C.ar    1  UNL1       -0.0414
     27 C           6.1322    7.9088    1.0755 C.ar    1  UNL1        0.0649
     28 CL          4.6526    8.3016    1.8904 Cl      1  UNL1       -0.0814
     29 C           5.7969   -2.1472   -2.5436 C.3     1  UNL1        0.0092
     30 C           7.1094    1.3896   -3.3447 C.3     1  UNL1       -0.0481
     31 H           7.4959   -1.7896   -4.5712 H       1  UNL1        0.0245
     32 H           8.5915   -0.9874   -3.4291 H       1  UNL1        0.0245
     33 H           8.2518   -0.2751   -5.0188 H       1  UNL1        0.0245
     34 H           5.8160   -0.0317   -4.3160 H       1  UNL1        0.0474
     35 H           4.1244    2.8085   -1.8934 H       1  UNL1        0.0646
     36 H           7.1453    2.5461    2.0222 H       1  UNL1        0.0691
     37 H           7.7296    0.5244    1.2341 H       1  UNL1        0.2922
     38 H           5.1125    5.2853    1.8093 H       1  UNL1        0.2922
     39 H           7.5041    5.7370   -1.1782 H       1  UNL1        0.0639
     40 H           9.5679    6.7576   -0.2837 H       1  UNL1        0.0618
     41 H           9.4488    8.5541    1.4207 H       1  UNL1        0.0618
     42 H           7.2592    9.2483    2.3390 H       1  UNL1        0.0633
     43 H           6.6928   -2.7169   -2.8045 H       1  UNL1        0.0408
     44 H           5.0581   -2.2466   -3.3471 H       1  UNL1        0.0408
     45 H           5.4108   -2.6254   -1.6387 H       1  UNL1        0.0408
     46 H           7.8012    1.4496   -2.4980 H       1  UNL1        0.0245
     47 H           6.2734    2.0681   -3.1745 H       1  UNL1        0.0245
     48 H           7.6257    1.7805   -4.2283 H       1  UNL1        0.0245
@<TRIPOS>BOND
     1     1     2    1
     2     2     3    1
     3     3     4    1
     4     4     5    2
     5     4     6    2
     6     4     7    1
     7     7     8   ar
     8     8     9   ar
     9     9    10   ar
    10    10    11   ar
    11    11    12   ar
    12     7    12   ar
    13    12    13    1
    14    10    14    1
    15     9    15    1
    16    15    16   ar
    17    16    17   ar
    18    17    18    1
    19    17    19   ar
    20    19    20    2
    21    19    21   ar
    22    15    21   ar
    23    21    22    1
    24    22    23   ar
    25    23    24   ar
    26    24    25   ar
    27    25    26   ar
    28    26    27   ar
    29    22    27   ar
    30    27    28    1
    31     3    29    1
    32     2    30    1
    33     1    31    1
    34     1    32    1
    35     1    33    1
    36     2    34    1
    37     8    35    1
    38    11    36    1
    39    13    37    1
    40    14    38    1
    41    23    39    1
    42    24    40    1
    43    25    41    1
    44    26    42    1
    45    29    43    1
    46    29    44    1
    47    29    45    1
    48    30    46    1
    49    30    47    1
    50    30    48    1
@<TRIPOS>MOLECULE
*****
 50 52 0 0 0
SMALL
GASTEIGER

@<TRIPOS>ATOM
      1 C           7.0168   -2.8675   -2.6675 C.3     1  UNL1       -0.0639
      2 C           7.0106   -1.3566   -2.8457 C.3     1  UNL1       -0.0400
      3 C           5.6553   -0.6871   -2.6165 C.3     1  UNL1        0.0144
      4 N           5.0519   -0.9425   -1.3102 N.am    1  UNL1       -0.3005
      5 C           5.3662   -0.0751   -0.2367 C.2     1  UNL1        0.2499
      6 O           6.2215    0.8015   -0.3161 O.2     1  UNL1       -0.2699
      7 C           4.6019   -0.2372    1.0380 C.ar    1  UNL1        0.0791
      8 C           4.5090   -1.5212    1.5870 C.ar    1  UNL1       -0.0319
      9 C           3.5402   -1.8352    2.5411 C.ar    1  UNL1        0.0619
     10 C           2.6843   -0.8090    2.9635 C.ar    1  UNL1        0.1310
     11 C           2.9076    0.5161    2.5836 C.ar    1  UNL1        0.0228
     12 C           3.8743    0.8052    1.6193 C.ar    1  UNL1        0.1325
     13 O           4.0429    2.1004    1.2216 O.3     1  UNL1       -0.5059
     14 O           1.5631   -1.0335    3.7171 O.3     1  UNL1       -0.5059
     15 C           3.3066   -3.2366    2.9775 C.ar    1  UNL1        0.1727
     16 N           2.1028   -3.6332    3.3048 N.ar    1  UNL1       -0.1507
     17 N           2.2418   -4.9644    3.5511 N.ar    1  UNL1       -0.2260
     18 H           1.4814   -5.5619    3.8471 H       1  UNL1        0.1937
     19 C           3.5646   -5.3722    3.3913 C.ar    1  UNL1        0.3489
     20 O           3.9728   -6.4974    3.6134 O.2     1  UNL1       -0.2446
     21 N           4.2489   -4.2394    2.9990 N.ar    1  UNL1       -0.2434
     22 C           5.6371   -4.1802    2.7641 C.ar    1  UNL1        0.0558
     23 C           6.3876   -3.1837    3.4125 C.ar    1  UNL1       -0.0374
     24 C           7.7043   -2.9207    3.0359 C.ar    1  UNL1       -0.0598
     25 C           8.2851   -3.6445    2.0022 C.ar    1  UNL1       -0.0614
     26 C           7.5796   -4.6842    1.4003 C.ar    1  UNL1       -0.0569
     27 C           6.2619   -4.9903    1.7889 C.ar    1  UNL1       -0.0264
     28 C           5.6116   -6.1815    1.1385 C.3     1  UNL1       -0.0377
     29 C           4.0431   -2.0009   -1.2673 C.3     1  UNL1        0.0035
     30 H           8.0045   -3.2667   -2.9240 H       1  UNL1        0.0230
     31 H           6.2816   -3.3512   -3.3182 H       1  UNL1        0.0230
     32 H           6.8066   -3.1488   -1.6314 H       1  UNL1        0.0230
     33 H           7.3240   -1.1319   -3.8732 H       1  UNL1        0.0278
     34 H           7.7610   -0.9157   -2.1809 H       1  UNL1        0.0278
     35 H           4.9484   -0.9971   -3.3953 H       1  UNL1        0.0464
     36 H           5.7752    0.3957   -2.7361 H       1  UNL1        0.0464
     37 H           5.1601   -2.2823    1.1748 H       1  UNL1        0.0634
     38 H           2.2674    1.2949    2.9888 H       1  UNL1        0.0691
     39 H           3.6193    2.6998    1.8595 H       1  UNL1        0.2922
     40 H           1.3356   -1.9873    3.6422 H       1  UNL1        0.2922
     41 H           5.9447   -2.5870    4.2067 H       1  UNL1        0.0638
     42 H           8.2670   -2.1333    3.5304 H       1  UNL1        0.0618
     43 H           9.2941   -3.4099    1.6706 H       1  UNL1        0.0618
     44 H           8.0623   -5.2518    0.6061 H       1  UNL1        0.0621
     45 H           6.0755   -6.4103    0.1725 H       1  UNL1        0.0278
     46 H           4.5491   -6.0191    0.9411 H       1  UNL1        0.0278
     47 H           5.7409   -7.0587    1.7817 H       1  UNL1        0.0278
     48 H           3.8448   -2.4032   -2.2634 H       1  UNL1        0.0429
     49 H           3.1116   -1.6110   -0.8492 H       1  UNL1        0.0429
     50 H           4.4095   -2.8353   -0.6636 H       1  UNL1        0.0429
@<TRIPOS>BOND
     1     1     2    1
     2     2     3    1
     3     3     4    1
     4     4     5   am
     5     5     6    2
     6     5     7    1
     7     7     8   ar
     8     8     9   ar
     9     9    10   ar
    10    10    11   ar
    11    11    12   ar
    12     7    12   ar
    13    12    13    1
    14    10    14    1
    15     9    15    1
    16    15    16   ar
    17    16    17   ar
    18    17    18    1
    19    17    19   ar
    20    19    20    2
    21    19    21   ar
    22    15    21   ar
    23    21    22    1
    24    22    23   ar
    25    23    24   ar
    26    24    25   ar
    27    25    26   ar
    28    26    27   ar
    29    22    27   ar
    30    27    28    1
    31     4    29    1
    32     1    30    1
    33     1    31    1
    34     1    32    1
    35     2    33    1
    36     2    34    1
    37     3    35    1
    38     3    36    1
    39     8    37    1
    40    11    38    1
    41    13    39    1
    42    14    40    1
    43    23    41    1
    44    24    42    1
    45    25    43    1
    46    26    44    1
    47    28    45    1
    48    28    46    1
    49    28    47    1
    50    29    48    1
    51    29    49    1
    52    29    50    1
@<TRIPOS>MOLECULE
*****
 54 57 0 0 0
SMALL
GASTEIGER

@<TRIPOS>ATOM
      1 O           1.4157    0.3041    2.2187 O.3     1  UNL1       -0.5059
      2 C           2.6068    0.1682    1.5603 C.ar    1  UNL1        0.1325
      3 C           3.3648    1.3302    1.4232 C.ar    1  UNL1        0.0228
      4 C           4.6181    1.2869    0.8076 C.ar    1  UNL1        0.1310
      5 O           5.1645    2.4663    0.4069 O.3     1  UNL1       -0.5059
      6 C           5.2345    0.0740    0.5000 C.ar    1  UNL1        0.0619
      7 C           4.4145   -1.0845    0.5786 C.ar    1  UNL1       -0.0319
      8 C           3.0570   -1.0207    0.9950 C.ar    1  UNL1        0.0791
      9 C           2.1765   -2.2179    0.7730 C.2     1  UNL1        0.2502
     10 O           2.6791   -3.3161    1.0149 O.2     1  UNL1       -0.2699
     11 N           0.8613   -2.0930    0.2555 N.am    1  UNL1       -0.2962
     12 C           0.1991   -3.3225   -0.2218 C.3     1  UNL1        0.0397
     13 C          -0.7479   -4.0109    0.7401 C.ar    1  UNL1       -0.0301
     14 C          -2.1436   -3.9910    0.5420 C.ar    1  UNL1       -0.0571
     15 C          -2.9894   -4.7952    1.3141 C.ar    1  UNL1       -0.0615
     16 C          -2.4580   -5.6242    2.2975 C.ar    1  UNL1       -0.0617
     17 C          -1.0841   -5.6263    2.5291 C.ar    1  UNL1       -0.0615
     18 C          -0.2373   -4.8200    1.7615 C.ar    1  UNL1       -0.0571
     19 C           0.2816   -0.8791   -0.3189 C.3     1  UNL1        0.0038
     20 C           6.6129   -0.0444   -0.0959 C.ar    1  UNL1        0.1727
     21 N           6.9060   -1.0842   -0.8394 N.ar    1  UNL1       -0.1507
     22 N           8.1604   -0.8412   -1.3156 N.ar    1  UNL1       -0.2260
     23 H           8.6355   -1.4518   -1.9584 H       1  UNL1        0.1937
     24 C           8.6370    0.3828   -0.8579 C.ar    1  UNL1        0.3489
     25 O           9.7199    0.8692   -1.1649 O.2     1  UNL1       -0.2446
     26 N           7.6561    0.8562   -0.0108 N.ar    1  UNL1       -0.2434
     27 C           7.8411    2.0253    0.7567 C.ar    1  UNL1        0.0558
     28 C           8.1055    3.2309    0.0791 C.ar    1  UNL1       -0.0374
     29 C           8.1692    4.4448    0.7674 C.ar    1  UNL1       -0.0598
     30 C           8.0000    4.4642    2.1467 C.ar    1  UNL1       -0.0614
     31 C           7.8365    3.2637    2.8396 C.ar    1  UNL1       -0.0569
     32 C           7.7784    2.0316    2.1634 C.ar    1  UNL1       -0.0264
     33 C           7.8835    0.7705    2.9742 C.3     1  UNL1       -0.0377
     34 H           0.9895   -0.5710    2.2986 H       1  UNL1        0.2922
     35 H           2.9381    2.2732    1.7524 H       1  UNL1        0.0691
     36 H           4.5362    3.1951    0.5202 H       1  UNL1        0.2922
     37 H           4.8163   -2.0471    0.2604 H       1  UNL1        0.0634
     38 H           0.9542   -4.0465   -0.5506 H       1  UNL1        0.0514
     39 H          -0.3596   -3.0733   -1.1354 H       1  UNL1        0.0514
     40 H          -2.5777   -3.3880   -0.2516 H       1  UNL1        0.0621
     41 H          -4.0640   -4.8042    1.1241 H       1  UNL1        0.0618
     42 H          -3.1066   -6.2805    2.8728 H       1  UNL1        0.0618
     43 H          -0.6610   -6.2796    3.2878 H       1  UNL1        0.0618
     44 H           0.8345   -4.8720    1.9287 H       1  UNL1        0.0621
     45 H           0.7263    0.0487    0.0193 H       1  UNL1        0.0429
     46 H          -0.7880   -0.8578   -0.0844 H       1  UNL1        0.0429
     47 H           0.4160   -0.9132   -1.4044 H       1  UNL1        0.0429
     48 H           8.2191    3.2383   -1.0028 H       1  UNL1        0.0638
     49 H           8.3415    5.3697    0.2223 H       1  UNL1        0.0618
     50 H           8.0352    5.4064    2.6875 H       1  UNL1        0.0618
     51 H           7.7808    3.2935    3.9274 H       1  UNL1        0.0621
     52 H           7.5449    0.9317    4.0028 H       1  UNL1        0.0278
     53 H           8.9355    0.4624    3.0107 H       1  UNL1        0.0278
     54 H           7.2934   -0.0485    2.5620 H       1  UNL1        0.0278
@<TRIPOS>BOND
     1     1     2    1
     2     2     3   ar
     3     3     4   ar
     4     4     5    1
     5     4     6   ar
     6     6     7   ar
     7     7     8   ar
     8     2     8   ar
     9     8     9    1
    10     9    10    2
    11     9    11   am
    12    11    12    1
    13    12    13    1
    14    13    14   ar
    15    14    15   ar
    16    15    16   ar
    17    16    17   ar
    18    17    18   ar
    19    13    18   ar
    20    11    19    1
    21     6    20    1
    22    20    21   ar
    23    21    22   ar
    24    22    23    1
    25    22    24   ar
    26    24    25    2
    27    24    26   ar
    28    20    26   ar
    29    26    27    1
    30    27    28   ar
    31    28    29   ar
    32    29    30   ar
    33    30    31   ar
    34    31    32   ar
    35    27    32   ar
    36    32    33    1
    37     1    34    1
    38     3    35    1
    39     5    36    1
    40     7    37    1
    41    12    38    1
    42    12    39    1
    43    14    40    1
    44    15    41    1
    45    16    42    1
    46    17    43    1
    47    18    44    1
    48    19    45    1
    49    19    46    1
    50    19    47    1
    51    28    48    1
    52    29    49    1
    53    30    50    1
    54    31    51    1
    55    33    52    1
    56    33    53    1
    57    33    54    1
@<TRIPOS>MOLECULE
*****
 59 61 0 0 0
SMALL
GASTEIGER

@<TRIPOS>ATOM
      1 C          10.4144    5.4183   -7.4501 C.3     1  UNL1       -0.0653
      2 C           9.6501    4.1410   -7.7690 C.3     1  UNL1       -0.0559
      3 C           9.6387    3.2344   -6.5454 C.3     1  UNL1       -0.0533
      4 C           8.7997    1.9691   -6.7417 C.3     1  UNL1       -0.0516
      5 C           8.8113    1.0803   -5.4947 C.3     1  UNL1       -0.0371
      6 C           8.2835    1.7524   -4.2209 C.3     1  UNL1        0.0147
      7 N           6.8252    1.7803   -4.1215 N.am    1  UNL1       -0.3005
      8 C           6.1175    2.9413   -4.5322 C.2     1  UNL1        0.2499
      9 O           6.6708    3.8934   -5.0710 O.2     1  UNL1       -0.2699
     10 C           4.6445    3.0278   -4.2526 C.ar    1  UNL1        0.0791
     11 C           3.8152    1.9372   -4.5497 C.ar    1  UNL1       -0.0334
     12 C           2.5557    1.7562   -3.9353 C.ar    1  UNL1        0.0428
     13 C           2.1113    2.7992   -3.1076 C.ar    1  UNL1        0.1295
     14 C           2.8043    4.0072   -3.0379 C.ar    1  UNL1        0.0227
     15 C           4.0718    4.1212   -3.6070 C.ar    1  UNL1        0.1325
     16 O           4.7266    5.3077   -3.4790 O.3     1  UNL1       -0.5059
     17 O           1.0128    2.7282   -2.2954 O.3     1  UNL1       -0.5060
     18 C           1.9066    0.4318   -4.1184 C.ar    1  UNL1        0.0781
     19 C           2.5810   -0.7733   -4.2919 C.ar    1  UNL1       -0.0158
     20 C           1.6101   -1.7684   -4.3404 C.ar    1  UNL1        0.0504
     21 N           0.3963   -1.2692   -4.1654 N.ar    1  UNL1       -0.1742
     22 N           0.5473    0.0829   -4.1313 N.ar    1  UNL1       -0.2318
     23 C          -0.6339    0.8895   -4.1793 C.ar    1  UNL1        0.0689
     24 C          -0.5811    2.1475   -4.8021 C.ar    1  UNL1       -0.0360
     25 C          -1.7199    2.9492   -4.8939 C.ar    1  UNL1       -0.0597
     26 C          -2.9394    2.4818   -4.4234 C.ar    1  UNL1       -0.0614
     27 C          -3.0139    1.2339   -3.8109 C.ar    1  UNL1       -0.0568
     28 C          -1.8685    0.4329   -3.6454 C.ar    1  UNL1       -0.0250
     29 C          -2.0221   -0.8066   -2.7976 C.3     1  UNL1       -0.0377
     30 C           6.2211    0.5727   -3.5783 C.3     1  UNL1        0.0035
     31 H          10.4230    6.0888   -8.3152 H       1  UNL1        0.0230
     32 H          11.4506    5.1945   -7.1765 H       1  UNL1        0.0230
     33 H           9.9513    5.9498   -6.6120 H       1  UNL1        0.0230
     34 H          10.1170    3.6295   -8.6172 H       1  UNL1        0.0263
     35 H           8.6239    4.3959   -8.0578 H       1  UNL1        0.0263
     36 H           9.2467    3.8190   -5.7102 H       1  UNL1        0.0265
     37 H          10.6650    2.9519   -6.2838 H       1  UNL1        0.0265
     38 H           9.2077    1.3942   -7.5822 H       1  UNL1        0.0266
     39 H           7.7686    2.2261   -7.0080 H       1  UNL1        0.0266
     40 H           9.8489    0.7701   -5.3115 H       1  UNL1        0.0280
     41 H           8.2487    0.1613   -5.7014 H       1  UNL1        0.0280
     42 H           8.6802    2.7584   -4.0814 H       1  UNL1        0.0464
     43 H           8.6576    1.1859   -3.3576 H       1  UNL1        0.0464
     44 H           4.2049    1.1752   -5.2202 H       1  UNL1        0.0634
     45 H           2.3882    4.8220   -2.4509 H       1  UNL1        0.0691
     46 H           4.0778    6.0248   -3.6080 H       1  UNL1        0.2922
     47 H           0.7257    1.8057   -2.1989 H       1  UNL1        0.2922
     48 H           3.6482   -0.9188   -4.3591 H       1  UNL1        0.0655
     49 H           1.7348   -2.8352   -4.4817 H       1  UNL1        0.0848
     50 H           0.3352    2.5319   -5.2399 H       1  UNL1        0.0639
     51 H          -1.6540    3.9358   -5.3446 H       1  UNL1        0.0618
     52 H          -3.8338    3.0912   -4.5205 H       1  UNL1        0.0618
     53 H          -3.9789    0.8913   -3.4399 H       1  UNL1        0.0621
     54 H          -3.0443   -0.9016   -2.4130 H       1  UNL1        0.0278
     55 H          -1.3648   -0.7405   -1.9224 H       1  UNL1        0.0278
     56 H          -1.8226   -1.7218   -3.3577 H       1  UNL1        0.0278
     57 H           6.9681   -0.0579   -3.0880 H       1  UNL1        0.0429
     58 H           5.8029   -0.0040   -4.4064 H       1  UNL1        0.0429
     59 H           5.4540    0.8204   -2.8420 H       1  UNL1        0.0429
@<TRIPOS>BOND
     1     1     2    1
     2     2     3    1
     3     3     4    1
     4     4     5    1
     5     5     6    1
     6     6     7    1
     7     7     8   am
     8     8     9    2
     9     8    10    1
    10    10    11   ar
    11    11    12   ar
    12    12    13   ar
    13    13    14   ar
    14    14    15   ar
    15    10    15   ar
    16    15    16    1
    17    13    17    1
    18    12    18    1
    19    18    19   ar
    20    19    20   ar
    21    20    21   ar
    22    21    22   ar
    23    18    22   ar
    24    22    23    1
    25    23    24   ar
    26    24    25   ar
    27    25    26   ar
    28    26    27   ar
    29    27    28   ar
    30    23    28   ar
    31    28    29    1
    32     7    30    1
    33     1    31    1
    34     1    32    1
    35     1    33    1
    36     2    34    1
    37     2    35    1
    38     3    36    1
    39     3    37    1
    40     4    38    1
    41     4    39    1
    42     5    40    1
    43     5    41    1
    44     6    42    1
    45     6    43    1
    46    11    44    1
    47    14    45    1
    48    16    46    1
    49    17    47    1
    50    19    48    1
    51    20    49    1
    52    24    50    1
    53    25    51    1
    54    26    52    1
    55    27    53    1
    56    29    54    1
    57    29    55    1
    58    29    56    1
    59    30    57    1
    60    30    58    1
    61    30    59    1
@<TRIPOS>MOLECULE
*****
 57 60 0 0 0
SMALL
GASTEIGER

@<TRIPOS>ATOM
      1 C           5.1040   -5.7068    4.1807 C.3     1  UNL1       -0.0397
      2 C           4.3071   -6.5678    3.2513 C.ar    1  UNL1       -0.0501
      3 C           3.6541   -7.7261    3.6806 C.ar    1  UNL1       -0.0588
      4 C           2.7901   -8.4063    2.8154 C.ar    1  UNL1       -0.0612
      5 C           2.4978   -7.8742    1.5552 C.ar    1  UNL1       -0.0571
      6 C           3.0954   -6.6736    1.1477 C.ar    1  UNL1       -0.0299
      7 C           4.0764   -6.0987    1.9600 C.ar    1  UNL1       -0.0541
      8 C           2.5992   -5.8514   -0.0277 C.3     1  UNL1        0.0397
      9 N           1.9648   -4.5985    0.4544 N.am    1  UNL1       -0.2962
     10 C           2.7158   -3.4039    0.4485 C.2     1  UNL1        0.2502
     11 O           3.8305   -3.3673   -0.0790 O.2     1  UNL1       -0.2699
     12 C           2.1887   -2.1184    1.0582 C.ar    1  UNL1        0.0791
     13 C           0.8488   -1.6951    0.8824 C.ar    1  UNL1       -0.0319
     14 C           0.3975   -0.4372    1.3324 C.ar    1  UNL1        0.0619
     15 C           1.3286    0.4226    1.9419 C.ar    1  UNL1        0.1310
     16 C           2.6537    0.0377    2.1233 C.ar    1  UNL1        0.0228
     17 C           3.0801   -1.2163    1.6749 C.ar    1  UNL1        0.1325
     18 O           4.4049   -1.5220    1.8537 O.3     1  UNL1       -0.5059
     19 O           1.0289    1.6984    2.3489 O.3     1  UNL1       -0.5059
     20 C          -0.9416    0.1099    0.9561 C.ar    1  UNL1        0.1727
     21 N          -1.0609    1.3950    0.7221 N.ar    1  UNL1       -0.1507
     22 N          -2.3281    1.5449    0.2516 N.ar    1  UNL1       -0.2260
     23 H          -2.7082    2.4329   -0.0459 H       1  UNL1        0.1937
     24 C          -2.9933    0.3284    0.2055 C.ar    1  UNL1        0.3489
     25 O          -4.1449    0.1760   -0.1655 O.2     1  UNL1       -0.2446
     26 N          -2.0891   -0.6032    0.6970 N.ar    1  UNL1       -0.2434
     27 C          -2.5108   -1.8866    1.0951 C.ar    1  UNL1        0.0558
     28 C          -3.0949   -2.7241    0.1318 C.ar    1  UNL1       -0.0374
     29 C          -3.5355   -4.0057    0.4666 C.ar    1  UNL1       -0.0598
     30 C          -3.3876   -4.4701    1.7684 C.ar    1  UNL1       -0.0614
     31 C          -2.9098   -3.6136    2.7554 C.ar    1  UNL1       -0.0569
     32 C          -2.5283   -2.2857    2.4376 C.ar    1  UNL1       -0.0264
     33 C          -2.4590   -1.2975    3.5651 C.3     1  UNL1       -0.0377
     34 C           0.6496   -4.7507    1.0539 C.3     1  UNL1        0.0038
     35 H           5.7809   -6.2997    4.7986 H       1  UNL1        0.0278
     36 H           4.4161   -5.1421    4.8195 H       1  UNL1        0.0278
     37 H           5.7048   -4.9797    3.6212 H       1  UNL1        0.0278
     38 H           3.7894   -8.0867    4.6980 H       1  UNL1        0.0620
     39 H           2.2991   -9.3166    3.1521 H       1  UNL1        0.0618
     40 H           1.7631   -8.3752    0.9302 H       1  UNL1        0.0621
     41 H           4.5851   -5.1991    1.6162 H       1  UNL1        0.0623
     42 H           1.8542   -6.4080   -0.6079 H       1  UNL1        0.0514
     43 H           3.4397   -5.6369   -0.6975 H       1  UNL1        0.0514
     44 H           0.1704   -2.3132    0.3087 H       1  UNL1        0.0634
     45 H           3.3504    0.7349    2.5834 H       1  UNL1        0.0691
     46 H           4.9285   -0.7261    1.6508 H       1  UNL1        0.2922
     47 H           0.1979    1.9769    1.9054 H       1  UNL1        0.2922
     48 H          -3.2410   -2.3726   -0.8881 H       1  UNL1        0.0638
     49 H          -4.0130   -4.6317   -0.2845 H       1  UNL1        0.0618
     50 H          -3.7179   -5.4725    2.0304 H       1  UNL1        0.0618
     51 H          -2.8967   -3.9603    3.7881 H       1  UNL1        0.0621
     52 H          -2.6367   -1.7742    4.5370 H       1  UNL1        0.0278
     53 H          -3.2687   -0.5647    3.4356 H       1  UNL1        0.0278
     54 H          -1.5016   -0.7798    3.6068 H       1  UNL1        0.0278
     55 H           0.4461   -5.7963    1.2999 H       1  UNL1        0.0429
     56 H          -0.0864   -4.4369    0.3113 H       1  UNL1        0.0429
     57 H           0.5624   -4.1555    1.9648 H       1  UNL1        0.0429
@<TRIPOS>BOND
     1     1     2    1
     2     2     3   ar
     3     3     4   ar
     4     4     5   ar
     5     5     6   ar
     6     6     7   ar
     7     2     7   ar
     8     6     8    1
     9     8     9    1
    10     9    10   am
    11    10    11    2
    12    10    12    1
    13    12    13   ar
    14    13    14   ar
    15    14    15   ar
    16    15    16   ar
    17    16    17   ar
    18    12    17   ar
    19    17    18    1
    20    15    19    1
    21    14    20    1
    22    20    21   ar
    23    21    22   ar
    24    22    23    1
    25    22    24   ar
    26    24    25    2
    27    24    26   ar
    28    20    26   ar
    29    26    27    1
    30    27    28   ar
    31    28    29   ar
    32    29    30   ar
    33    30    31   ar
    34    31    32   ar
    35    27    32   ar
    36    32    33    1
    37     9    34    1
    38     1    35    1
    39     1    36    1
    40     1    37    1
    41     3    38    1
    42     4    39    1
    43     5    40    1
    44     7    41    1
    45     8    42    1
    46     8    43    1
    47    13    44    1
    48    16    45    1
    49    18    46    1
    50    19    47    1
    51    28    48    1
    52    29    49    1
    53    30    50    1
    54    31    51    1
    55    33    52    1
    56    33    53    1
    57    33    54    1
    58    34    55    1
    59    34    56    1
    60    34    57    1
@<TRIPOS>MOLECULE
*****
 55 58 0 0 0
SMALL
GASTEIGER

@<TRIPOS>ATOM
      1 O           1.2839   -0.0473   -1.3639 O.3     1  UNL1       -0.5059
      2 C           2.5399   -0.0033   -0.8242 C.ar    1  UNL1        0.1325
      3 C           3.1970    1.2126   -0.9065 C.ar    1  UNL1        0.0228
      4 C           4.5177    1.3203   -0.4699 C.ar    1  UNL1        0.1310
      5 O           5.0094    2.5726   -0.3492 O.3     1  UNL1       -0.5059
      6 C           5.2617    0.1902   -0.1214 C.ar    1  UNL1        0.0619
      7 C           4.5352   -1.0158    0.0604 C.ar    1  UNL1       -0.0319
      8 C           3.1560   -1.0946   -0.2082 C.ar    1  UNL1        0.0791
      9 C           2.3256   -2.3012    0.0873 C.2     1  UNL1        0.2500
     10 O           1.4942   -2.6137   -0.7682 O.2     1  UNL1       -0.2699
     11 N           2.4372   -2.9782    1.3061 N.am    1  UNL1       -0.2980
     12 C           1.5508   -4.1306    1.5627 C.3     1  UNL1        0.0409
     13 C           0.1503   -3.7388    2.0740 C.3     1  UNL1        0.0744
     14 C          -0.6588   -4.8881    2.6597 C.3     1  UNL1       -0.0230
     15 C          -1.7410   -4.1576    3.4356 C.3     1  UNL1       -0.0271
     16 C          -1.1350   -2.7927    3.7222 C.3     1  UNL1        0.0482
     17 O           0.1921   -2.8144    3.1790 O.3     1  UNL1       -0.3750
     18 C           3.1985   -2.5110    2.4593 C.3     1  UNL1        0.0036
     19 C           6.7670    0.0744   -0.1400 C.ar    1  UNL1        0.1727
     20 N           7.2905   -1.1276   -0.2367 N.ar    1  UNL1       -0.1507
     21 N           8.6360   -0.9231   -0.3676 N.ar    1  UNL1       -0.2260
     22 H           9.2874   -1.6615   -0.5951 H       1  UNL1        0.1937
     23 C           8.9294    0.4295   -0.3770 C.ar    1  UNL1        0.3489
     24 O          10.0393    0.9023   -0.5553 O.2     1  UNL1       -0.2446
     25 N           7.7302    1.0655   -0.1767 N.ar    1  UNL1       -0.2434
     26 C           7.6505    2.4682   -0.1011 C.ar    1  UNL1        0.0558
     27 C           7.4884    3.2017   -1.2877 C.ar    1  UNL1       -0.0374
     28 C           7.1992    4.5694   -1.2259 C.ar    1  UNL1       -0.0598
     29 C           7.0973    5.2086    0.0088 C.ar    1  UNL1       -0.0614
     30 C           7.3734    4.5000    1.1808 C.ar    1  UNL1       -0.0569
     31 C           7.6807    3.1302    1.1378 C.ar    1  UNL1       -0.0264
     32 C           8.1536    2.4630    2.4032 C.3     1  UNL1       -0.0377
     33 H           1.0292   -0.9953   -1.4339 H       1  UNL1        0.2922
     34 H           2.6692    2.0734   -1.3085 H       1  UNL1        0.0691
     35 H           4.4194    3.2365   -0.7392 H       1  UNL1        0.2922
     36 H           5.0526   -1.9145    0.3935 H       1  UNL1        0.0634
     37 H           2.0627   -4.7853    2.2777 H       1  UNL1        0.0490
     38 H           1.4344   -4.7006    0.6332 H       1  UNL1        0.0490
     39 H          -0.4071   -3.2508    1.2638 H       1  UNL1        0.0611
     40 H          -0.0541   -5.4713    3.3673 H       1  UNL1        0.0291
     41 H          -1.0613   -5.5730    1.9088 H       1  UNL1        0.0291
     42 H          -2.0189   -4.6811    4.3566 H       1  UNL1        0.0288
     43 H          -2.6546   -4.0465    2.8410 H       1  UNL1        0.0288
     44 H          -1.0940   -2.5573    4.7893 H       1  UNL1        0.0560
     45 H          -1.6949   -2.0010    3.2123 H       1  UNL1        0.0560
     46 H           3.5460   -1.4832    2.3509 H       1  UNL1        0.0429
     47 H           4.0511   -3.1825    2.5946 H       1  UNL1        0.0429
     48 H           2.5828   -2.5488    3.3598 H       1  UNL1        0.0429
     49 H           7.5017    2.7033   -2.2461 H       1  UNL1        0.0638
     50 H           7.0088    5.1248   -2.1424 H       1  UNL1        0.0618
     51 H           6.8224    6.2583    0.0610 H       1  UNL1        0.0618
     52 H           7.3420    5.0274    2.1331 H       1  UNL1        0.0621
     53 H           7.6875    2.9129    3.2863 H       1  UNL1        0.0278
     54 H           9.2392    2.5916    2.4871 H       1  UNL1        0.0278
     55 H           7.9249    1.3957    2.4238 H       1  UNL1        0.0278
@<TRIPOS>BOND
     1     1     2    1
     2     2     3   ar
     3     3     4   ar
     4     4     5    1
     5     4     6   ar
     6     6     7   ar
     7     7     8   ar
     8     2     8   ar
     9     8     9    1
    10     9    10    2
    11     9    11   am
    12    11    12    1
    13    12    13    1
    14    13    14    1
    15    14    15    1
    16    15    16    1
    17    16    17    1
    18    13    17    1
    19    11    18    1
    20     6    19    1
    21    19    20   ar
    22    20    21   ar
    23    21    22    1
    24    21    23   ar
    25    23    24    2
    26    23    25   ar
    27    19    25   ar
    28    25    26    1
    29    26    27   ar
    30    27    28   ar
    31    28    29   ar
    32    29    30   ar
    33    30    31   ar
    34    26    31   ar
    35    31    32    1
    36     1    33    1
    37     3    34    1
    38     5    35    1
    39     7    36    1
    40    12    37    1
    41    12    38    1
    42    13    39    1
    43    14    40    1
    44    14    41    1
    45    15    42    1
    46    15    43    1
    47    16    44    1
    48    16    45    1
    49    18    46    1
    50    18    47    1
    51    18    48    1
    52    27    49    1
    53    28    50    1
    54    29    51    1
    55    30    52    1
    56    32    53    1
    57    32    54    1
    58    32    55    1
@<TRIPOS>MOLECULE
*****
 50 52 0 0 0
SMALL
GASTEIGER

@<TRIPOS>ATOM
      1 C           7.1523   -6.2120   -0.9093 C.3     1  UNL1       -0.0652
      2 C           6.5884   -5.2026    0.0825 C.3     1  UNL1       -0.0545
      3 C           6.7140   -5.7282    1.5131 C.3     1  UNL1       -0.0374
      4 C           6.2496   -4.7254    2.5737 C.3     1  UNL1        0.0147
      5 N           4.7926   -4.6092    2.6848 N.am    1  UNL1       -0.3005
      6 C           4.2194   -3.3361    2.5228 C.2     1  UNL1        0.2499
      7 O           4.9336   -2.3523    2.3196 O.2     1  UNL1       -0.2699
      8 C           2.7319   -3.1269    2.4811 C.ar    1  UNL1        0.0791
      9 C           1.8640   -4.1182    1.9813 C.ar    1  UNL1       -0.0319
     10 C           0.5192   -3.8506    1.7417 C.ar    1  UNL1        0.0619
     11 C           0.1045   -2.5107    1.7738 C.ar    1  UNL1        0.1310
     12 C           0.8999   -1.5260    2.3412 C.ar    1  UNL1        0.0228
     13 C           2.1970   -1.8458    2.7369 C.ar    1  UNL1        0.1325
     14 O           2.9385   -0.8775    3.3536 O.3     1  UNL1       -0.5059
     15 O          -1.0430   -2.0703    1.1650 O.3     1  UNL1       -0.5059
     16 C          -0.4231   -4.9087    1.2940 C.ar    1  UNL1        0.1727
     17 N          -1.2924   -4.5910    0.3632 N.ar    1  UNL1       -0.1507
     18 N          -1.9995   -5.7212    0.1561 N.ar    1  UNL1       -0.2260
     19 H          -2.8393   -5.7606   -0.4045 H       1  UNL1        0.1937
     20 C          -1.5825   -6.7421    0.9957 C.ar    1  UNL1        0.3489
     21 O          -2.1514   -7.8190    1.0534 O.2     1  UNL1       -0.2446
     22 N          -0.5193   -6.2178    1.7289 N.ar    1  UNL1       -0.2436
     23 C           0.0592   -6.9615    2.8111 C.ar    1  UNL1        0.0530
     24 C           0.0085   -8.3741    2.7997 C.ar    1  UNL1       -0.0376
     25 C           0.4228   -9.1540    3.8868 C.ar    1  UNL1       -0.0598
     26 C           0.9421   -8.5389    5.0135 C.ar    1  UNL1       -0.0616
     27 C           1.0519   -7.1516    5.0387 C.ar    1  UNL1       -0.0598
     28 C           0.6066   -6.3688    3.9532 C.ar    1  UNL1       -0.0376
     29 C           4.0966   -5.8092    3.1203 C.3     1  UNL1        0.0035
     30 H           7.1199   -5.8121   -1.9272 H       1  UNL1        0.0230
     31 H           6.5759   -7.1427   -0.8895 H       1  UNL1        0.0230
     32 H           8.1946   -6.4528   -0.6738 H       1  UNL1        0.0230
     33 H           5.5401   -4.9985   -0.1623 H       1  UNL1        0.0263
     34 H           7.1379   -4.2593   -0.0182 H       1  UNL1        0.0263
     35 H           7.7693   -5.9549    1.7081 H       1  UNL1        0.0280
     36 H           6.1678   -6.6738    1.6037 H       1  UNL1        0.0280
     37 H           6.7197   -3.7543    2.3881 H       1  UNL1        0.0464
     38 H           6.6051   -5.0533    3.5580 H       1  UNL1        0.0464
     39 H           2.2274   -5.0945    1.6950 H       1  UNL1        0.0634
     40 H           0.5162   -0.5132    2.4238 H       1  UNL1        0.0691
     41 H           2.5401   -0.0020    3.1967 H       1  UNL1        0.2922
     42 H          -1.2689   -2.7279    0.4691 H       1  UNL1        0.2922
     43 H          -0.3748   -8.9188    1.9383 H       1  UNL1        0.0638
     44 H           0.3133  -10.2363    3.8500 H       1  UNL1        0.0618
     45 H           1.2434   -9.1378    5.8719 H       1  UNL1        0.0618
     46 H           1.4591   -6.6680    5.9246 H       1  UNL1        0.0618
     47 H           0.6540   -5.2932    4.0760 H       1  UNL1        0.0638
     48 H           4.7803   -6.4817    3.6444 H       1  UNL1        0.0429
     49 H           3.7233   -6.3382    2.2383 H       1  UNL1        0.0429
     50 H           3.2877   -5.5457    3.8001 H       1  UNL1        0.0429
@<TRIPOS>BOND
     1     1     2    1
     2     2     3    1
     3     3     4    1
     4     4     5    1
     5     5     6   am
     6     6     7    2
     7     6     8    1
     8     8     9   ar
     9     9    10   ar
    10    10    11   ar
    11    11    12   ar
    12    12    13   ar
    13     8    13   ar
    14    13    14    1
    15    11    15    1
    16    10    16    1
    17    16    17   ar
    18    17    18   ar
    19    18    19    1
    20    18    20   ar
    21    20    21    2
    22    20    22   ar
    23    16    22   ar
    24    22    23    1
    25    23    24   ar
    26    24    25   ar
    27    25    26   ar
    28    26    27   ar
    29    27    28   ar
    30    23    28   ar
    31     5    29    1
    32     1    30    1
    33     1    31    1
    34     1    32    1
    35     2    33    1
    36     2    34    1
    37     3    35    1
    38     3    36    1
    39     4    37    1
    40     4    38    1
    41     9    39    1
    42    12    40    1
    43    14    41    1
    44    15    42    1
    45    24    43    1
    46    25    44    1
    47    26    45    1
    48    27    46    1
    49    28    47    1
    50    29    48    1
    51    29    49    1
    52    29    50    1
@<TRIPOS>MOLECULE
*****
 51 54 0 0 0
SMALL
GASTEIGER

@<TRIPOS>ATOM
      1 O           1.2780   -0.0906   -1.7987 O.3     1  UNL1       -0.5059
      2 C           2.4924    0.0478   -1.1855 C.ar    1  UNL1        0.1325
      3 C           3.2252    1.2076   -1.4189 C.ar    1  UNL1        0.0227
      4 C           4.5625    1.2841   -1.0241 C.ar    1  UNL1        0.1295
      5 O           5.2377    2.4131   -1.3879 O.3     1  UNL1       -0.5060
      6 C           5.2016    0.2116   -0.3855 C.ar    1  UNL1        0.0428
      7 C           4.3859   -0.8954   -0.0330 C.ar    1  UNL1       -0.0334
      8 C           3.0216   -0.9772   -0.3952 C.ar    1  UNL1        0.0791
      9 C           2.2689   -2.2338   -0.0687 C.2     1  UNL1        0.2503
     10 O           2.9125   -3.2869   -0.0791 O.2     1  UNL1       -0.2699
     11 N           0.9015   -2.2073    0.2482 N.am    1  UNL1       -0.2932
     12 C           0.1645   -3.4711    0.2173 C.3     1  UNL1        0.0726
     13 C          -0.1947   -3.9446    1.5820 C.ar    1  UNL1        0.1220
     14 C           0.5461   -4.3396    2.6773 C.ar    1  UNL1       -0.0191
     15 C          -0.3791   -4.8046    3.6431 C.ar    1  UNL1       -0.0236
     16 C          -1.6269   -4.6390    3.0901 C.ar    1  UNL1        0.0921
     17 O          -1.5273   -4.1083    1.8436 O.2     1  UNL1       -0.4662
     18 C           0.1023   -1.0219    0.5173 C.3     1  UNL1        0.0039
     19 C           6.6798    0.0894   -0.2384 C.ar    1  UNL1        0.0781
     20 C           7.3932   -1.0929   -0.4219 C.ar    1  UNL1       -0.0158
     21 C           8.7351   -0.7316   -0.5423 C.ar    1  UNL1        0.0504
     22 N           8.9146    0.5734   -0.4000 N.ar    1  UNL1       -0.1742
     23 N           7.6744    1.0830   -0.1127 N.ar    1  UNL1       -0.2318
     24 C           7.6123    2.4750    0.2115 C.ar    1  UNL1        0.0689
     25 C           8.5240    3.3219   -0.4607 C.ar    1  UNL1       -0.0360
     26 C           8.4536    4.7083   -0.3291 C.ar    1  UNL1       -0.0597
     27 C           7.4732    5.2695    0.4762 C.ar    1  UNL1       -0.0614
     28 C           6.6253    4.4416    1.2147 C.ar    1  UNL1       -0.0568
     29 C           6.7060    3.0349    1.1299 C.ar    1  UNL1       -0.0250
     30 C           5.9839    2.2531    2.1912 C.3     1  UNL1       -0.0377
     31 H           1.0002    0.7581   -2.1784 H       1  UNL1        0.2922
     32 H           2.7939    2.0224   -1.9906 H       1  UNL1        0.0691
     33 H           4.6870    3.1878   -1.1745 H       1  UNL1        0.2922
     34 H           4.8247   -1.7411    0.4986 H       1  UNL1        0.0634
     35 H           0.7432   -4.2488   -0.2898 H       1  UNL1        0.0545
     36 H          -0.7403   -3.3115   -0.3828 H       1  UNL1        0.0545
     37 H           1.6254   -4.3256    2.7427 H       1  UNL1        0.0652
     38 H          -0.1633   -5.2248    4.6153 H       1  UNL1        0.0649
     39 H          -2.6310   -4.8534    3.4297 H       1  UNL1        0.1029
     40 H           0.7066   -0.1229    0.6388 H       1  UNL1        0.0429
     41 H          -0.4650   -1.1569    1.4417 H       1  UNL1        0.0429
     42 H          -0.6066   -0.8861   -0.3077 H       1  UNL1        0.0429
     43 H           6.9796   -2.0801   -0.5788 H       1  UNL1        0.0655
     44 H           9.5882   -1.3592   -0.7662 H       1  UNL1        0.0848
     45 H           9.2802    2.9070   -1.1272 H       1  UNL1        0.0639
     46 H           9.1555    5.3413   -0.8662 H       1  UNL1        0.0618
     47 H           7.3956    6.3499    0.5637 H       1  UNL1        0.0618
     48 H           5.9156    4.9048    1.8971 H       1  UNL1        0.0621
     49 H           5.0172    2.7127    2.4187 H       1  UNL1        0.0278
     50 H           6.5940    2.2542    3.1020 H       1  UNL1        0.0278
     51 H           5.7955    1.2145    1.9360 H       1  UNL1        0.0278
@<TRIPOS>BOND
     1     1     2    1
     2     2     3   ar
     3     3     4   ar
     4     4     5    1
     5     4     6   ar
     6     6     7   ar
     7     7     8   ar
     8     2     8   ar
     9     8     9    1
    10     9    10    2
    11     9    11   am
    12    11    12    1
    13    12    13    1
    14    13    14   ar
    15    14    15   ar
    16    15    16   ar
    17    16    17   ar
    18    13    17   ar
    19    11    18    1
    20     6    19    1
    21    19    20   ar
    22    20    21   ar
    23    21    22   ar
    24    22    23   ar
    25    19    23   ar
    26    23    24    1
    27    24    25   ar
    28    25    26   ar
    29    26    27   ar
    30    27    28   ar
    31    28    29   ar
    32    24    29   ar
    33    29    30    1
    34     1    31    1
    35     3    32    1
    36     5    33    1
    37     7    34    1
    38    12    35    1
    39    12    36    1
    40    14    37    1
    41    15    38    1
    42    16    39    1
    43    18    40    1
    44    18    41    1
    45    18    42    1
    46    20    43    1
    47    21    44    1
    48    25    45    1
    49    26    46    1
    50    27    47    1
    51    28    48    1
    52    30    49    1
    53    30    50    1
    54    30    51    1
@<TRIPOS>MOLECULE
*****
 34 36 0 0 0
SMALL
GASTEIGER

@<TRIPOS>ATOM
      1 O           2.0875    0.3824    2.7424 O.3     1  UNL1       -0.5066
      2 C           3.1353    0.2076    1.8889 C.ar    1  UNL1        0.1204
      3 C           3.8153   -1.0015    1.8249 C.ar    1  UNL1       -0.0193
      4 C           4.9468   -1.1163    1.0100 C.ar    1  UNL1       -0.0441
      5 C           5.3863   -0.0372    0.2292 C.ar    1  UNL1        0.0612
      6 C           4.6487    1.1603    0.2788 C.ar    1  UNL1        0.1310
      7 C           3.5296    1.2833    1.1050 C.ar    1  UNL1        0.0220
      8 O           4.9791    2.2787   -0.4425 O.3     1  UNL1       -0.5059
      9 C           6.6983   -0.0668   -0.4751 C.ar    1  UNL1        0.1727
     10 N           7.3947    1.0335   -0.6102 N.ar    1  UNL1       -0.1507
     11 N           8.6013    0.6206   -1.0944 N.ar    1  UNL1       -0.2260
     12 H           9.4013    1.2353   -1.1765 H       1  UNL1        0.1937
     13 C           8.6380   -0.7646   -1.2228 C.ar    1  UNL1        0.3489
     14 O           9.6224   -1.4127   -1.5392 O.2     1  UNL1       -0.2446
     15 N           7.3632   -1.1894   -0.9112 N.ar    1  UNL1       -0.2434
     16 C           6.9325   -2.5222   -0.9978 C.ar    1  UNL1        0.0558
     17 C           7.6593   -3.5053   -0.3019 C.ar    1  UNL1       -0.0374
     18 C           7.1938   -4.8166   -0.2313 C.ar    1  UNL1       -0.0598
     19 C           6.0127   -5.1676   -0.8757 C.ar    1  UNL1       -0.0614
     20 C           5.3249   -4.2199   -1.6342 C.ar    1  UNL1       -0.0569
     21 C           5.7804   -2.8924   -1.7205 C.ar    1  UNL1       -0.0264
     22 C           5.1431   -1.9910   -2.7449 C.3     1  UNL1       -0.0377
     23 H           2.0417   -0.3803    3.3427 H       1  UNL1        0.2921
     24 H           3.5040   -1.8541    2.4214 H       1  UNL1        0.0654
     25 H           5.4907   -2.0528    1.0508 H       1  UNL1        0.0627
     26 H           2.9956    2.2275    1.1667 H       1  UNL1        0.0691
     27 H           5.8826    2.1583   -0.8023 H       1  UNL1        0.2922
     28 H           8.5743   -3.2430    0.2264 H       1  UNL1        0.0638
     29 H           7.7530   -5.5617    0.3291 H       1  UNL1        0.0618
     30 H           5.6432   -6.1887   -0.8171 H       1  UNL1        0.0618
     31 H           4.4374   -4.5318   -2.1825 H       1  UNL1        0.0621
     32 H           4.1264   -2.3200   -2.9830 H       1  UNL1        0.0278
     33 H           5.7349   -2.0254   -3.6668 H       1  UNL1        0.0278
     34 H           5.0736   -0.9539   -2.4163 H       1  UNL1        0.0278
@<TRIPOS>BOND
     1     1     2    1
     2     2     3   ar
     3     3     4   ar
     4     4     5   ar
     5     5     6   ar
     6     6     7   ar
     7     2     7   ar
     8     6     8    1
     9     5     9    1
    10     9    10   ar
    11    10    11   ar
    12    11    12    1
    13    11    13   ar
    14    13    14    2
    15    13    15   ar
    16     9    15   ar
    17    15    16    1
    18    16    17   ar
    19    17    18   ar
    20    18    19   ar
    21    19    20   ar
    22    20    21   ar
    23    16    21   ar
    24    21    22    1
    25     1    23    1
    26     3    24    1
    27     4    25    1
    28     7    26    1
    29     8    27    1
    30    17    28    1
    31    18    29    1
    32    19    30    1
    33    20    31    1
    34    22    32    1
    35    22    33    1
    36    22    34    1
@<TRIPOS>MOLECULE
*****
 31 33 0 0 0
SMALL
GASTEIGER

@<TRIPOS>ATOM
      1 O           1.0283    0.1481    0.4756 O.3     1  UNL1       -0.5066
      2 C           2.3821    0.0792    0.3398 C.ar    1  UNL1        0.1204
      3 C           3.1169    1.1570   -0.1328 C.ar    1  UNL1       -0.0193
      4 C           4.4929    1.0098   -0.3313 C.ar    1  UNL1       -0.0441
      5 C           5.1476   -0.2035   -0.0408 C.ar    1  UNL1        0.0612
      6 C           4.4010   -1.2185    0.5696 C.ar    1  UNL1        0.1310
      7 C           3.0158   -1.0997    0.7069 C.ar    1  UNL1        0.0220
      8 O           4.9290   -2.3529    1.1168 O.3     1  UNL1       -0.5059
      9 C           6.5848   -0.2665   -0.4185 C.ar    1  UNL1        0.1727
     10 N           7.3299    0.8099   -0.3978 N.ar    1  UNL1       -0.1507
     11 N           8.5746    0.3863   -0.7499 N.ar    1  UNL1       -0.2260
     12 H           9.3607    1.0129   -0.8584 H       1  UNL1        0.1937
     13 C           8.5835   -0.9819   -0.9975 C.ar    1  UNL1        0.3490
     14 O           9.5602   -1.6261   -1.3398 O.2     1  UNL1       -0.2446
     15 N           7.2767   -1.3934   -0.7872 N.ar    1  UNL1       -0.2422
     16 C           6.8618   -2.7246   -0.9873 C.ar    1  UNL1        0.0712
     17 C           7.5478   -3.7279   -0.2805 C.ar    1  UNL1       -0.0362
     18 C           7.0628   -5.0350   -0.2453 C.ar    1  UNL1       -0.0597
     19 C           5.9127   -5.3647   -0.9555 C.ar    1  UNL1       -0.0603
     20 C           5.2813   -4.4017   -1.7453 C.ar    1  UNL1       -0.0414
     21 C           5.7574   -3.0874   -1.7740 C.ar    1  UNL1        0.0649
     22 CL          5.0105   -1.9847   -2.8759 Cl      1  UNL1       -0.0814
     23 H           0.7138    0.9652    0.0543 H       1  UNL1        0.2921
     24 H           2.6441    2.1070   -0.3616 H       1  UNL1        0.0654
     25 H           5.0530    1.8557   -0.7281 H       1  UNL1        0.0627
     26 H           2.4352   -1.9222    1.1160 H       1  UNL1        0.0691
     27 H           5.8643   -2.2000    1.3288 H       1  UNL1        0.2922
     28 H           8.4312   -3.4864    0.3084 H       1  UNL1        0.0639
     29 H           7.5671   -5.7856    0.3591 H       1  UNL1        0.0618
     30 H           5.5140   -6.3750   -0.9051 H       1  UNL1        0.0618
     31 H           4.4089   -4.6814   -2.3295 H       1  UNL1        0.0633
@<TRIPOS>BOND
     1     1     2    1
     2     2     3   ar
     3     3     4   ar
     4     4     5   ar
     5     5     6   ar
     6     6     7   ar
     7     2     7   ar
     8     6     8    1
     9     5     9    1
    10     9    10   ar
    11    10    11   ar
    12    11    12    1
    13    11    13   ar
    14    13    14    2
    15    13    15   ar
    16     9    15   ar
    17    15    16    1
    18    16    17   ar
    19    17    18   ar
    20    18    19   ar
    21    19    20   ar
    22    20    21   ar
    23    16    21   ar
    24    21    22    1
    25     1    23    1
    26     3    24    1
    27     4    25    1
    28     7    26    1
    29     8    27    1
    30    17    28    1
    31    18    29    1
    32    19    30    1
    33    20    31    1
@<TRIPOS>MOLECULE
*****
 37 39 0 0 0
SMALL
GASTEIGER

@<TRIPOS>ATOM
      1 C           6.8536    0.8230   -2.3186 C.3     1  UNL1       -0.0612
      2 C           5.7657    0.7146   -1.2514 C.3     1  UNL1       -0.0286
      3 C           4.3675    1.0784   -1.7133 C.ar    1  UNL1       -0.0236
      4 C           4.1287    2.4445   -1.9593 C.ar    1  UNL1       -0.0566
      5 C           2.8595    2.9011   -2.2987 C.ar    1  UNL1       -0.0614
      6 C           1.8091    1.9940   -2.3951 C.ar    1  UNL1       -0.0598
      7 C           2.0237    0.6239   -2.1664 C.ar    1  UNL1       -0.0374
      8 C           3.3018    0.1400   -1.8309 C.ar    1  UNL1        0.0561
      9 N           3.5418   -1.2525   -1.8146 N.ar    1  UNL1       -0.2433
     10 C           4.3386   -1.7958   -2.8156 C.ar    1  UNL1        0.3489
     11 O           5.0206   -1.2566   -3.6809 O.2     1  UNL1       -0.2446
     12 N           4.1420   -3.1655   -2.7649 N.ar    1  UNL1       -0.2260
     13 H           4.4260   -3.8264   -3.4749 H       1  UNL1        0.1937
     14 N           3.1773   -3.4673   -1.8546 N.ar    1  UNL1       -0.1507
     15 C           2.8258   -2.3269   -1.3131 C.ar    1  UNL1        0.1727
     16 C           1.7693   -2.3522   -0.2541 C.ar    1  UNL1        0.0612
     17 C           1.5251   -1.3193    0.6495 C.ar    1  UNL1       -0.0441
     18 C           0.5267   -1.4659    1.6312 C.ar    1  UNL1       -0.0193
     19 C          -0.2779   -2.6023    1.6658 C.ar    1  UNL1        0.1204
     20 C          -0.0679   -3.6379    0.7827 C.ar    1  UNL1        0.0220
     21 C           1.0174   -3.5479   -0.0845 C.ar    1  UNL1        0.1310
     22 O           1.3715   -4.7519   -0.6432 O.3     1  UNL1       -0.5059
     23 O          -1.2022   -2.7286    2.6568 O.3     1  UNL1       -0.5066
     24 H           7.6729    1.4553   -1.9593 H       1  UNL1        0.0233
     25 H           6.4983    1.2381   -3.2666 H       1  UNL1        0.0233
     26 H           7.2873   -0.1629   -2.5195 H       1  UNL1        0.0233
     27 H           6.0188    1.4070   -0.4373 H       1  UNL1        0.0311
     28 H           5.7868   -0.2789   -0.7894 H       1  UNL1        0.0311
     29 H           4.9441    3.1624   -1.8892 H       1  UNL1        0.0621
     30 H           2.6918    3.9558   -2.4954 H       1  UNL1        0.0618
     31 H           0.8242    2.3489   -2.6858 H       1  UNL1        0.0618
     32 H           1.1988   -0.0575   -2.3428 H       1  UNL1        0.0638
     33 H           2.1304   -0.4191    0.6664 H       1  UNL1        0.0627
     34 H           0.3929   -0.7109    2.4043 H       1  UNL1        0.0654
     35 H          -0.6788   -4.5371    0.7977 H       1  UNL1        0.0691
     36 H           2.3018   -4.6617   -0.9459 H       1  UNL1        0.2922
     37 H          -0.8857   -3.4563    3.2224 H       1  UNL1        0.2921
@<TRIPOS>BOND
     1     1     2    1
     2     2     3    1
     3     3     4   ar
     4     4     5   ar
     5     5     6   ar
     6     6     7   ar
     7     7     8   ar
     8     3     8   ar
     9     8     9    1
    10     9    10   ar
    11    10    11    2
    12    10    12   ar
    13    12    13    1
    14    12    14   ar
    15    14    15   ar
    16     9    15   ar
    17    15    16    1
    18    16    17   ar
    19    17    18   ar
    20    18    19   ar
    21    19    20   ar
    22    20    21   ar
    23    16    21   ar
    24    21    22    1
    25    19    23    1
    26     1    24    1
    27     1    25    1
    28     1    26    1
    29     2    27    1
    30     2    28    1
    31     4    29    1
    32     5    30    1
    33     6    31    1
    34     7    32    1
    35    17    33    1
    36    18    34    1
    37    20    35    1
    38    22    36    1
    39    23    37    1
@<TRIPOS>MOLECULE
*****
 47 49 0 0 0
SMALL
GASTEIGER

@<TRIPOS>ATOM
      1 C           4.1469   -2.2794   -2.9898 C.3     1  UNL1       -0.0639
      2 C           4.2056   -3.1772   -1.7634 C.3     1  UNL1       -0.0400
      3 C           4.9594   -2.5412   -0.5822 C.3     1  UNL1        0.0144
      4 N           4.3217   -1.3311   -0.0373 N.am    1  UNL1       -0.3005
      5 C           5.1654   -0.2207    0.2578 C.2     1  UNL1        0.2499
      6 O           6.3759   -0.2805    0.0337 O.2     1  UNL1       -0.2699
      7 C           4.6199    1.0680    0.8409 C.ar    1  UNL1        0.0791
      8 C           3.5482    1.0769    1.7372 C.ar    1  UNL1       -0.0319
      9 C           2.9285    2.2593    2.1649 C.ar    1  UNL1        0.0619
     10 C           3.6181    3.4497    1.9928 C.ar    1  UNL1        0.1310
     11 C           4.7287    3.4889    1.1514 C.ar    1  UNL1        0.0228
     12 C           5.1886    2.3169    0.5312 C.ar    1  UNL1        0.1325
     13 O           6.1955    2.4280   -0.3889 O.3     1  UNL1       -0.5059
     14 O           3.3030    4.6162    2.6281 O.3     1  UNL1       -0.5059
     15 C           1.5309    2.0902    2.6617 C.ar    1  UNL1        0.1728
     16 N           1.1412    0.9653    3.2087 N.ar    1  UNL1       -0.1507
     17 N          -0.1751    1.1595    3.5029 N.ar    1  UNL1       -0.2260
     18 H          -0.7766    0.4258    3.8520 H       1  UNL1        0.1937
     19 C          -0.5919    2.4217    3.1031 C.ar    1  UNL1        0.3490
     20 O          -1.7368    2.8421    3.1843 O.2     1  UNL1       -0.2446
     21 N           0.5315    3.0241    2.5672 N.ar    1  UNL1       -0.2408
     22 C           0.4807    4.2792    1.9357 C.ar    1  UNL1        0.0881
     23 C          -0.0258    5.3704    2.6552 C.ar    1  UNL1       -0.0348
     24 C           0.0861    6.6648    2.1439 C.ar    1  UNL1       -0.0596
     25 C           0.6544    6.8738    0.8877 C.ar    1  UNL1       -0.0589
     26 C           1.0783    5.7855    0.1256 C.ar    1  UNL1       -0.0244
     27 C           0.9867    4.4976    0.6501 C.ar    1  UNL1        0.1473
     28 F           1.3875    3.4649   -0.1059 F       1  UNL1       -0.2033
     29 C           2.9677   -1.5141    0.4751 C.3     1  UNL1        0.0035
     30 H           3.5365   -2.7511   -3.7678 H       1  UNL1        0.0230
     31 H           5.1480   -2.1172   -3.3997 H       1  UNL1        0.0230
     32 H           3.7019   -1.3068   -2.7605 H       1  UNL1        0.0230
     33 H           4.7073   -4.1125   -2.0348 H       1  UNL1        0.0278
     34 H           3.1849   -3.4604   -1.4883 H       1  UNL1        0.0278
     35 H           5.9839   -2.3377   -0.8909 H       1  UNL1        0.0464
     36 H           5.0085   -3.2649    0.2427 H       1  UNL1        0.0464
     37 H           3.1482    0.1510    2.1206 H       1  UNL1        0.0634
     38 H           5.2113    4.4456    0.9697 H       1  UNL1        0.0691
     39 H           6.5082    3.3465   -0.4372 H       1  UNL1        0.2922
     40 H           2.7254    4.4286    3.3879 H       1  UNL1        0.2922
     41 H          -0.4546    5.2304    3.6460 H       1  UNL1        0.0639
     42 H          -0.2533    7.5111    2.7369 H       1  UNL1        0.0618
     43 H           0.7628    7.8851    0.5025 H       1  UNL1        0.0618
     44 H           1.4981    5.9340   -0.8642 H       1  UNL1        0.0647
     45 H           2.4521   -2.3495    0.0042 H       1  UNL1        0.0429
     46 H           2.3636   -0.6246    0.2908 H       1  UNL1        0.0429
     47 H           3.0350   -1.7542    1.5416 H       1  UNL1        0.0429
@<TRIPOS>BOND
     1     1     2    1
     2     2     3    1
     3     3     4    1
     4     4     5   am
     5     5     6    2
     6     5     7    1
     7     7     8   ar
     8     8     9   ar
     9     9    10   ar
    10    10    11   ar
    11    11    12   ar
    12     7    12   ar
    13    12    13    1
    14    10    14    1
    15     9    15    1
    16    15    16   ar
    17    16    17   ar
    18    17    18    1
    19    17    19   ar
    20    19    20    2
    21    19    21   ar
    22    15    21   ar
    23    21    22    1
    24    22    23   ar
    25    23    24   ar
    26    24    25   ar
    27    25    26   ar
    28    26    27   ar
    29    22    27   ar
    30    27    28    1
    31     4    29    1
    32     1    30    1
    33     1    31    1
    34     1    32    1
    35     2    33    1
    36     2    34    1
    37     3    35    1
    38     3    36    1
    39     8    37    1
    40    11    38    1
    41    13    39    1
    42    14    40    1
    43    23    41    1
    44    24    42    1
    45    25    43    1
    46    26    44    1
    47    29    45    1
    48    29    46    1
    49    29    47    1
@<TRIPOS>MOLECULE
*****
 52 56 0 0 0
SMALL
GASTEIGER

@<TRIPOS>ATOM
      1 C           5.1973    0.5979   -4.4370 C.3     1  UNL1       -0.0397
      2 C           5.7193   -0.6620   -3.8199 C.ar    1  UNL1       -0.0502
      3 C           6.4221   -1.6000   -4.5839 C.ar    1  UNL1       -0.0588
      4 C           6.8165   -2.8125   -4.0211 C.ar    1  UNL1       -0.0612
      5 C           6.4821   -3.1081   -2.7020 C.ar    1  UNL1       -0.0582
      6 C           5.7596   -2.1946   -1.9267 C.ar    1  UNL1       -0.0413
      7 C           5.4147   -0.9522   -2.4861 C.ar    1  UNL1       -0.0553
      8 C           5.3890   -2.5064   -0.4974 C.3     1  UNL1        0.0171
      9 C           4.4030   -3.6256   -0.4940 C.ar    1  UNL1        0.0748
     10 N           4.8417   -4.8922   -0.3991 N.ar    1  UNL1       -0.1774
     11 N           3.7349   -5.5984   -0.1348 N.ar    1  UNL1       -0.2766
     12 H           3.8228   -6.6011   -0.0159 H       1  UNL1        0.1889
     13 C           2.6153   -4.8316    0.0309 C.ar    1  UNL1        0.0695
     14 C           2.9830   -3.5493   -0.3643 C.ar    1  UNL1        0.0239
     15 C           1.9921   -2.5452   -0.4335 C.ar    1  UNL1       -0.0351
     16 C           0.6831   -2.8646   -0.0305 C.ar    1  UNL1        0.0793
     17 C           0.4164   -4.1132    0.5537 C.ar    1  UNL1        0.1310
     18 C           1.3518   -5.1460    0.5331 C.ar    1  UNL1        0.0060
     19 O          -0.7588   -4.3832    1.2086 O.3     1  UNL1       -0.5059
     20 C          -0.4327   -1.8895   -0.1542 C.2     1  UNL1        0.2541
     21 O          -1.0767   -1.7502    0.8907 O.2     1  UNL1       -0.2695
     22 N          -0.7483   -1.3189   -1.4153 N.am    1  UNL1       -0.2703
     23 C          -1.9287   -0.4769   -1.5955 C.ar    1  UNL1        0.0400
     24 C          -2.6338    0.0913   -0.5071 C.ar    1  UNL1       -0.0366
     25 C          -3.9109    0.6599   -0.6585 C.ar    1  UNL1       -0.0144
     26 C          -4.4704    0.6458   -1.9108 C.ar    1  UNL1        0.1663
     27 C          -3.7569    0.2121   -2.9965 C.ar    1  UNL1        0.1680
     28 C          -2.4742   -0.2846   -2.8810 C.ar    1  UNL1        0.0053
     29 O          -4.4857    0.2511   -4.1461 O.3     1  UNL1       -0.4525
     30 C          -5.7947    0.5123   -3.5985 C.3     1  UNL1        0.2332
     31 O          -5.7433    0.9937   -2.2390 O.3     1  UNL1       -0.4526
     32 C          -0.1202   -1.8080   -2.6543 C.3     1  UNL1        0.0086
     33 H           5.7223    0.8391   -5.3670 H       1  UNL1        0.0278
     34 H           5.3142    1.4484   -3.7574 H       1  UNL1        0.0278
     35 H           4.1331    0.4660   -4.6626 H       1  UNL1        0.0278
     36 H           6.6606   -1.3914   -5.6280 H       1  UNL1        0.0620
     37 H           7.3689   -3.5386   -4.6131 H       1  UNL1        0.0618
     38 H           6.7775   -4.0639   -2.2750 H       1  UNL1        0.0620
     39 H           4.9015   -0.2073   -1.8799 H       1  UNL1        0.0623
     40 H           4.9518   -1.6236   -0.0150 H       1  UNL1        0.0377
     41 H           6.2848   -2.7564    0.0758 H       1  UNL1        0.0377
     42 H           2.2335   -1.5518   -0.7981 H       1  UNL1        0.0633
     43 H           1.1230   -6.1214    0.9493 H       1  UNL1        0.0675
     44 H          -1.1593   -3.5175    1.4526 H       1  UNL1        0.2922
     45 H          -2.2247    0.0810    0.4989 H       1  UNL1        0.0637
     46 H          -4.4590    1.0369    0.1980 H       1  UNL1        0.0656
     47 H          -1.9870   -0.5979   -3.7946 H       1  UNL1        0.0674
     48 H          -6.3713   -0.4244   -3.6201 H       1  UNL1        0.1166
     49 H          -6.3060    1.2488   -4.2240 H       1  UNL1        0.1166
     50 H           0.6472   -2.5614   -2.4984 H       1  UNL1        0.0433
     51 H           0.3278   -0.9595   -3.1824 H       1  UNL1        0.0433
     52 H          -0.8714   -2.3008   -3.2806 H       1  UNL1        0.0433
@<TRIPOS>BOND
     1     1     2    1
     2     2     3   ar
     3     3     4   ar
     4     4     5   ar
     5     5     6   ar
     6     6     7   ar
     7     2     7   ar
     8     6     8    1
     9     8     9    1
    10     9    10   ar
    11    10    11   ar
    12    11    12    1
    13    11    13   ar
    14    13    14   ar
    15     9    14   ar
    16    14    15   ar
    17    15    16   ar
    18    16    17   ar
    19    17    18   ar
    20    13    18   ar
    21    17    19    1
    22    16    20    1
    23    20    21    2
    24    20    22   am
    25    22    23    1
    26    23    24   ar
    27    24    25   ar
    28    25    26   ar
    29    26    27   ar
    30    27    28   ar
    31    23    28   ar
    32    27    29    1
    33    29    30    1
    34    30    31    1
    35    26    31    1
    36    22    32    1
    37     1    33    1
    38     1    34    1
    39     1    35    1
    40     3    36    1
    41     4    37    1
    42     5    38    1
    43     7    39    1
    44     8    40    1
    45     8    41    1
    46    15    42    1
    47    18    43    1
    48    19    44    1
    49    24    45    1
    50    25    46    1
    51    28    47    1
    52    30    48    1
    53    30    49    1
    54    32    50    1
    55    32    51    1
    56    32    52    1
@<TRIPOS>MOLECULE
*****
 70 73 0 0 0
SMALL
GASTEIGER

@<TRIPOS>ATOM
      1 C           1.8591    3.9703   13.6831 C.3     1  UNL1       -0.0431
      2 N           1.6371    2.9773   12.5743 N.4     1  UNL1        0.2331
      3 H           1.9079    2.0695   12.9767 H       1  UNL1        0.2030
      4 C           2.5361    3.1758   11.3832 C.3     1  UNL1       -0.0316
      5 C           2.0840    4.3773   10.5595 C.3     1  UNL1       -0.0055
      6 C           0.6102    4.2725   10.0849 C.3     1  UNL1       -0.0063
      7 H           0.3119    5.2516    9.6859 H       1  UNL1        0.0352
      8 C          -0.2753    3.9960   11.3184 C.3     1  UNL1       -0.0055
      9 C           0.1958    2.8146   12.1632 C.3     1  UNL1       -0.0316
     10 C           0.4752    3.2937    8.9241 C.ar    1  UNL1       -0.0438
     11 C          -0.4659    2.2683    8.8575 C.ar    1  UNL1       -0.0565
     12 C          -0.3263    1.2252    7.9232 C.ar    1  UNL1       -0.0400
     13 C           0.7604    1.1638    7.0489 C.ar    1  UNL1        0.0363
     14 C           1.4632    2.3648    6.9008 C.ar    1  UNL1       -0.0400
     15 C           1.3322    3.4066    7.8277 C.ar    1  UNL1       -0.0565
     16 N           1.1735   -0.0714    6.3735 N.am    1  UNL1       -0.2704
     17 C           0.5989   -1.3321    6.7196 C.2     1  UNL1        0.2541
     18 O          -0.1994   -1.5056    7.6400 O.2     1  UNL1       -0.2695
     19 C           0.9981   -2.6095    6.0157 C.ar    1  UNL1        0.0793
     20 C           2.3369   -3.0631    6.0486 C.ar    1  UNL1       -0.0351
     21 C           2.6696   -4.3620    5.6101 C.ar    1  UNL1        0.0236
     22 C           3.8363   -5.1906    5.5702 C.ar    1  UNL1        0.0705
     23 C           5.2632   -4.9594    5.9741 C.3     1  UNL1       -0.0076
     24 C           5.6050   -4.0168    7.1356 C.3     1  UNL1       -0.0426
     25 C           5.3256   -4.4460    8.6060 C.3     1  UNL1       -0.0374
     26 C           5.9697   -5.8018    8.9404 C.3     1  UNL1       -0.0601
     27 C           5.9539   -3.3805    9.5357 C.3     1  UNL1       -0.0601
     28 C           3.8267   -4.5128    8.9242 C.3     1  UNL1       -0.0601
     29 N           3.5612   -6.3767    5.0035 N.ar    1  UNL1       -0.1777
     30 N           2.2515   -6.3312    4.7373 N.ar    1  UNL1       -0.2766
     31 H           1.8239   -7.1424    4.3026 H       1  UNL1        0.1889
     32 C           1.6469   -5.1663    5.1162 C.ar    1  UNL1        0.0695
     33 C           0.3053   -4.7719    5.0772 C.ar    1  UNL1        0.0060
     34 C           0.0023   -3.4881    5.5545 C.ar    1  UNL1        0.1310
     35 O          -1.3139   -3.1265    5.5565 O.3     1  UNL1       -0.5059
     36 C           2.4403   -0.0393    5.6383 C.3     1  UNL1        0.0086
     37 H           1.6442    4.9775   13.3224 H       1  UNL1        0.0777
     38 H           2.9020    3.8886   14.0026 H       1  UNL1        0.0777
     39 H           1.1978    3.7084   14.5137 H       1  UNL1        0.0777
     40 H           2.5055    2.2456   10.8042 H       1  UNL1        0.0814
     41 H           3.5560    3.3068   11.7611 H       1  UNL1        0.0814
     42 H           2.7799    4.5031    9.7244 H       1  UNL1        0.0323
     43 H           2.1936    5.2909   11.1600 H       1  UNL1        0.0323
     44 H          -1.3208    3.8448   11.0285 H       1  UNL1        0.0323
     45 H          -0.2765    4.8948   11.9488 H       1  UNL1        0.0323
     46 H           0.1349    1.8665   11.6200 H       1  UNL1        0.0814
     47 H          -0.3966    2.7157   13.0794 H       1  UNL1        0.0814
     48 H          -1.3105    2.2099    9.5388 H       1  UNL1        0.0621
     49 H          -1.0862    0.4473    7.9421 H       1  UNL1        0.0636
     50 H           2.1611    2.5459    6.0932 H       1  UNL1        0.0636
     51 H           1.9575    4.2879    7.6916 H       1  UNL1        0.0621
     52 H           3.1169   -2.4537    6.4757 H       1  UNL1        0.0633
     53 H           5.7697   -4.5633    5.0816 H       1  UNL1        0.0329
     54 H           5.7386   -5.9307    6.1636 H       1  UNL1        0.0329
     55 H           5.1748   -3.0273    6.9516 H       1  UNL1        0.0274
     56 H           6.6940   -3.8654    7.0628 H       1  UNL1        0.0274
     57 H           7.0325   -5.8140    8.6750 H       1  UNL1        0.0235
     58 H           5.4758   -6.6251    8.4149 H       1  UNL1        0.0235
     59 H           5.8986   -6.0150   10.0145 H       1  UNL1        0.0235
     60 H           7.0286   -3.2730    9.3504 H       1  UNL1        0.0235
     61 H           5.8286   -3.6482   10.5915 H       1  UNL1        0.0235
     62 H           5.4885   -2.3995    9.3864 H       1  UNL1        0.0235
     63 H           3.3244   -5.3006    8.3557 H       1  UNL1        0.0235
     64 H           3.3334   -3.5592    8.7134 H       1  UNL1        0.0235
     65 H           3.6623   -4.7319    9.9859 H       1  UNL1        0.0235
     66 H          -0.4627   -5.4508    4.7182 H       1  UNL1        0.0675
     67 H          -1.8808   -3.9136    5.5353 H       1  UNL1        0.2922
     68 H           2.7709    0.9426    5.3153 H       1  UNL1        0.0433
     69 H           2.3770   -0.6574    4.7410 H       1  UNL1        0.0433
     70 H           3.2146   -0.4194    6.3137 H       1  UNL1        0.0433
@<TRIPOS>BOND
     1     2     4    1
     2     4     5    1
     3     5     6    1
     4     6     7    1
     5     6     8    1
     6     8     9    1
     7     2     9    1
     8     6    10    1
     9    10    11   ar
    10    11    12   ar
    11    12    13   ar
    12    13    14   ar
    13    14    15   ar
    14    10    15   ar
    15    13    16    1
    16    16    17   am
    17    17    18    2
    18    17    19    1
    19    19    20   ar
    20    20    21   ar
    21    21    22   ar
    22    22    23    1
    23    23    24    1
    24    24    25    1
    25    25    26    1
    26    25    27    1
    27    25    28    1
    28    22    29   ar
    29    29    30   ar
    30    30    31    1
    31    30    32   ar
    32    21    32   ar
    33    32    33   ar
    34    33    34   ar
    35    19    34   ar
    36    34    35    1
    37    16    36    1
    38     2     3    1
    39     2     1    1
    40     1    37    1
    41     1    38    1
    42     1    39    1
    43     4    40    1
    44     4    41    1
    45     5    42    1
    46     5    43    1
    47     8    44    1
    48     8    45    1
    49     9    46    1
    50     9    47    1
    51    11    48    1
    52    12    49    1
    53    14    50    1
    54    15    51    1
    55    20    52    1
    56    23    53    1
    57    23    54    1
    58    24    55    1
    59    24    56    1
    60    26    57    1
    61    26    58    1
    62    26    59    1
    63    27    60    1
    64    27    61    1
    65    27    62    1
    66    28    63    1
    67    28    64    1
    68    28    65    1
    69    33    66    1
    70    35    67    1
    71    36    68    1
    72    36    69    1
    73    36    70    1
@<TRIPOS>MOLECULE
*****
 65 68 0 0 0
SMALL
GASTEIGER

@<TRIPOS>ATOM
      1 C           7.6610   -4.4987    0.3937 C.3     1  UNL1       -0.0652
      2 C           6.9306   -3.6702    1.4449 C.3     1  UNL1       -0.0545
      3 C           6.8169   -4.4392    2.7623 C.3     1  UNL1       -0.0374
      4 C           6.2251   -3.6121    3.9123 C.3     1  UNL1        0.0147
      5 N           4.7728   -3.4493    3.8539 N.am    1  UNL1       -0.2993
      6 C           4.2137   -2.1752    3.6143 C.2     1  UNL1        0.2671
      7 O           4.9363   -1.1799    3.5187 O.2     1  UNL1       -0.2682
      8 C           2.7356   -2.0322    3.4205 C.ar    1  UNL1        0.1547
      9 N           1.9196   -3.0930    3.2343 N.ar    1  UNL1       -0.1681
     10 N           0.7503   -2.5616    2.8720 N.ar    1  UNL1       -0.2761
     11 H          -0.0214   -3.1872    2.6671 H       1  UNL1        0.1889
     12 C           0.7859   -1.2108    2.7216 C.ar    1  UNL1        0.0700
     13 C           2.0029   -0.8065    3.2683 C.ar    1  UNL1        0.0328
     14 C           2.2114    0.5829    3.4259 C.ar    1  UNL1       -0.0347
     15 C           1.2812    1.5101    2.8851 C.ar    1  UNL1        0.0793
     16 C           0.2808    1.0039    2.0556 C.ar    1  UNL1        0.1310
     17 C          -0.1002   -0.3371    2.1036 C.ar    1  UNL1        0.0060
     18 O          -0.3698    1.7312    1.0969 O.3     1  UNL1       -0.5059
     19 C           1.5102    2.9680    3.1693 C.2     1  UNL1        0.2541
     20 O           2.6913    3.2704    3.3788 O.2     1  UNL1       -0.2695
     21 N           0.5013    3.9788    3.1530 N.am    1  UNL1       -0.2704
     22 C          -0.9312    3.8247    3.0667 C.ar    1  UNL1        0.0364
     23 C          -1.6050    2.6876    3.4979 C.ar    1  UNL1       -0.0385
     24 C          -2.8637    2.3587    2.9541 C.ar    1  UNL1       -0.0389
     25 C          -3.5328    3.2001    2.0561 C.ar    1  UNL1        0.0299
     26 C          -2.9820    4.4745    1.9078 C.ar    1  UNL1       -0.0389
     27 C          -1.7057    4.7871    2.4054 C.ar    1  UNL1       -0.0385
     28 N          -4.6056    2.7808    1.2955 N.pl3   1  UNL1       -0.3255
     29 C          -5.7190    3.6626    0.9112 C.3     1  UNL1        0.0357
     30 C          -6.1140    3.4078   -0.5531 C.3     1  UNL1        0.0634
     31 O          -6.4455    2.0270   -0.7709 O.3     1  UNL1       -0.3767
     32 C          -5.3076    1.2009   -0.4790 C.3     1  UNL1        0.0634
     33 C          -4.8324    1.3582    0.9801 C.3     1  UNL1        0.0357
     34 C           1.0095    5.3558    3.1018 C.3     1  UNL1        0.0086
     35 C           3.9779   -4.6405    4.1174 C.3     1  UNL1        0.0035
     36 H           7.6628   -3.9815   -0.5709 H       1  UNL1        0.0230
     37 H           7.1845   -5.4748    0.2560 H       1  UNL1        0.0230
     38 H           8.7032   -4.6680    0.6862 H       1  UNL1        0.0230
     39 H           5.9342   -3.4087    1.0728 H       1  UNL1        0.0263
     40 H           7.4798   -2.7342    1.6001 H       1  UNL1        0.0263
     41 H           7.8233   -4.7601    3.0614 H       1  UNL1        0.0280
     42 H           6.2314   -5.3521    2.6010 H       1  UNL1        0.0280
     43 H           6.7256   -2.6408    3.9632 H       1  UNL1        0.0464
     44 H           6.4422   -4.1238    4.8591 H       1  UNL1        0.0464
     45 H           3.1109    0.9334    3.9286 H       1  UNL1        0.0633
     46 H          -0.9843   -0.6877    1.5846 H       1  UNL1        0.0675
     47 H           0.0081    2.6271    1.0675 H       1  UNL1        0.2922
     48 H          -1.1278    1.9687    4.1572 H       1  UNL1        0.0637
     49 H          -3.2754    1.3829    3.1983 H       1  UNL1        0.0637
     50 H          -3.4672    5.2231    1.2891 H       1  UNL1        0.0637
     51 H          -1.3115    5.7627    2.1390 H       1  UNL1        0.0637
     52 H          -5.5007    4.7254    1.0416 H       1  UNL1        0.0486
     53 H          -6.5711    3.4232    1.5582 H       1  UNL1        0.0486
     54 H          -5.3074    3.6944   -1.2394 H       1  UNL1        0.0575
     55 H          -6.9963    4.0026   -0.8103 H       1  UNL1        0.0575
     56 H          -4.5035    1.4469   -1.1838 H       1  UNL1        0.0575
     57 H          -5.5992    0.1617   -0.6637 H       1  UNL1        0.0575
     58 H          -3.9255    0.7541    1.0951 H       1  UNL1        0.0486
     59 H          -5.5985    0.9688    1.6597 H       1  UNL1        0.0486
     60 H           2.0760    5.4259    3.3307 H       1  UNL1        0.0433
     61 H           0.4738    5.9759    3.8276 H       1  UNL1        0.0433
     62 H           0.8777    5.7487    2.0877 H       1  UNL1        0.0433
     63 H           4.6070   -5.4351    4.5337 H       1  UNL1        0.0429
     64 H           3.5428   -5.0012    3.1813 H       1  UNL1        0.0429
     65 H           3.2043   -4.4156    4.8551 H       1  UNL1        0.0429
@<TRIPOS>BOND
     1     1     2    1
     2     2     3    1
     3     3     4    1
     4     4     5    1
     5     5     6   am
     6     6     7    2
     7     6     8    1
     8     8     9   ar
     9     9    10   ar
    10    10    11    1
    11    10    12   ar
    12    12    13   ar
    13     8    13   ar
    14    13    14   ar
    15    14    15   ar
    16    15    16   ar
    17    16    17   ar
    18    12    17   ar
    19    16    18    1
    20    15    19    1
    21    19    20    2
    22    19    21   am
    23    21    22    1
    24    22    23   ar
    25    23    24   ar
    26    24    25   ar
    27    25    26   ar
    28    26    27   ar
    29    22    27   ar
    30    25    28    1
    31    28    29    1
    32    29    30    1
    33    30    31    1
    34    31    32    1
    35    32    33    1
    36    28    33    1
    37    21    34    1
    38     5    35    1
    39     1    36    1
    40     1    37    1
    41     1    38    1
    42     2    39    1
    43     2    40    1
    44     3    41    1
    45     3    42    1
    46     4    43    1
    47     4    44    1
    48    14    45    1
    49    17    46    1
    50    18    47    1
    51    23    48    1
    52    24    49    1
    53    26    50    1
    54    27    51    1
    55    29    52    1
    56    29    53    1
    57    30    54    1
    58    30    55    1
    59    32    56    1
    60    32    57    1
    61    33    58    1
    62    33    59    1
    63    34    60    1
    64    34    61    1
    65    34    62    1
    66    35    63    1
    67    35    64    1
    68    35    65    1
@<TRIPOS>MOLECULE
*****
 49 52 0 0 0
SMALL
GASTEIGER

@<TRIPOS>ATOM
      1 CL          8.8603    0.4578   -6.1624 Cl      1  UNL1       -0.0835
      2 C           8.9885   -0.0845   -4.5344 C.ar    1  UNL1        0.0410
      3 C           9.7312    0.6538   -3.6146 C.ar    1  UNL1       -0.0431
      4 C           9.7729    0.2548   -2.2753 C.ar    1  UNL1       -0.0557
      5 C           9.0581   -0.8780   -1.8497 C.ar    1  UNL1       -0.0300
      6 C           8.3645   -1.6401   -2.8024 C.ar    1  UNL1       -0.0557
      7 C           8.3223   -1.2417   -4.1381 C.ar    1  UNL1       -0.0431
      8 C           8.9074   -1.2102   -0.3762 C.3     1  UNL1        0.0397
      9 N           7.5175   -0.9980    0.0583 N.am    1  UNL1       -0.2962
     10 C           6.7331   -2.1283    0.3799 C.2     1  UNL1        0.2502
     11 O           7.1839   -3.2773    0.2605 O.2     1  UNL1       -0.2699
     12 C           5.2805   -2.0303    0.8185 C.ar    1  UNL1        0.0790
     13 C           4.4375   -3.1324    0.4915 C.ar    1  UNL1       -0.0351
     14 C           3.0628   -3.1210    0.8444 C.ar    1  UNL1        0.0239
     15 C           1.9514   -4.0308    0.8556 C.ar    1  UNL1        0.0748
     16 N           0.8175   -3.4146    1.2340 N.ar    1  UNL1       -0.1774
     17 N           1.2100   -2.1779    1.5517 N.ar    1  UNL1       -0.2766
     18 H           0.5095   -1.5257    1.8842 H       1  UNL1        0.1889
     19 C           2.5523   -1.9668    1.4266 C.ar    1  UNL1        0.0695
     20 C           3.3461   -0.8879    1.8088 C.ar    1  UNL1        0.0060
     21 C           4.7218   -0.9823    1.5601 C.ar    1  UNL1        0.1310
     22 O           5.4988   -0.0256    2.1524 O.3     1  UNL1       -0.5059
     23 C           1.8912   -5.5021    0.5767 C.3     1  UNL1        0.0171
     24 C           2.7208   -6.2053    1.6325 C.ar    1  UNL1       -0.0415
     25 C           2.5585   -5.9601    3.0081 C.ar    1  UNL1       -0.0582
     26 C           3.4034   -6.5603    3.9447 C.ar    1  UNL1       -0.0615
     27 C           4.3871   -7.4516    3.5248 C.ar    1  UNL1       -0.0617
     28 C           4.4969   -7.7770    2.1751 C.ar    1  UNL1       -0.0615
     29 C           3.6647   -7.1645    1.2363 C.ar    1  UNL1       -0.0582
     30 C           7.0928    0.3932    0.0748 C.3     1  UNL1        0.0038
     31 H          10.2529    1.5543   -3.9273 H       1  UNL1        0.0632
     32 H          10.3223    0.8624   -1.5594 H       1  UNL1        0.0621
     33 H           7.8114   -2.5238   -2.4871 H       1  UNL1        0.0621
     34 H           7.7448   -1.8214   -4.8530 H       1  UNL1        0.0632
     35 H           9.5466   -0.5563    0.2311 H       1  UNL1        0.0514
     36 H           9.2454   -2.2355   -0.1971 H       1  UNL1        0.0514
     37 H           4.8516   -4.0034   -0.0101 H       1  UNL1        0.0633
     38 H           2.9189   -0.0517    2.3518 H       1  UNL1        0.0675
     39 H           4.9755    0.7871    2.2489 H       1  UNL1        0.2922
     40 H           2.2680   -5.7020   -0.4317 H       1  UNL1        0.0377
     41 H           0.8620   -5.8783    0.6296 H       1  UNL1        0.0377
     42 H           1.7891   -5.2741    3.3590 H       1  UNL1        0.0620
     43 H           3.3017   -6.3214    5.0002 H       1  UNL1        0.0618
     44 H           5.0650   -7.8962    4.2483 H       1  UNL1        0.0618
     45 H           5.2421   -8.4977    1.8491 H       1  UNL1        0.0618
     46 H           3.7693   -7.4323    0.1874 H       1  UNL1        0.0620
     47 H           7.6297    0.9860   -0.6694 H       1  UNL1        0.0429
     48 H           7.3486    0.8173    1.0505 H       1  UNL1        0.0429
     49 H           6.0315    0.4909   -0.1527 H       1  UNL1        0.0429
@<TRIPOS>BOND
     1     1     2    1
     2     2     3   ar
     3     3     4   ar
     4     4     5   ar
     5     5     6   ar
     6     6     7   ar
     7     2     7   ar
     8     5     8    1
     9     8     9    1
    10     9    10   am
    11    10    11    2
    12    10    12    1
    13    12    13   ar
    14    13    14   ar
    15    14    15   ar
    16    15    16   ar
    17    16    17   ar
    18    17    18    1
    19    17    19   ar
    20    14    19   ar
    21    19    20   ar
    22    20    21   ar
    23    12    21   ar
    24    21    22    1
    25    15    23    1
    26    23    24    1
    27    24    25   ar
    28    25    26   ar
    29    26    27   ar
    30    27    28   ar
    31    28    29   ar
    32    24    29   ar
    33     9    30    1
    34     3    31    1
    35     4    32    1
    36     6    33    1
    37     7    34    1
    38     8    35    1
    39     8    36    1
    40    13    37    1
    41    20    38    1
    42    22    39    1
    43    23    40    1
    44    23    41    1
    45    25    42    1
    46    26    43    1
    47    27    44    1
    48    28    45    1
    49    29    46    1
    50    30    47    1
    51    30    48    1
    52    30    49    1
@<TRIPOS>MOLECULE
*****
 53 56 0 0 0
SMALL
GASTEIGER

@<TRIPOS>ATOM
      1 C           8.3571   -4.3891    2.8718 C.3     1  UNL1       -0.0397
      2 C           7.3272   -3.3496    2.5422 C.ar    1  UNL1       -0.0502
      3 C           6.7899   -2.5158    3.5258 C.ar    1  UNL1       -0.0588
      4 C           5.7706   -1.6180    3.2062 C.ar    1  UNL1       -0.0612
      5 C           5.2562   -1.5714    1.9080 C.ar    1  UNL1       -0.0582
      6 C           5.7849   -2.4026    0.9068 C.ar    1  UNL1       -0.0411
      7 C           6.8503   -3.2527    1.2309 C.ar    1  UNL1       -0.0553
      8 C           5.1527   -2.4813   -0.4587 C.3     1  UNL1        0.0213
      9 C           4.1463   -3.6054   -0.4828 C.2     1  UNL1        0.1251
     10 N           2.8881   -3.4345   -0.1318 N.2     1  UNL1       -0.0026
     11 N           2.3651   -4.7891   -0.1913 N.2     1  UNL1       -0.0973
     12 H           1.3856   -4.9673    0.0501 H       1  UNL1        0.4896
     13 C           3.2261   -5.6703   -0.5502 C.2     1  UNL1        0.2435
     14 C           4.4905   -5.0005   -0.7994 C.2     1  UNL1        0.0729
     15 C           5.5674   -5.6950   -1.1820 C.2     1  UNL1       -0.0496
     16 C           5.5424   -7.2153   -1.2752 C.3     1  UNL1        0.1120
     17 C           4.1520   -7.8207   -1.0749 C.2     1  UNL1        0.1160
     18 C           3.0619   -7.1155   -0.7238 C.2     1  UNL1        0.0508
     19 O           4.0984   -9.1887   -1.2458 O.2     1  UNL1       -0.5097
     20 C           6.3599   -7.7816   -2.4821 C.2     1  UNL1        0.2299
     21 O           7.4327   -8.3469   -2.2313 O.2     1  UNL1       -0.2745
     22 N           5.9245   -7.6130   -3.7872 N.am    1  UNL1       -0.2994
     23 C           6.7073   -8.2373   -4.8754 C.3     1  UNL1        0.0394
     24 C           7.2506   -7.2141   -5.8496 C.ar    1  UNL1       -0.0301
     25 C           8.3448   -6.4112   -5.4966 C.ar    1  UNL1       -0.0571
     26 C           8.7712   -5.3835   -6.3410 C.ar    1  UNL1       -0.0615
     27 C           8.1133   -5.1514   -7.5476 C.ar    1  UNL1       -0.0617
     28 C           7.0642   -5.9811   -7.9372 C.ar    1  UNL1       -0.0615
     29 C           6.6424   -7.0153   -7.0990 C.ar    1  UNL1       -0.0571
     30 C           4.6162   -7.1086   -4.1645 C.3     1  UNL1        0.0035
     31 H           8.6504   -4.3504    3.9249 H       1  UNL1        0.0278
     32 H           9.2523   -4.2530    2.2578 H       1  UNL1        0.0278
     33 H           7.9388   -5.3834    2.6771 H       1  UNL1        0.0278
     34 H           7.1568   -2.5622    4.5495 H       1  UNL1        0.0620
     35 H           5.3660   -0.9664    3.9776 H       1  UNL1        0.0618
     36 H           4.4364   -0.8886    1.6946 H       1  UNL1        0.0620
     37 H           7.3060   -3.8757    0.4653 H       1  UNL1        0.0623
     38 H           5.9178   -2.6443   -1.2289 H       1  UNL1        0.0379
     39 H           4.6463   -1.5416   -0.7014 H       1  UNL1        0.0379
     40 H           6.5221   -5.2087   -1.3708 H       1  UNL1        0.0592
     41 H           6.1134   -7.5530   -0.3946 H       1  UNL1        0.0517
     42 H           2.0913   -7.5740   -0.5764 H       1  UNL1        0.0718
     43 H           3.3112   -9.5799   -0.8267 H       1  UNL1        0.2917
     44 H           6.0467   -8.9462   -5.3903 H       1  UNL1        0.0514
     45 H           7.5421   -8.8336   -4.4869 H       1  UNL1        0.0514
     46 H           8.8688   -6.5842   -4.5584 H       1  UNL1        0.0621
     47 H           9.6154   -4.7599   -6.0569 H       1  UNL1        0.0618
     48 H           8.4269   -4.3325   -8.1907 H       1  UNL1        0.0618
     49 H           6.5725   -5.8190   -8.8935 H       1  UNL1        0.0618
     50 H           5.8264   -7.6563   -7.4249 H       1  UNL1        0.0621
     51 H           4.1866   -6.4739   -3.3953 H       1  UNL1        0.0429
     52 H           3.9576   -7.9656   -4.3297 H       1  UNL1        0.0429
     53 H           4.6847   -6.5141   -5.0770 H       1  UNL1        0.0429
@<TRIPOS>BOND
     1     1     2    1
     2     2     3   ar
     3     3     4   ar
     4     4     5   ar
     5     5     6   ar
     6     6     7   ar
     7     2     7   ar
     8     6     8    1
     9     8     9    1
    10     9    10    2
    11    10    11    1
    12    11    12    1
    13    11    13    2
    14    13    14    1
    15     9    14    1
    16    14    15    2
    17    15    16    1
    18    16    17    1
    19    17    18    2
    20    13    18    1
    21    17    19    1
    22    16    20    1
    23    20    21    2
    24    20    22   am
    25    22    23    1
    26    23    24    1
    27    24    25   ar
    28    25    26   ar
    29    26    27   ar
    30    27    28   ar
    31    28    29   ar
    32    24    29   ar
    33    22    30    1
    34     1    31    1
    35     1    32    1
    36     1    33    1
    37     3    34    1
    38     4    35    1
    39     5    36    1
    40     7    37    1
    41     8    38    1
    42     8    39    1
    43    15    40    1
    44    16    41    1
    45    18    42    1
    46    19    43    1
    47    23    44    1
    48    23    45    1
    49    25    46    1
    50    26    47    1
    51    27    48    1
    52    28    49    1
    53    29    50    1
    54    30    51    1
    55    30    52    1
    56    30    53    1
@<TRIPOS>MOLECULE
*****
 52 55 0 0 0
SMALL
GASTEIGER

@<TRIPOS>ATOM
      1 CL          7.3928   -1.6433   -6.7708 Cl      1  UNL1       -0.0835
      2 C           7.8675   -1.6321   -5.1163 C.ar    1  UNL1        0.0410
      3 C           8.6496   -0.5883   -4.6262 C.ar    1  UNL1       -0.0431
      4 C           8.9791   -0.5446   -3.2661 C.ar    1  UNL1       -0.0557
      5 C           8.5191   -1.5423   -2.3894 C.ar    1  UNL1       -0.0300
      6 C           7.7737   -2.6099   -2.9128 C.ar    1  UNL1       -0.0557
      7 C           7.4433   -2.6523   -4.2688 C.ar    1  UNL1       -0.0431
      8 C           8.7181   -1.4336   -0.8856 C.3     1  UNL1        0.0397
      9 N           7.4410   -1.1674   -0.2155 N.am    1  UNL1       -0.2962
     10 C           6.8189   -2.2003    0.5134 C.2     1  UNL1        0.2502
     11 O           7.3713   -3.2945    0.6562 O.2     1  UNL1       -0.2699
     12 C           5.4084   -2.0768    1.0196 C.ar    1  UNL1        0.0790
     13 C           4.5690   -3.2080    0.8284 C.ar    1  UNL1       -0.0351
     14 C           3.1728   -3.1011    1.0414 C.ar    1  UNL1        0.0239
     15 C           2.0162   -3.9421    0.9427 C.ar    1  UNL1        0.0748
     16 N           0.8920   -3.2702    1.2467 N.ar    1  UNL1       -0.1774
     17 N           1.3155   -2.0338    1.5257 N.ar    1  UNL1       -0.2766
     18 H           0.6221   -1.3321    1.7538 H       1  UNL1        0.1889
     19 C           2.6737   -1.8811    1.4860 C.ar    1  UNL1        0.0695
     20 C           3.4790   -0.7962    1.8145 C.ar    1  UNL1        0.0060
     21 C           4.8600   -0.9302    1.6060 C.ar    1  UNL1        0.1310
     22 O           5.6561    0.1037    2.0208 O.3     1  UNL1       -0.5059
     23 C           1.9219   -5.4064    0.6690 C.3     1  UNL1        0.0171
     24 C           1.7608   -5.6139   -0.8185 C.ar    1  UNL1       -0.0413
     25 C           2.8420   -6.0881   -1.5725 C.ar    1  UNL1       -0.0582
     26 C           2.6749   -6.4274   -2.9143 C.ar    1  UNL1       -0.0612
     27 C           1.4348   -6.2689   -3.5309 C.ar    1  UNL1       -0.0588
     28 C           0.3537   -5.7397   -2.8190 C.ar    1  UNL1       -0.0502
     29 C           0.5206   -5.4269   -1.4600 C.ar    1  UNL1       -0.0553
     30 C          -0.9542   -5.4811   -3.5097 C.3     1  UNL1       -0.0397
     31 C           6.9221    0.1802   -0.4016 C.3     1  UNL1        0.0038
     32 H           8.9831    0.2053   -5.2903 H       1  UNL1        0.0632
     33 H           9.5635    0.2935   -2.8937 H       1  UNL1        0.0621
     34 H           7.4157   -3.3956   -2.2497 H       1  UNL1        0.0621
     35 H           6.8345   -3.4687   -4.6474 H       1  UNL1        0.0632
     36 H           9.4044   -0.6100   -0.6468 H       1  UNL1        0.0514
     37 H           9.1885   -2.3522   -0.5180 H       1  UNL1        0.0514
     38 H           4.9944   -4.1449    0.4768 H       1  UNL1        0.0633
     39 H           3.0502    0.1131    2.2248 H       1  UNL1        0.0675
     40 H           5.1215    0.9142    2.0661 H       1  UNL1        0.2922
     41 H           1.0622   -5.8482    1.1906 H       1  UNL1        0.0377
     42 H           2.8077   -5.9309    1.0460 H       1  UNL1        0.0377
     43 H           3.8169   -6.2238   -1.1105 H       1  UNL1        0.0620
     44 H           3.5128   -6.8255   -3.4795 H       1  UNL1        0.0618
     45 H           1.3212   -6.5549   -4.5740 H       1  UNL1        0.0620
     46 H          -0.3254   -5.0434   -0.8896 H       1  UNL1        0.0623
     47 H          -0.9395   -5.8441   -4.5439 H       1  UNL1        0.0278
     48 H          -1.1509   -4.4044   -3.5405 H       1  UNL1        0.0278
     49 H          -1.7765   -5.9851   -2.9931 H       1  UNL1        0.0278
     50 H           7.2997    0.6282   -1.3242 H       1  UNL1        0.0429
     51 H           7.2845    0.7998    0.4252 H       1  UNL1        0.0429
     52 H           5.8346    0.1931   -0.4636 H       1  UNL1        0.0429
@<TRIPOS>BOND
     1     1     2    1
     2     2     3   ar
     3     3     4   ar
     4     4     5   ar
     5     5     6   ar
     6     6     7   ar
     7     2     7   ar
     8     5     8    1
     9     8     9    1
    10     9    10   am
    11    10    11    2
    12    10    12    1
    13    12    13   ar
    14    13    14   ar
    15    14    15   ar
    16    15    16   ar
    17    16    17   ar
    18    17    18    1
    19    17    19   ar
    20    14    19   ar
    21    19    20   ar
    22    20    21   ar
    23    12    21   ar
    24    21    22    1
    25    15    23    1
    26    23    24    1
    27    24    25   ar
    28    25    26   ar
    29    26    27   ar
    30    27    28   ar
    31    28    29   ar
    32    24    29   ar
    33    28    30    1
    34     9    31    1
    35     3    32    1
    36     4    33    1
    37     6    34    1
    38     7    35    1
    39     8    36    1
    40     8    37    1
    41    13    38    1
    42    20    39    1
    43    22    40    1
    44    23    41    1
    45    23    42    1
    46    25    43    1
    47    26    44    1
    48    27    45    1
    49    29    46    1
    50    30    47    1
    51    30    48    1
    52    30    49    1
    53    31    50    1
    54    31    51    1
    55    31    52    1
@<TRIPOS>MOLECULE
*****
 46 50 0 0 0
SMALL
GASTEIGER

@<TRIPOS>ATOM
      1 O           1.1032    0.1041   -0.3536 O.3     1  UNL1       -0.5060
      2 C           2.4478    0.0647   -0.0660 C.ar    1  UNL1        0.1280
      3 C           3.0578   -1.2015   -0.1001 C.ar    1  UNL1        0.0059
      4 C           4.4332   -1.2396    0.1108 C.ar    1  UNL1        0.0695
      5 N           5.3419   -2.2573    0.0412 N.ar    1  UNL1       -0.2766
      6 H           5.1628   -3.2292   -0.1928 H       1  UNL1        0.1889
      7 N           6.6188   -1.8647    0.1800 N.ar    1  UNL1       -0.1774
      8 C           6.5266   -0.5475    0.4351 C.ar    1  UNL1        0.0748
      9 C           5.1731   -0.1045    0.4370 C.ar    1  UNL1        0.0238
     10 C           4.5154    1.1398    0.5679 C.ar    1  UNL1       -0.0381
     11 C           3.1556    1.2584    0.2234 C.ar    1  UNL1        0.0426
     12 C           2.5000    2.5928    0.2216 C.ar    1  UNL1        0.0781
     13 C           1.1628    2.8643    0.4971 C.ar    1  UNL1       -0.0158
     14 C           1.0358    4.2491    0.5354 C.ar    1  UNL1        0.0504
     15 N           2.2083    4.8525    0.3932 N.ar    1  UNL1       -0.1742
     16 N           3.0635    3.8682   -0.0163 N.ar    1  UNL1       -0.2320
     17 C           4.2395    4.3088   -0.7018 C.ar    1  UNL1        0.0660
     18 C           4.7119    5.6128   -0.4374 C.ar    1  UNL1       -0.0362
     19 C           5.7048    6.1925   -1.2276 C.ar    1  UNL1       -0.0598
     20 C           6.2252    5.4852   -2.3044 C.ar    1  UNL1       -0.0616
     21 C           5.7792    4.1848   -2.5604 C.ar    1  UNL1       -0.0598
     22 C           4.8007    3.5829   -1.7532 C.ar    1  UNL1       -0.0362
     23 C           7.7439    0.3309    0.4054 C.3     1  UNL1        0.0171
     24 C           8.5335    0.2115    1.6856 C.ar    1  UNL1       -0.0415
     25 C           9.1265   -1.0006    2.0736 C.ar    1  UNL1       -0.0582
     26 C           9.9797   -1.0571    3.1795 C.ar    1  UNL1       -0.0615
     27 C          10.2701    0.0973    3.8997 C.ar    1  UNL1       -0.0617
     28 C           9.6943    1.3095    3.5260 C.ar    1  UNL1       -0.0615
     29 C           8.8298    1.3667    2.4298 C.ar    1  UNL1       -0.0582
     30 H           0.7481   -0.7992   -0.3515 H       1  UNL1        0.2922
     31 H           2.5080   -2.1016   -0.3529 H       1  UNL1        0.0675
     32 H           5.0880    2.0046    0.8908 H       1  UNL1        0.0632
     33 H           0.3784    2.1447    0.6791 H       1  UNL1        0.0655
     34 H           0.1472    4.8475    0.6981 H       1  UNL1        0.0848
     35 H           4.2856    6.2042    0.3736 H       1  UNL1        0.0639
     36 H           6.0382    7.2079   -1.0218 H       1  UNL1        0.0618
     37 H           6.9593    5.9544   -2.9558 H       1  UNL1        0.0618
     38 H           6.1690    3.6549   -3.4264 H       1  UNL1        0.0618
     39 H           4.4315    2.6008   -2.0287 H       1  UNL1        0.0639
     40 H           7.4380    1.3718    0.2457 H       1  UNL1        0.0377
     41 H           8.3850    0.0639   -0.4418 H       1  UNL1        0.0377
     42 H           8.9429   -1.9076    1.5044 H       1  UNL1        0.0620
     43 H          10.4371   -2.0040    3.4586 H       1  UNL1        0.0618
     44 H          10.9514    0.0547    4.7449 H       1  UNL1        0.0618
     45 H           9.9336    2.2156    4.0766 H       1  UNL1        0.0618
     46 H           8.4193    2.3303    2.1377 H       1  UNL1        0.0620
@<TRIPOS>BOND
     1     1     2    1
     2     2     3   ar
     3     3     4   ar
     4     4     5   ar
     5     5     6    1
     6     5     7   ar
     7     7     8   ar
     8     8     9   ar
     9     4     9   ar
    10     9    10   ar
    11    10    11   ar
    12     2    11   ar
    13    11    12    1
    14    12    13   ar
    15    13    14   ar
    16    14    15   ar
    17    15    16   ar
    18    12    16   ar
    19    16    17    1
    20    17    18   ar
    21    18    19   ar
    22    19    20   ar
    23    20    21   ar
    24    21    22   ar
    25    17    22   ar
    26     8    23    1
    27    23    24    1
    28    24    25   ar
    29    25    26   ar
    30    26    27   ar
    31    27    28   ar
    32    28    29   ar
    33    24    29   ar
    34     1    30    1
    35     3    31    1
    36    10    32    1
    37    13    33    1
    38    14    34    1
    39    18    35    1
    40    19    36    1
    41    20    37    1
    42    21    38    1
    43    22    39    1
    44    23    40    1
    45    23    41    1
    46    25    42    1
    47    26    43    1
    48    27    44    1
    49    28    45    1
    50    29    46    1
@<TRIPOS>MOLECULE
*****
 52 55 0 0 0
SMALL
GASTEIGER

@<TRIPOS>ATOM
      1 C          11.5966   -3.9657   -0.9743 C.3     1  UNL1       -0.0397
      2 C          10.9674   -2.6243   -0.7742 C.ar    1  UNL1       -0.0503
      3 C           9.6899   -2.4810   -0.2318 C.ar    1  UNL1       -0.0571
      4 C           9.0495   -1.2253   -0.1866 C.ar    1  UNL1       -0.0400
      5 C           9.6494   -0.0678   -0.7050 C.ar    1  UNL1        0.0363
      6 C          10.9899   -0.2188   -1.1216 C.ar    1  UNL1       -0.0400
      7 C          11.6297   -1.4675   -1.1821 C.ar    1  UNL1       -0.0571
      8 N           8.9518    1.2139   -0.8758 N.am    1  UNL1       -0.2704
      9 C           7.6253    1.4603   -0.4082 C.2     1  UNL1        0.2541
     10 O           6.9305    0.6108    0.1601 O.2     1  UNL1       -0.2695
     11 C           6.9095    2.7913   -0.5841 C.ar    1  UNL1        0.0793
     12 C           5.5024    2.7201   -0.8055 C.ar    1  UNL1       -0.0351
     13 C           4.7101    3.8954   -0.8690 C.ar    1  UNL1        0.0239
     14 C           3.3211    4.2342   -0.9884 C.ar    1  UNL1        0.0748
     15 N           3.1338    5.5653   -0.9363 N.ar    1  UNL1       -0.1774
     16 N           4.3680    6.0663   -0.8229 N.ar    1  UNL1       -0.2766
     17 H           4.4700    7.0728   -0.7582 H       1  UNL1        0.1889
     18 C           5.3533    5.1212   -0.7512 C.ar    1  UNL1        0.0695
     19 C           6.7285    5.2521   -0.5626 C.ar    1  UNL1        0.0060
     20 C           7.4775    4.0676   -0.4324 C.ar    1  UNL1        0.1310
     21 O           8.7971    4.2395   -0.1214 O.3     1  UNL1       -0.5059
     22 C           2.1193    3.3380   -1.0599 C.3     1  UNL1        0.0171
     23 C           1.8521    3.0375   -2.5183 C.ar    1  UNL1       -0.0413
     24 C           1.5809    4.0596   -3.4424 C.ar    1  UNL1       -0.0582
     25 C           1.3960    3.7690   -4.7937 C.ar    1  UNL1       -0.0612
     26 C           1.4346    2.4483   -5.2348 C.ar    1  UNL1       -0.0588
     27 C           1.6157    1.4049   -4.3218 C.ar    1  UNL1       -0.0502
     28 C           1.8222    1.7073   -2.9672 C.ar    1  UNL1       -0.0553
     29 C           1.5944   -0.0234   -4.7798 C.3     1  UNL1       -0.0397
     30 C           9.6570    2.2064   -1.6852 C.3     1  UNL1        0.0086
     31 H          10.9351   -4.7750   -0.6498 H       1  UNL1        0.0278
     32 H          12.5328   -4.0403   -0.4133 H       1  UNL1        0.0278
     33 H          11.8079   -4.1235   -2.0372 H       1  UNL1        0.0278
     34 H           9.1550   -3.3497    0.1496 H       1  UNL1        0.0621
     35 H           8.0521   -1.2138    0.2355 H       1  UNL1        0.0636
     36 H          11.5911    0.6284   -1.4361 H       1  UNL1        0.0636
     37 H          12.6435   -1.5281   -1.5715 H       1  UNL1        0.0621
     38 H           5.0154    1.7492   -0.8811 H       1  UNL1        0.0633
     39 H           7.1800    6.2280   -0.4393 H       1  UNL1        0.0675
     40 H           9.0969    5.0794   -0.5106 H       1  UNL1        0.2922
     41 H           1.2374    3.8198   -0.6186 H       1  UNL1        0.0377
     42 H           2.3041    2.4211   -0.4892 H       1  UNL1        0.0377
     43 H           1.5309    5.0968   -3.1144 H       1  UNL1        0.0620
     44 H           1.2270    4.5745   -5.5031 H       1  UNL1        0.0618
     45 H           1.3117    2.2390   -6.2945 H       1  UNL1        0.0620
     46 H           1.9606    0.8942   -2.2565 H       1  UNL1        0.0623
     47 H           1.4071   -0.0946   -5.8566 H       1  UNL1        0.0278
     48 H           0.7978   -0.5728   -4.2676 H       1  UNL1        0.0278
     49 H           2.5564   -0.5017   -4.5727 H       1  UNL1        0.0278
     50 H          10.2365    1.7478   -2.4892 H       1  UNL1        0.0433
     51 H          10.3375    2.7633   -1.0338 H       1  UNL1        0.0433
     52 H           8.9633    2.8714   -2.1972 H       1  UNL1        0.0433
@<TRIPOS>BOND
     1     1     2    1
     2     2     3   ar
     3     3     4   ar
     4     4     5   ar
     5     5     6   ar
     6     6     7   ar
     7     2     7   ar
     8     5     8    1
     9     8     9   am
    10     9    10    2
    11     9    11    1
    12    11    12   ar
    13    12    13   ar
    14    13    14   ar
    15    14    15   ar
    16    15    16   ar
    17    16    17    1
    18    16    18   ar
    19    13    18   ar
    20    18    19   ar
    21    19    20   ar
    22    11    20   ar
    23    20    21    1
    24    14    22    1
    25    22    23    1
    26    23    24   ar
    27    24    25   ar
    28    25    26   ar
    29    26    27   ar
    30    27    28   ar
    31    23    28   ar
    32    27    29    1
    33     8    30    1
    34     1    31    1
    35     1    32    1
    36     1    33    1
    37     3    34    1
    38     4    35    1
    39     6    36    1
    40     7    37    1
    41    12    38    1
    42    19    39    1
    43    21    40    1
    44    22    41    1
    45    22    42    1
    46    24    43    1
    47    25    44    1
    48    26    45    1
    49    28    46    1
    50    29    47    1
    51    29    48    1
    52    29    49    1
    53    30    50    1
    54    30    51    1
    55    30    52    1
@<TRIPOS>MOLECULE
*****
 62 66 0 0 0
SMALL
GASTEIGER

@<TRIPOS>ATOM
      1 C           5.0694    0.4398   -4.3822 C.3     1  UNL1       -0.0397
      2 C           5.6239   -0.7509   -3.6591 C.ar    1  UNL1       -0.0502
      3 C           6.3440   -1.7326   -4.3474 C.ar    1  UNL1       -0.0588
      4 C           6.7381   -2.8965   -3.6893 C.ar    1  UNL1       -0.0612
      5 C           6.3873   -3.1049   -2.3610 C.ar    1  UNL1       -0.0582
      6 C           5.6361   -2.1479   -1.6558 C.ar    1  UNL1       -0.0413
      7 C           5.3041   -0.9515   -2.3074 C.ar    1  UNL1       -0.0553
      8 C           5.1762   -2.3859   -0.2321 C.3     1  UNL1        0.0171
      9 C           4.1926   -3.5222   -0.2705 C.ar    1  UNL1        0.0748
     10 N           4.6571   -4.7849   -0.1406 N.ar    1  UNL1       -0.1774
     11 N           3.5683   -5.5474   -0.2674 N.ar    1  UNL1       -0.2766
     12 H           3.6809   -6.5500   -0.2224 H       1  UNL1        0.1889
     13 C           2.4023   -4.8502   -0.4307 C.ar    1  UNL1        0.0695
     14 C           2.7654   -3.5060   -0.3756 C.ar    1  UNL1        0.0239
     15 C           1.7326   -2.5455   -0.4298 C.ar    1  UNL1       -0.0351
     16 C           0.3862   -2.9758   -0.5385 C.ar    1  UNL1        0.0793
     17 C           0.0960   -4.3254   -0.7384 C.ar    1  UNL1        0.1310
     18 C           1.0928   -5.2938   -0.6326 C.ar    1  UNL1        0.0060
     19 O          -1.1618   -4.7954   -1.0193 O.3     1  UNL1       -0.5059
     20 C          -0.6729   -1.9348   -0.4727 C.2     1  UNL1        0.2541
     21 O          -0.4778   -0.9911   -1.2381 O.2     1  UNL1       -0.2695
     22 N          -1.7541   -2.0640    0.4468 N.am    1  UNL1       -0.2704
     23 C          -2.6554   -0.9408    0.6894 C.ar    1  UNL1        0.0364
     24 C          -2.7265    0.1718   -0.1549 C.ar    1  UNL1       -0.0385
     25 C          -3.2818    1.3875    0.2773 C.ar    1  UNL1       -0.0389
     26 C          -3.8169    1.5132    1.5562 C.ar    1  UNL1        0.0299
     27 C          -3.9843    0.3353    2.2864 C.ar    1  UNL1       -0.0389
     28 C          -3.4236   -0.8719    1.8617 C.ar    1  UNL1       -0.0385
     29 N          -4.1454    2.7288    2.1644 N.pl3   1  UNL1       -0.3255
     30 C          -4.3075    3.9301    1.3201 C.3     1  UNL1        0.0357
     31 C          -4.8687    5.0667    2.1962 C.3     1  UNL1        0.0634
     32 O          -4.0090    5.3574    3.3077 O.3     1  UNL1       -0.3767
     33 C          -3.8322    4.1872    4.1246 C.3     1  UNL1        0.0634
     34 C          -3.2458    3.0225    3.3155 C.3     1  UNL1        0.0357
     35 C          -1.7589   -3.0981    1.4998 C.3     1  UNL1        0.0086
     36 H           5.6293    0.6551   -5.2953 H       1  UNL1        0.0278
     37 H           5.1003    1.3348   -3.7498 H       1  UNL1        0.0278
     38 H           4.0267    0.2351   -4.6528 H       1  UNL1        0.0278
     39 H           6.5808   -1.6055   -5.4018 H       1  UNL1        0.0620
     40 H           7.2971   -3.6611   -4.2342 H       1  UNL1        0.0618
     41 H           6.6712   -4.0390   -1.8782 H       1  UNL1        0.0620
     42 H           4.7620   -0.1757   -1.7709 H       1  UNL1        0.0623
     43 H           4.7073   -1.4896    0.1888 H       1  UNL1        0.0377
     44 H           6.0402   -2.6270    0.3983 H       1  UNL1        0.0377
     45 H           1.9649   -1.4842   -0.3768 H       1  UNL1        0.0633
     46 H           0.8516   -6.3507   -0.7122 H       1  UNL1        0.0675
     47 H          -1.7359   -4.0468   -1.2702 H       1  UNL1        0.2922
     48 H          -2.3013    0.1624   -1.1529 H       1  UNL1        0.0637
     49 H          -3.1982    2.2406   -0.3879 H       1  UNL1        0.0637
     50 H          -4.5060    0.3652    3.2408 H       1  UNL1        0.0637
     51 H          -3.5498   -1.7113    2.5366 H       1  UNL1        0.0637
     52 H          -4.9958    3.7355    0.4946 H       1  UNL1        0.0486
     53 H          -3.3344    4.2382    0.9133 H       1  UNL1        0.0486
     54 H          -5.8651    4.8088    2.5758 H       1  UNL1        0.0575
     55 H          -4.9644    5.9837    1.6025 H       1  UNL1        0.0575
     56 H          -4.7972    3.9065    4.5631 H       1  UNL1        0.0575
     57 H          -3.1534    4.4474    4.9443 H       1  UNL1        0.0575
     58 H          -3.1222    2.1614    3.9813 H       1  UNL1        0.0486
     59 H          -2.2534    3.3011    2.9358 H       1  UNL1        0.0486
     60 H          -1.1714   -3.9795    1.2712 H       1  UNL1        0.0433
     61 H          -2.7803   -3.4529    1.6740 H       1  UNL1        0.0433
     62 H          -1.3312   -2.6679    2.4119 H       1  UNL1        0.0433
@<TRIPOS>BOND
     1     1     2    1
     2     2     3   ar
     3     3     4   ar
     4     4     5   ar
     5     5     6   ar
     6     6     7   ar
     7     2     7   ar
     8     6     8    1
     9     8     9    1
    10     9    10   ar
    11    10    11   ar
    12    11    12    1
    13    11    13   ar
    14    13    14   ar
    15     9    14   ar
    16    14    15   ar
    17    15    16   ar
    18    16    17   ar
    19    17    18   ar
    20    13    18   ar
    21    17    19    1
    22    16    20    1
    23    20    21    2
    24    20    22   am
    25    22    23    1
    26    23    24   ar
    27    24    25   ar
    28    25    26   ar
    29    26    27   ar
    30    27    28   ar
    31    23    28   ar
    32    26    29    1
    33    29    30    1
    34    30    31    1
    35    31    32    1
    36    32    33    1
    37    33    34    1
    38    29    34    1
    39    22    35    1
    40     1    36    1
    41     1    37    1
    42     1    38    1
    43     3    39    1
    44     4    40    1
    45     5    41    1
    46     7    42    1
    47     8    43    1
    48     8    44    1
    49    15    45    1
    50    18    46    1
    51    19    47    1
    52    24    48    1
    53    25    49    1
    54    27    50    1
    55    28    51    1
    56    30    52    1
    57    30    53    1
    58    31    54    1
    59    31    55    1
    60    33    56    1
    61    33    57    1
    62    34    58    1
    63    34    59    1
    64    35    60    1
    65    35    61    1
    66    35    62    1
@<TRIPOS>MOLECULE
*****
 49 52 0 0 0
SMALL
GASTEIGER

@<TRIPOS>ATOM
      1 C           4.9231    0.2688   -4.4478 C.3     1  UNL1       -0.0397
      2 C           5.5327   -0.8949   -3.7247 C.ar    1  UNL1       -0.0502
      3 C           6.2850   -1.8556   -4.4132 C.ar    1  UNL1       -0.0588
      4 C           6.7299   -3.0017   -3.7568 C.ar    1  UNL1       -0.0612
      5 C           6.3931   -3.2136   -2.4185 C.ar    1  UNL1       -0.0582
      6 C           5.6153   -2.2786   -1.7133 C.ar    1  UNL1       -0.0413
      7 C           5.2350   -1.0985   -2.3672 C.ar    1  UNL1       -0.0553
      8 C           5.1756   -2.5280   -0.2858 C.3     1  UNL1        0.0171
      9 C           4.1944   -3.6606   -0.3236 C.ar    1  UNL1        0.0748
     10 N           4.6556   -4.9228   -0.2192 N.ar    1  UNL1       -0.1774
     11 N           3.5678   -5.6833   -0.3496 N.ar    1  UNL1       -0.2766
     12 H           3.6823   -6.6913   -0.3409 H       1  UNL1        0.1889
     13 C           2.3965   -4.9875   -0.4710 C.ar    1  UNL1        0.0695
     14 C           2.7651   -3.6421   -0.4026 C.ar    1  UNL1        0.0239
     15 C           1.7260   -2.6794   -0.4282 C.ar    1  UNL1       -0.0351
     16 C           0.3812   -3.1101   -0.5112 C.ar    1  UNL1        0.0793
     17 C           0.0851   -4.4570   -0.7210 C.ar    1  UNL1        0.1310
     18 C           1.0859   -5.4222   -0.6472 C.ar    1  UNL1        0.0060
     19 O          -1.1731   -4.9206   -0.9834 O.3     1  UNL1       -0.5059
     20 C          -0.6701   -2.0586   -0.4396 C.2     1  UNL1        0.2541
     21 O          -0.4929   -1.1353   -1.2359 O.2     1  UNL1       -0.2695
     22 N          -1.7243   -2.1500    0.5167 N.am    1  UNL1       -0.2704
     23 C          -2.6217   -1.0211    0.7590 C.ar    1  UNL1        0.0363
     24 C          -2.7041    0.0835   -0.1014 C.ar    1  UNL1       -0.0403
     25 C          -3.3655    1.2620    0.2718 C.ar    1  UNL1       -0.0600
     26 C          -4.0180    1.3447    1.4940 C.ar    1  UNL1       -0.0616
     27 C          -4.0739    0.2224    2.3065 C.ar    1  UNL1       -0.0600
     28 C          -3.3987   -0.9483    1.9342 C.ar    1  UNL1       -0.0403
     29 C          -1.7451   -3.1968    1.5511 C.3     1  UNL1        0.0086
     30 H           5.4558    0.4888   -5.3781 H       1  UNL1        0.0278
     31 H           4.9420    1.1686   -3.8271 H       1  UNL1        0.0278
     32 H           3.8841    0.0263   -4.6907 H       1  UNL1        0.0278
     33 H           6.5088   -1.7246   -5.4667 H       1  UNL1        0.0620
     34 H           7.3062   -3.7491   -4.2945 H       1  UNL1        0.0618
     35 H           6.7116   -4.1355   -1.9325 H       1  UNL1        0.0620
     36 H           4.6682   -0.3418   -1.8329 H       1  UNL1        0.0623
     37 H           4.7141   -1.6319    0.1499 H       1  UNL1        0.0377
     38 H           6.0472   -2.7741    0.3324 H       1  UNL1        0.0377
     39 H           1.9656   -1.6148   -0.3704 H       1  UNL1        0.0633
     40 H           0.8453   -6.4790   -0.7382 H       1  UNL1        0.0675
     41 H          -1.7420   -4.1768   -1.2511 H       1  UNL1        0.2922
     42 H          -2.2421    0.0852   -1.0823 H       1  UNL1        0.0636
     43 H          -3.3419    2.1209   -0.3938 H       1  UNL1        0.0618
     44 H          -4.4856    2.2745    1.8047 H       1  UNL1        0.0618
     45 H          -4.6137    0.2605    3.2494 H       1  UNL1        0.0618
     46 H          -3.4729   -1.7750    2.6332 H       1  UNL1        0.0636
     47 H          -1.1436   -4.0726    1.3201 H       1  UNL1        0.0433
     48 H          -2.7638   -3.5544    1.7054 H       1  UNL1        0.0433
     49 H          -1.3294   -2.7778    2.4771 H       1  UNL1        0.0433
@<TRIPOS>BOND
     1     1     2    1
     2     2     3   ar
     3     3     4   ar
     4     4     5   ar
     5     5     6   ar
     6     6     7   ar
     7     2     7   ar
     8     6     8    1
     9     8     9    1
    10     9    10   ar
    11    10    11   ar
    12    11    12    1
    13    11    13   ar
    14    13    14   ar
    15     9    14   ar
    16    14    15   ar
    17    15    16   ar
    18    16    17   ar
    19    17    18   ar
    20    13    18   ar
    21    17    19    1
    22    16    20    1
    23    20    21    2
    24    20    22   am
    25    22    23    1
    26    23    24   ar
    27    24    25   ar
    28    25    26   ar
    29    26    27   ar
    30    27    28   ar
    31    23    28   ar
    32    22    29    1
    33     1    30    1
    34     1    31    1
    35     1    32    1
    36     3    33    1
    37     4    34    1
    38     5    35    1
    39     7    36    1
    40     8    37    1
    41     8    38    1
    42    15    39    1
    43    18    40    1
    44    19    41    1
    45    24    42    1
    46    25    43    1
    47    26    44    1
    48    27    45    1
    49    28    46    1
    50    29    47    1
    51    29    48    1
    52    29    49    1
@<TRIPOS>MOLECULE
*****
 64 68 0 0 0
SMALL
GASTEIGER

@<TRIPOS>ATOM
      1 C           8.6472   -2.5041   -4.6071 C.3     1  UNL1       -0.0397
      2 C           7.2283   -2.2035   -4.2150 C.ar    1  UNL1       -0.0502
      3 C           6.4384   -1.3674   -5.0107 C.ar    1  UNL1       -0.0588
      4 C           5.1829   -0.9541   -4.5637 C.ar    1  UNL1       -0.0612
      5 C           4.7222   -1.3405   -3.3014 C.ar    1  UNL1       -0.0582
      6 C           5.5040   -2.1603   -2.4751 C.ar    1  UNL1       -0.0413
      7 C           6.7360   -2.6275   -2.9695 C.ar    1  UNL1       -0.0553
      8 C           5.1439   -2.3617   -1.0160 C.3     1  UNL1        0.0171
      9 C           4.2452   -3.5401   -0.8458 C.ar    1  UNL1        0.0748
     10 N           4.7762   -4.7581   -0.6474 N.ar    1  UNL1       -0.1774
     11 N           3.7194   -5.5467   -0.4059 N.ar    1  UNL1       -0.2766
     12 H           3.8888   -6.5225   -0.1950 H       1  UNL1        0.1889
     13 C           2.5140   -4.9027   -0.4498 C.ar    1  UNL1        0.0695
     14 C           2.8186   -3.5640   -0.6711 C.ar    1  UNL1        0.0239
     15 C           1.7637   -2.6302   -0.6397 C.ar    1  UNL1       -0.0351
     16 C           0.4343   -3.0832   -0.4410 C.ar    1  UNL1        0.0793
     17 C           0.1675   -4.4537   -0.3836 C.ar    1  UNL1        0.1310
     18 C           1.2060   -5.3827   -0.3235 C.ar    1  UNL1        0.0060
     19 O          -1.1026   -4.9757   -0.3631 O.3     1  UNL1       -0.5059
     20 C          -0.6258   -2.0465   -0.3590 C.2     1  UNL1        0.2541
     21 O          -0.5585   -1.2194   -1.2721 O.2     1  UNL1       -0.2695
     22 N          -1.5571   -2.0343    0.7138 N.am    1  UNL1       -0.2704
     23 C          -2.4465   -0.8911    0.9047 C.ar    1  UNL1        0.0364
     24 C          -2.6774    0.0659   -0.0887 C.ar    1  UNL1       -0.0385
     25 C          -3.2058    1.3307    0.2176 C.ar    1  UNL1       -0.0389
     26 C          -3.5550    1.6610    1.5244 C.ar    1  UNL1        0.0298
     27 C          -3.5723    0.6185    2.4540 C.ar    1  UNL1       -0.0389
     28 C          -3.0365   -0.6367    2.1521 C.ar    1  UNL1       -0.0385
     29 N          -3.8235    2.9648    1.9718 N.pl3   1  UNL1       -0.3299
     30 C          -4.1878    3.9739    0.9679 C.3     1  UNL1        0.0122
     31 C          -4.7221    5.2137    1.6892 C.3     1  UNL1       -0.0372
     32 C          -3.7118    5.7536    2.7014 C.3     1  UNL1       -0.0502
     33 C          -3.2466    4.6571    3.6537 C.3     1  UNL1       -0.0372
     34 C          -2.7539    3.4341    2.8843 C.3     1  UNL1        0.0122
     35 C          -1.3799   -2.8878    1.9037 C.3     1  UNL1        0.0086
     36 H           8.7938   -2.4216   -5.6893 H       1  UNL1        0.0278
     37 H           8.9407   -3.5144   -4.3062 H       1  UNL1        0.0278
     38 H           9.3138   -1.7839   -4.1180 H       1  UNL1        0.0278
     39 H           6.8084   -1.0093   -5.9687 H       1  UNL1        0.0620
     40 H           4.5813   -0.2927   -5.1840 H       1  UNL1        0.0618
     41 H           3.7709   -0.9503   -2.9473 H       1  UNL1        0.0620
     42 H           7.3511   -3.2763   -2.3471 H       1  UNL1        0.0623
     43 H           4.6827   -1.4489   -0.6241 H       1  UNL1        0.0377
     44 H           6.0645   -2.5058   -0.4370 H       1  UNL1        0.0377
     45 H           1.9636   -1.5674   -0.7780 H       1  UNL1        0.0633
     46 H           0.9961   -6.4407   -0.1788 H       1  UNL1        0.0675
     47 H          -1.7314   -4.2848   -0.6383 H       1  UNL1        0.2922
     48 H          -2.4006   -0.1035   -1.1240 H       1  UNL1        0.0637
     49 H          -3.2480    2.0629   -0.5824 H       1  UNL1        0.0637
     50 H          -3.9467    0.8047    3.4585 H       1  UNL1        0.0637
     51 H          -3.0306   -1.3534    2.9653 H       1  UNL1        0.0637
     52 H          -4.9721    3.5936    0.3031 H       1  UNL1        0.0464
     53 H          -3.3192    4.2478    0.3543 H       1  UNL1        0.0464
     54 H          -5.6497    4.9539    2.2137 H       1  UNL1        0.0280
     55 H          -4.9664    5.9923    0.9594 H       1  UNL1        0.0280
     56 H          -4.1578    6.5745    3.2736 H       1  UNL1        0.0266
     57 H          -2.8466    6.1648    2.1689 H       1  UNL1        0.0266
     58 H          -4.0763    4.3628    4.3077 H       1  UNL1        0.0280
     59 H          -2.4448    5.0353    4.2983 H       1  UNL1        0.0280
     60 H          -2.4657    2.6708    3.6183 H       1  UNL1        0.0464
     61 H          -1.8520    3.6853    2.3101 H       1  UNL1        0.0464
     62 H          -0.7809   -3.7757    1.7362 H       1  UNL1        0.0433
     63 H          -2.3547   -3.2338    2.2619 H       1  UNL1        0.0433
     64 H          -0.8617   -2.3075    2.6746 H       1  UNL1        0.0433
@<TRIPOS>BOND
     1     1     2    1
     2     2     3   ar
     3     3     4   ar
     4     4     5   ar
     5     5     6   ar
     6     6     7   ar
     7     2     7   ar
     8     6     8    1
     9     8     9    1
    10     9    10   ar
    11    10    11   ar
    12    11    12    1
    13    11    13   ar
    14    13    14   ar
    15     9    14   ar
    16    14    15   ar
    17    15    16   ar
    18    16    17   ar
    19    17    18   ar
    20    13    18   ar
    21    17    19    1
    22    16    20    1
    23    20    21    2
    24    20    22   am
    25    22    23    1
    26    23    24   ar
    27    24    25   ar
    28    25    26   ar
    29    26    27   ar
    30    27    28   ar
    31    23    28   ar
    32    26    29    1
    33    29    30    1
    34    30    31    1
    35    31    32    1
    36    32    33    1
    37    33    34    1
    38    29    34    1
    39    22    35    1
    40     1    36    1
    41     1    37    1
    42     1    38    1
    43     3    39    1
    44     4    40    1
    45     5    41    1
    46     7    42    1
    47     8    43    1
    48     8    44    1
    49    15    45    1
    50    18    46    1
    51    19    47    1
    52    24    48    1
    53    25    49    1
    54    27    50    1
    55    28    51    1
    56    30    52    1
    57    30    53    1
    58    31    54    1
    59    31    55    1
    60    32    56    1
    61    32    57    1
    62    33    58    1
    63    33    59    1
    64    34    60    1
    65    34    61    1
    66    35    62    1
    67    35    63    1
    68    35    64    1
@<TRIPOS>MOLECULE
*****
 57 60 0 0 0
SMALL
GASTEIGER

@<TRIPOS>ATOM
      1 C           9.1991   -2.1073   -3.2088 C.3     1  UNL1       -0.0397
      2 C           7.7363   -1.8237   -3.0173 C.ar    1  UNL1       -0.0502
      3 C           7.0977   -0.8578   -3.8003 C.ar    1  UNL1       -0.0588
      4 C           5.7843   -0.4816   -3.5214 C.ar    1  UNL1       -0.0612
      5 C           5.1111   -1.0333   -2.4276 C.ar    1  UNL1       -0.0582
      6 C           5.7375   -1.9863   -1.6103 C.ar    1  UNL1       -0.0413
      7 C           7.0355   -2.4118   -1.9524 C.ar    1  UNL1       -0.0553
      8 C           5.1340   -2.3828   -0.2783 C.3     1  UNL1        0.0171
      9 C           4.1994   -3.5362   -0.4368 C.ar    1  UNL1        0.0748
     10 N           4.6745   -4.7907   -0.3501 N.ar    1  UNL1       -0.1774
     11 N           3.5802   -5.5632   -0.3981 N.ar    1  UNL1       -0.2766
     12 H           3.6976   -6.5661   -0.3120 H       1  UNL1        0.1889
     13 C           2.4078   -4.8732   -0.5239 C.ar    1  UNL1        0.0695
     14 C           2.7672   -3.5305   -0.4874 C.ar    1  UNL1        0.0239
     15 C           1.7376   -2.5647   -0.4693 C.ar    1  UNL1       -0.0351
     16 C           0.3799   -2.9926   -0.5377 C.ar    1  UNL1        0.0793
     17 C           0.0861   -4.3446   -0.7259 C.ar    1  UNL1        0.1310
     18 C           1.0861   -5.3163   -0.6566 C.ar    1  UNL1        0.0060
     19 O          -1.1772   -4.8111   -0.9765 O.3     1  UNL1       -0.5059
     20 C          -0.6590   -1.9405   -0.4666 C.2     1  UNL1        0.2541
     21 O          -0.4447   -1.0041   -1.2445 O.2     1  UNL1       -0.2695
     22 N          -1.7359   -2.0297    0.4670 N.am    1  UNL1       -0.2704
     23 C          -2.6174   -0.8894    0.6931 C.ar    1  UNL1        0.0364
     24 C          -2.6801    0.1910   -0.1836 C.ar    1  UNL1       -0.0385
     25 C          -3.2343    1.4162    0.2116 C.ar    1  UNL1       -0.0389
     26 C          -3.7892    1.6102    1.4806 C.ar    1  UNL1        0.0293
     27 C          -3.9538    0.4618    2.2542 C.ar    1  UNL1       -0.0389
     28 C          -3.3858   -0.7676    1.8651 C.ar    1  UNL1       -0.0385
     29 N          -4.1535    2.8990    1.8880 N.pl3   1  UNL1       -0.3360
     30 C          -4.9935    3.0607    3.0728 C.3     1  UNL1        0.0004
     31 C          -3.0561    3.8780    1.8164 C.3     1  UNL1        0.0004
     32 C          -1.7488   -3.0504    1.5313 C.3     1  UNL1        0.0086
     33 H           9.5258   -1.8726   -4.2273 H       1  UNL1        0.0278
     34 H           9.4291   -3.1597   -3.0179 H       1  UNL1        0.0278
     35 H           9.7774   -1.4880   -2.5134 H       1  UNL1        0.0278
     36 H           7.6310   -0.3668   -4.6130 H       1  UNL1        0.0620
     37 H           5.3030    0.2852   -4.1249 H       1  UNL1        0.0618
     38 H           4.1166   -0.6676   -2.1846 H       1  UNL1        0.0620
     39 H           7.5327   -3.1606   -1.3367 H       1  UNL1        0.0623
     40 H           4.6260   -1.5199    0.1657 H       1  UNL1        0.0377
     41 H           5.9401   -2.6474    0.4188 H       1  UNL1        0.0377
     42 H           1.9710   -1.5085   -0.4171 H       1  UNL1        0.0633
     43 H           0.8392   -6.3711   -0.7166 H       1  UNL1        0.0675
     44 H          -1.7501   -4.0639   -1.2296 H       1  UNL1        0.2922
     45 H          -2.2664    0.1494   -1.1851 H       1  UNL1        0.0637
     46 H          -3.1941    2.2441   -0.4924 H       1  UNL1        0.0637
     47 H          -4.4619    0.4991    3.2132 H       1  UNL1        0.0637
     48 H          -3.5182   -1.5898    2.5608 H       1  UNL1        0.0637
     49 H          -5.8453    2.3738    3.0667 H       1  UNL1        0.0428
     50 H          -5.4061    4.0759    3.0890 H       1  UNL1        0.0428
     51 H          -4.4180    2.9183    3.9957 H       1  UNL1        0.0428
     52 H          -2.3553    3.7091    0.9917 H       1  UNL1        0.0428
     53 H          -2.4725    3.8756    2.7461 H       1  UNL1        0.0428
     54 H          -3.4714    4.8816    1.6784 H       1  UNL1        0.0428
     55 H          -1.1677   -3.9399    1.3113 H       1  UNL1        0.0433
     56 H          -2.7748   -3.3922    1.7130 H       1  UNL1        0.0433
     57 H          -1.3178   -2.6127    2.4378 H       1  UNL1        0.0433
@<TRIPOS>BOND
     1     1     2    1
     2     2     3   ar
     3     3     4   ar
     4     4     5   ar
     5     5     6   ar
     6     6     7   ar
     7     2     7   ar
     8     6     8    1
     9     8     9    1
    10     9    10   ar
    11    10    11   ar
    12    11    12    1
    13    11    13   ar
    14    13    14   ar
    15     9    14   ar
    16    14    15   ar
    17    15    16   ar
    18    16    17   ar
    19    17    18   ar
    20    13    18   ar
    21    17    19    1
    22    16    20    1
    23    20    21    2
    24    20    22   am
    25    22    23    1
    26    23    24   ar
    27    24    25   ar
    28    25    26   ar
    29    26    27   ar
    30    27    28   ar
    31    23    28   ar
    32    26    29    1
    33    29    30    1
    34    29    31    1
    35    22    32    1
    36     1    33    1
    37     1    34    1
    38     1    35    1
    39     3    36    1
    40     4    37    1
    41     5    38    1
    42     7    39    1
    43     8    40    1
    44     8    41    1
    45    15    42    1
    46    18    43    1
    47    19    44    1
    48    24    45    1
    49    25    46    1
    50    27    47    1
    51    28    48    1
    52    30    49    1
    53    30    50    1
    54    30    51    1
    55    31    52    1
    56    31    53    1
    57    31    54    1
    58    32    55    1
    59    32    56    1
    60    32    57    1
@<TRIPOS>MOLECULE
*****
 64 68 0 0 0
SMALL
GASTEIGER

@<TRIPOS>ATOM
      1 C           7.0451    2.0310    0.2914 C.3     1  UNL1       -0.0397
      2 C           6.7231    0.6025    0.6194 C.ar    1  UNL1       -0.0502
      3 C           7.4012   -0.0587    1.6463 C.ar    1  UNL1       -0.0588
      4 C           7.2440   -1.4338    1.8150 C.ar    1  UNL1       -0.0612
      5 C           6.4354   -2.1635    0.9385 C.ar    1  UNL1       -0.0582
      6 C           5.7261   -1.5234   -0.0884 C.ar    1  UNL1       -0.0413
      7 C           5.8647   -0.1282   -0.2155 C.ar    1  UNL1       -0.0553
      8 C           5.0513   -2.2745   -1.2175 C.3     1  UNL1        0.0171
      9 C           4.1857   -3.3867   -0.7123 C.ar    1  UNL1        0.0748
     10 N           4.7242   -4.6042   -0.5344 N.ar    1  UNL1       -0.1774
     11 N           3.6769   -5.3946   -0.2692 N.ar    1  UNL1       -0.2766
     12 H           3.8506   -6.3773   -0.0947 H       1  UNL1        0.1889
     13 C           2.4680   -4.7591   -0.3271 C.ar    1  UNL1        0.0695
     14 C           2.7659   -3.4177   -0.5467 C.ar    1  UNL1        0.0239
     15 C           1.6970   -2.4990   -0.6012 C.ar    1  UNL1       -0.0351
     16 C           0.3741   -2.9755   -0.4185 C.ar    1  UNL1        0.0793
     17 C           0.1210   -4.3408   -0.3329 C.ar    1  UNL1        0.1310
     18 C           1.1659   -5.2615   -0.2365 C.ar    1  UNL1        0.0060
     19 O          -1.1388   -4.8779   -0.3365 O.3     1  UNL1       -0.5059
     20 C          -0.7033   -1.9632   -0.3434 C.2     1  UNL1        0.2541
     21 O          -0.7272   -1.1343   -1.2535 O.2     1  UNL1       -0.2695
     22 N          -1.5851   -1.9569    0.7728 N.am    1  UNL1       -0.2704
     23 C          -2.4447   -0.8135    0.9105 C.ar    1  UNL1        0.0364
     24 C          -3.2098   -0.3599   -0.1638 C.ar    1  UNL1       -0.0385
     25 C          -3.8425    0.8913   -0.1190 C.ar    1  UNL1       -0.0389
     26 C          -3.7179    1.7381    0.9915 C.ar    1  UNL1        0.0301
     27 C          -3.0665    1.1985    2.1099 C.ar    1  UNL1       -0.0389
     28 C          -2.4556   -0.0597    2.0845 C.ar    1  UNL1       -0.0385
     29 N          -4.1789    3.0448    0.9940 N.pl3   1  UNL1       -0.3198
     30 C          -5.3027    3.4774    0.1556 C.3     1  UNL1        0.0524
     31 C          -4.8450    4.5638   -0.8313 C.3     1  UNL1       -0.0175
     32 N          -4.2176    5.7049   -0.0653 N.4     1  UNL1        0.2292
     33 H          -4.9227    6.1236    0.5572 H       1  UNL1        0.2015
     34 H          -3.9204    6.4420   -0.7199 H       1  UNL1        0.2015
     35 C          -3.0358    5.2541    0.7562 C.3     1  UNL1       -0.0175
     36 C          -3.4247    4.0965    1.7041 C.3     1  UNL1        0.0524
     37 C          -1.3217   -2.7167    2.0038 C.3     1  UNL1        0.0086
     38 H           7.4035    2.5758    1.1708 H       1  UNL1        0.0278
     39 H           6.1659    2.5561   -0.0945 H       1  UNL1        0.0278
     40 H           7.8292    2.0516   -0.4734 H       1  UNL1        0.0278
     41 H           8.0925    0.4807    2.2893 H       1  UNL1        0.0620
     42 H           7.8040   -1.9502    2.5910 H       1  UNL1        0.0618
     43 H           6.4157   -3.2479    1.0330 H       1  UNL1        0.0620
     44 H           5.3608    0.3888   -1.0307 H       1  UNL1        0.0623
     45 H           5.8387   -2.6753   -1.8701 H       1  UNL1        0.0377
     46 H           4.4498   -1.5952   -1.8319 H       1  UNL1        0.0377
     47 H           1.8847   -1.4412   -0.7684 H       1  UNL1        0.0633
     48 H           0.9680   -6.3193   -0.1191 H       1  UNL1        0.0675
     49 H          -1.7762   -4.2070   -0.6479 H       1  UNL1        0.2922
     50 H          -3.2882   -0.9561   -1.0707 H       1  UNL1        0.0637
     51 H          -4.3654    1.1991   -1.0180 H       1  UNL1        0.0637
     52 H          -3.0018    1.7617    3.0382 H       1  UNL1        0.0637
     53 H          -1.9123   -0.3762    2.9693 H       1  UNL1        0.0637
     54 H          -6.0713    3.8990    0.8157 H       1  UNL1        0.0516
     55 H          -5.7879    2.6611   -0.3845 H       1  UNL1        0.0516
     56 H          -5.6877    4.9863   -1.3859 H       1  UNL1        0.0829
     57 H          -4.0871    4.1972   -1.5308 H       1  UNL1        0.0829
     58 H          -2.6886    6.1263    1.3181 H       1  UNL1        0.0829
     59 H          -2.2611    4.9501    0.0449 H       1  UNL1        0.0829
     60 H          -4.0489    4.4816    2.5182 H       1  UNL1        0.0516
     61 H          -2.4942    3.7293    2.1519 H       1  UNL1        0.0516
     62 H          -0.9421   -3.7166    1.8118 H       1  UNL1        0.0433
     63 H          -2.2536   -2.8371    2.5682 H       1  UNL1        0.0433
     64 H          -0.5735   -2.1894    2.6004 H       1  UNL1        0.0433
@<TRIPOS>BOND
     1     1     2    1
     2     2     3   ar
     3     3     4   ar
     4     4     5   ar
     5     5     6   ar
     6     6     7   ar
     7     2     7   ar
     8     6     8    1
     9     8     9    1
    10     9    10   ar
    11    10    11   ar
    12    11    12    1
    13    11    13   ar
    14    13    14   ar
    15     9    14   ar
    16    14    15   ar
    17    15    16   ar
    18    16    17   ar
    19    17    18   ar
    20    13    18   ar
    21    17    19    1
    22    16    20    1
    23    20    21    2
    24    20    22   am
    25    22    23    1
    26    23    24   ar
    27    24    25   ar
    28    25    26   ar
    29    26    27   ar
    30    27    28   ar
    31    23    28   ar
    32    26    29    1
    33    29    30    1
    34    30    31    1
    35    31    32    1
    36    32    33    1
    37    32    34    1
    38    32    35    1
    39    35    36    1
    40    29    36    1
    41    22    37    1
    42     1    38    1
    43     1    39    1
    44     1    40    1
    45     3    41    1
    46     4    42    1
    47     5    43    1
    48     7    44    1
    49     8    45    1
    50     8    46    1
    51    15    47    1
    52    18    48    1
    53    19    49    1
    54    24    50    1
    55    25    51    1
    56    27    52    1
    57    28    53    1
    58    30    54    1
    59    30    55    1
    60    31    56    1
    61    31    57    1
    62    35    58    1
    63    35    59    1
    64    36    60    1
    65    36    61    1
    66    37    62    1
    67    37    63    1
    68    37    64    1
@<TRIPOS>MOLECULE
*****
 67 71 0 0 0
SMALL
GASTEIGER

@<TRIPOS>ATOM
      1 C           7.5448   -4.6076   -0.9480 C.3     1  UNL1       -0.0430
      2 N           6.4352   -4.2062   -0.0037 N.4     1  UNL1        0.2353
      3 H           5.5549   -4.5598   -0.4003 H       1  UNL1        0.2032
      4 C           6.6015   -4.8485    1.3791 C.3     1  UNL1       -0.0160
      5 C           5.5630   -4.3136    2.4103 C.3     1  UNL1        0.0525
      6 N           5.5942   -2.8331    2.4705 N.pl3   1  UNL1       -0.3198
      7 C           5.3109   -2.2139    1.1622 C.3     1  UNL1        0.0525
      8 C           6.3196   -2.6807    0.0830 C.3     1  UNL1       -0.0160
      9 C           5.8022   -2.0993    3.6358 C.ar    1  UNL1        0.0301
     10 C           6.2725   -0.7690    3.6456 C.ar    1  UNL1       -0.0389
     11 C           6.6868   -0.0652    4.8263 C.ar    1  UNL1       -0.0385
     12 C           6.6913   -0.6835    6.0700 C.ar    1  UNL1        0.0364
     13 C           5.9928   -1.9123    6.0993 C.ar    1  UNL1       -0.0385
     14 C           5.5817   -2.6091    4.9195 C.ar    1  UNL1       -0.0389
     15 N           7.5257   -0.2226    7.2034 N.am    1  UNL1       -0.2704
     16 C           7.9974    1.1383    7.3751 C.2     1  UNL1        0.2541
     17 O           7.4505    2.1014    6.8317 O.2     1  UNL1       -0.2695
     18 C           9.1971    1.4957    8.3073 C.ar    1  UNL1        0.0793
     19 C           9.1603    2.6049    9.2324 C.ar    1  UNL1       -0.0351
     20 C          10.3102    2.9940   10.0199 C.ar    1  UNL1        0.0239
     21 C          10.7010    3.9553   11.0522 C.ar    1  UNL1        0.0748
     22 N          11.9874    3.7783   11.4120 N.ar    1  UNL1       -0.1774
     23 N          12.4133    2.7673   10.6731 N.ar    1  UNL1       -0.2766
     24 H          13.3656    2.4393   10.8159 H       1  UNL1        0.1889
     25 C          11.4717    2.2446    9.8273 C.ar    1  UNL1        0.0695
     26 C          11.5698    1.1873    8.9189 C.ar    1  UNL1        0.0060
     27 C          10.4414    0.8677    8.1409 C.ar    1  UNL1        0.1310
     28 O          10.6209   -0.0662    7.1492 O.3     1  UNL1       -0.5059
     29 C           9.8724    4.8912   11.8922 C.3     1  UNL1        0.0171
     30 C          10.2359    6.3750   11.8101 C.ar    1  UNL1       -0.0413
     31 C           9.5716    7.2332   12.7197 C.ar    1  UNL1       -0.0582
     32 C           9.8265    8.6119   12.7669 C.ar    1  UNL1       -0.0612
     33 C          10.7346    9.1757   11.8837 C.ar    1  UNL1       -0.0588
     34 C          11.3789    8.3721   10.9404 C.ar    1  UNL1       -0.0502
     35 C          11.1513    6.9705   10.9308 C.ar    1  UNL1       -0.0553
     36 C          12.3126    8.9894    9.9384 C.3     1  UNL1       -0.0397
     37 C           7.9673   -1.2857    8.1159 C.3     1  UNL1        0.0086
     38 H           7.5320   -5.6953   -1.0597 H       1  UNL1        0.0778
     39 H           8.4999   -4.2717   -0.5328 H       1  UNL1        0.0778
     40 H           7.3613   -4.1327   -1.9167 H       1  UNL1        0.0778
     41 H           7.6250   -4.6361    1.7063 H       1  UNL1        0.0830
     42 H           6.4824   -5.9283    1.2304 H       1  UNL1        0.0830
     43 H           5.7608   -4.7961    3.3717 H       1  UNL1        0.0516
     44 H           4.5612   -4.6314    2.0885 H       1  UNL1        0.0516
     45 H           5.2942   -1.1223    1.1881 H       1  UNL1        0.0516
     46 H           4.3039   -2.5246    0.8547 H       1  UNL1        0.0516
     47 H           7.3236   -2.2992    0.2920 H       1  UNL1        0.0830
     48 H           5.9946   -2.3462   -0.9090 H       1  UNL1        0.0830
     49 H           6.4084   -0.2246    2.7174 H       1  UNL1        0.0637
     50 H           7.0838    0.9408    4.7087 H       1  UNL1        0.0637
     51 H           5.7581   -2.3857    7.0522 H       1  UNL1        0.0637
     52 H           5.0832   -3.5657    5.0607 H       1  UNL1        0.0637
     53 H           8.2474    3.1920    9.3210 H       1  UNL1        0.0633
     54 H          12.5070    0.6480    8.8154 H       1  UNL1        0.0675
     55 H          11.5551   -0.3335    7.1322 H       1  UNL1        0.2922
     56 H          10.0389    4.5967   12.9405 H       1  UNL1        0.0377
     57 H           8.8095    4.7619   11.6783 H       1  UNL1        0.0377
     58 H           8.8448    6.8279   13.4212 H       1  UNL1        0.0620
     59 H           9.3096    9.2375   13.4898 H       1  UNL1        0.0618
     60 H          10.9276   10.2469   11.9277 H       1  UNL1        0.0620
     61 H          11.7085    6.3621   10.2246 H       1  UNL1        0.0623
     62 H          12.2447   10.0838    9.9511 H       1  UNL1        0.0278
     63 H          12.0392    8.6610    8.9310 H       1  UNL1        0.0278
     64 H          13.3485    8.7086   10.1468 H       1  UNL1        0.0278
     65 H           7.7516   -2.2909    7.7342 H       1  UNL1        0.0433
     66 H           7.4802   -1.1488    9.0810 H       1  UNL1        0.0433
     67 H           9.0408   -1.2711    8.2581 H       1  UNL1        0.0433
@<TRIPOS>BOND
     1     1     2    1
     2     2     3    1
     3     2     4    1
     4     4     5    1
     5     5     6    1
     6     6     7    1
     7     7     8    1
     8     2     8    1
     9     6     9    1
    10     9    10   ar
    11    10    11   ar
    12    11    12   ar
    13    12    13   ar
    14    13    14   ar
    15     9    14   ar
    16    12    15    1
    17    15    16   am
    18    16    17    2
    19    16    18    1
    20    18    19   ar
    21    19    20   ar
    22    20    21   ar
    23    21    22   ar
    24    22    23   ar
    25    23    24    1
    26    23    25   ar
    27    20    25   ar
    28    25    26   ar
    29    26    27   ar
    30    18    27   ar
    31    27    28    1
    32    21    29    1
    33    29    30    1
    34    30    31   ar
    35    31    32   ar
    36    32    33   ar
    37    33    34   ar
    38    34    35   ar
    39    30    35   ar
    40    34    36    1
    41    15    37    1
    42     1    38    1
    43     1    39    1
    44     1    40    1
    45     4    41    1
    46     4    42    1
    47     5    43    1
    48     5    44    1
    49     7    45    1
    50     7    46    1
    51     8    47    1
    52     8    48    1
    53    10    49    1
    54    11    50    1
    55    13    51    1
    56    14    52    1
    57    19    53    1
    58    26    54    1
    59    28    55    1
    60    29    56    1
    61    29    57    1
    62    31    58    1
    63    32    59    1
    64    33    60    1
    65    35    61    1
    66    36    62    1
    67    36    63    1
    68    36    64    1
    69    37    65    1
    70    37    66    1
    71    37    67    1
@<TRIPOS>MOLECULE
*****
 64 68 0 0 0
SMALL
GASTEIGER

@<TRIPOS>ATOM
      1 C           4.0585   -9.8608   -1.4794 C.3     1  UNL1        0.0369
      2 O           4.8336   -8.7121   -1.8064 O.3     1  UNL1       -0.3782
      3 C           4.8142   -7.7170   -0.7862 C.3     1  UNL1        0.0754
      4 H           5.2398   -8.1256    0.1398 H       1  UNL1        0.0612
      5 C           5.6298   -6.5043   -1.2278 C.3     1  UNL1       -0.0093
      6 C           5.0701   -5.3709   -0.3747 C.3     1  UNL1        0.0175
      7 N           3.6701   -5.7087   -0.1787 N.am    1  UNL1       -0.2937
      8 C           3.4360   -7.1038   -0.5250 C.3     1  UNL1        0.0413
      9 C           2.7119   -4.7426    0.1633 C.2     1  UNL1        0.2674
     10 O           3.0383   -3.5670    0.3371 O.2     1  UNL1       -0.2682
     11 C           1.2804   -5.1600    0.2752 C.ar    1  UNL1        0.1547
     12 N           0.9170   -6.4597    0.3313 N.ar    1  UNL1       -0.1681
     13 N          -0.4092   -6.4562    0.2399 N.ar    1  UNL1       -0.2761
     14 H          -0.8903   -7.3480    0.2296 H       1  UNL1        0.1889
     15 C          -0.9554   -5.2172    0.1093 C.ar    1  UNL1        0.0700
     16 C           0.0984   -4.3283    0.2833 C.ar    1  UNL1        0.0328
     17 C          -0.2248   -2.9525    0.3411 C.ar    1  UNL1       -0.0347
     18 C          -1.5598   -2.5194    0.0865 C.ar    1  UNL1        0.0793
     19 C          -2.5164   -3.4638   -0.2937 C.ar    1  UNL1        0.1310
     20 C          -2.2587   -4.8302   -0.1855 C.ar    1  UNL1        0.0060
     21 O          -3.7332   -3.1407   -0.8348 O.3     1  UNL1       -0.5059
     22 C          -1.8153   -1.0519    0.1306 C.2     1  UNL1        0.2541
     23 O          -0.8504   -0.3864   -0.2598 O.2     1  UNL1       -0.2695
     24 N          -3.0480   -0.4948    0.5949 N.am    1  UNL1       -0.2704
     25 C          -3.1951    0.9591    0.6995 C.ar    1  UNL1        0.0364
     26 C          -2.3319    1.8493    0.0641 C.ar    1  UNL1       -0.0385
     27 C          -2.2168    3.1797    0.4922 C.ar    1  UNL1       -0.0389
     28 C          -2.9979    3.6982    1.5275 C.ar    1  UNL1        0.0299
     29 C          -4.0496    2.8845    1.9485 C.ar    1  UNL1       -0.0389
     30 C          -4.1538    1.5431    1.5400 C.ar    1  UNL1       -0.0385
     31 N          -2.7003    4.8999    2.1334 N.pl3   1  UNL1       -0.3255
     32 C          -3.6965    5.7708    2.7748 C.3     1  UNL1        0.0357
     33 C          -3.1863    6.2332    4.1486 C.3     1  UNL1        0.0634
     34 O          -1.9093    6.8821    4.0430 O.3     1  UNL1       -0.3767
     35 C          -0.9403    5.9656    3.5116 C.3     1  UNL1        0.0634
     36 C          -1.3326    5.4530    2.1141 C.3     1  UNL1        0.0357
     37 C          -4.0068   -1.2643    1.4123 C.3     1  UNL1        0.0086
     38 H           4.2587  -10.6335   -2.2269 H       1  UNL1        0.0524
     39 H           2.9911   -9.6241   -1.5123 H       1  UNL1        0.0524
     40 H           4.3297  -10.2490   -0.4935 H       1  UNL1        0.0524
     41 H           5.4676   -6.3066   -2.2949 H       1  UNL1        0.0306
     42 H           6.7054   -6.6535   -1.0875 H       1  UNL1        0.0306
     43 H           5.1958   -4.3916   -0.8451 H       1  UNL1        0.0465
     44 H           5.5457   -5.3560    0.6124 H       1  UNL1        0.0465
     45 H           2.7942   -7.1523   -1.4119 H       1  UNL1        0.0490
     46 H           2.9661   -7.6314    0.3087 H       1  UNL1        0.0490
     47 H           0.5615   -2.2235    0.5363 H       1  UNL1        0.0633
     48 H          -3.0372   -5.5551   -0.4061 H       1  UNL1        0.0675
     49 H          -3.7004   -2.2137   -1.1393 H       1  UNL1        0.2922
     50 H          -1.6651    1.5387   -0.7333 H       1  UNL1        0.0637
     51 H          -1.4531    3.7885    0.0150 H       1  UNL1        0.0637
     52 H          -4.7580    3.2261    2.6958 H       1  UNL1        0.0637
     53 H          -4.9578    0.9724    1.9926 H       1  UNL1        0.0637
     54 H          -4.6739    5.2983    2.8983 H       1  UNL1        0.0486
     55 H          -3.8390    6.6427    2.1291 H       1  UNL1        0.0486
     56 H          -3.1030    5.3912    4.8472 H       1  UNL1        0.0575
     57 H          -3.8875    6.9547    4.5786 H       1  UNL1        0.0575
     58 H          -0.8184    5.1322    4.2149 H       1  UNL1        0.0575
     59 H           0.0189    6.4913    3.4561 H       1  UNL1        0.0575
     60 H          -0.5795    4.7134    1.8206 H       1  UNL1        0.0486
     61 H          -1.3054    6.2789    1.3953 H       1  UNL1        0.0486
     62 H          -3.9012   -2.3406    1.3478 H       1  UNL1        0.0433
     63 H          -5.0297   -1.0143    1.1089 H       1  UNL1        0.0433
     64 H          -3.8455   -1.0192    2.4678 H       1  UNL1        0.0433
@<TRIPOS>BOND
     1     1     2    1
     2     2     3    1
     3     3     4    1
     4     3     5    1
     5     5     6    1
     6     6     7    1
     7     7     8    1
     8     3     8    1
     9     7     9   am
    10     9    10    2
    11     9    11    1
    12    11    12   ar
    13    12    13   ar
    14    13    14    1
    15    13    15   ar
    16    15    16   ar
    17    11    16   ar
    18    16    17   ar
    19    17    18   ar
    20    18    19   ar
    21    19    20   ar
    22    15    20   ar
    23    19    21    1
    24    18    22    1
    25    22    23    2
    26    22    24   am
    27    24    25    1
    28    25    26   ar
    29    26    27   ar
    30    27    28   ar
    31    28    29   ar
    32    29    30   ar
    33    25    30   ar
    34    28    31    1
    35    31    32    1
    36    32    33    1
    37    33    34    1
    38    34    35    1
    39    35    36    1
    40    31    36    1
    41    24    37    1
    42     1    38    1
    43     1    39    1
    44     1    40    1
    45     5    41    1
    46     5    42    1
    47     6    43    1
    48     6    44    1
    49     8    45    1
    50     8    46    1
    51    17    47    1
    52    20    48    1
    53    21    49    1
    54    26    50    1
    55    27    51    1
    56    29    52    1
    57    30    53    1
    58    32    54    1
    59    32    55    1
    60    33    56    1
    61    33    57    1
    62    35    58    1
    63    35    59    1
    64    36    60    1
    65    36    61    1
    66    37    62    1
    67    37    63    1
    68    37    64    1
@<TRIPOS>MOLECULE
*****
 67 71 0 0 0
SMALL
GASTEIGER

@<TRIPOS>ATOM
      1 C           0.7845    2.5149   -6.2056 C.3     1  UNL1        0.0369
      2 O           1.9940    1.7773   -6.1416 O.3     1  UNL1       -0.3782
      3 C           1.9051    0.5195   -5.4533 C.3     1  UNL1        0.0741
      4 H           1.1487   -0.0995   -5.9512 H       1  UNL1        0.0611
      5 C           3.2731   -0.1540   -5.5780 C.3     1  UNL1       -0.0237
      6 C           4.3340    0.6630   -4.8342 C.3     1  UNL1       -0.0347
      7 C           3.9495    0.9044   -3.3704 C.3     1  UNL1        0.0152
      8 N           2.5916    1.4304   -3.2290 N.am    1  UNL1       -0.2937
      9 C           1.5625    0.6701   -3.9579 C.3     1  UNL1        0.0413
     10 C           2.3723    2.5801   -2.4374 C.2     1  UNL1        0.2674
     11 O           3.3099    3.2146   -1.9527 O.2     1  UNL1       -0.2682
     12 C           0.9817    3.0574   -2.2475 C.ar    1  UNL1        0.1547
     13 N          -0.0593    2.2125   -2.0686 N.ar    1  UNL1       -0.1681
     14 N          -1.1396    2.9850   -2.2312 N.ar    1  UNL1       -0.2761
     15 H          -2.0530    2.5445   -2.2284 H       1  UNL1        0.1889
     16 C          -0.8505    4.2917   -2.4800 C.ar    1  UNL1        0.0700
     17 C           0.5202    4.4153   -2.2787 C.ar    1  UNL1        0.0328
     18 C           1.0729    5.7186   -2.2699 C.ar    1  UNL1       -0.0347
     19 C           0.2541    6.8344   -2.5741 C.ar    1  UNL1        0.0793
     20 C          -1.0231    6.5780   -3.0842 C.ar    1  UNL1        0.1310
     21 C          -1.6485    5.3428   -2.9190 C.ar    1  UNL1        0.0060
     22 O          -1.7322    7.4572   -3.8561 O.3     1  UNL1       -0.5059
     23 C           0.8514    8.2027   -2.3846 C.2     1  UNL1        0.2541
     24 O           2.0708    8.2836   -2.5549 O.2     1  UNL1       -0.2695
     25 N           0.0831    9.3454   -2.0554 N.am    1  UNL1       -0.2704
     26 C          -1.3137    9.3790   -1.7836 C.ar    1  UNL1        0.0364
     27 C          -1.9036    8.5302   -0.8481 C.ar    1  UNL1       -0.0385
     28 C          -3.2962    8.3264   -0.8558 C.ar    1  UNL1       -0.0389
     29 C          -4.1216    8.9402   -1.8078 C.ar    1  UNL1        0.0299
     30 C          -3.5193    9.9138   -2.6209 C.ar    1  UNL1       -0.0389
     31 C          -2.1418   10.1592   -2.5945 C.ar    1  UNL1       -0.0385
     32 N          -5.4708    8.6612   -1.9579 N.pl3   1  UNL1       -0.3255
     33 C          -6.2495    7.9423   -0.9358 C.3     1  UNL1        0.0357
     34 C          -7.7117    8.4148   -1.0541 C.3     1  UNL1        0.0634
     35 O          -8.2494    8.1469   -2.3630 O.3     1  UNL1       -0.3767
     36 C          -7.4691    8.8118   -3.3739 C.3     1  UNL1        0.0634
     37 C          -5.9910    8.3862   -3.3201 C.3     1  UNL1        0.0357
     38 C           0.7658   10.6470   -2.0243 C.3     1  UNL1        0.0086
     39 H           0.9734    3.4219   -6.7866 H       1  UNL1        0.0524
     40 H           0.4544    2.8270   -5.2137 H       1  UNL1        0.0524
     41 H           0.0018    1.9352   -6.7022 H       1  UNL1        0.0524
     42 H           3.5573   -0.2368   -6.6337 H       1  UNL1        0.0291
     43 H           3.2299   -1.1703   -5.1669 H       1  UNL1        0.0291
     44 H           4.4649    1.6278   -5.3393 H       1  UNL1        0.0281
     45 H           5.2979    0.1445   -4.8853 H       1  UNL1        0.0281
     46 H           4.6855    1.5677   -2.9067 H       1  UNL1        0.0465
     47 H           3.9794   -0.0455   -2.8241 H       1  UNL1        0.0465
     48 H           0.5775    1.1167   -3.8959 H       1  UNL1        0.0490
     49 H           1.5004   -0.3168   -3.4831 H       1  UNL1        0.0490
     50 H           2.1286    5.8552   -2.0382 H       1  UNL1        0.0633
     51 H          -2.6873    5.2034   -3.1999 H       1  UNL1        0.0675
     52 H          -1.1740    8.2340   -4.0290 H       1  UNL1        0.2922
     53 H          -1.2899    7.9788   -0.1408 H       1  UNL1        0.0637
     54 H          -3.7015    7.6104   -0.1475 H       1  UNL1        0.0637
     55 H          -4.1248   10.4793   -3.3249 H       1  UNL1        0.0637
     56 H          -1.7339   10.8602   -3.3165 H       1  UNL1        0.0637
     57 H          -5.8947    8.1543    0.0768 H       1  UNL1        0.0486
     58 H          -6.1894    6.8620   -1.1164 H       1  UNL1        0.0486
     59 H          -7.7853    9.4918   -0.8559 H       1  UNL1        0.0575
     60 H          -8.3374    7.8943   -0.3239 H       1  UNL1        0.0575
     61 H          -7.5642    9.8964   -3.2414 H       1  UNL1        0.0575
     62 H          -7.9004    8.5548   -4.3468 H       1  UNL1        0.0575
     63 H          -5.4418    8.9022   -4.1133 H       1  UNL1        0.0486
     64 H          -5.9163    7.3082   -3.5192 H       1  UNL1        0.0486
     65 H           1.8537   10.5368   -2.0322 H       1  UNL1        0.0433
     66 H           0.4904   11.1838   -1.1094 H       1  UNL1        0.0433
     67 H           0.4808   11.2364   -2.9004 H       1  UNL1        0.0433
@<TRIPOS>BOND
     1     1     2    1
     2     2     3    1
     3     3     4    1
     4     3     5    1
     5     5     6    1
     6     6     7    1
     7     7     8    1
     8     8     9    1
     9     3     9    1
    10     8    10   am
    11    10    11    2
    12    10    12    1
    13    12    13   ar
    14    13    14   ar
    15    14    15    1
    16    14    16   ar
    17    16    17   ar
    18    12    17   ar
    19    17    18   ar
    20    18    19   ar
    21    19    20   ar
    22    20    21   ar
    23    16    21   ar
    24    20    22    1
    25    19    23    1
    26    23    24    2
    27    23    25   am
    28    25    26    1
    29    26    27   ar
    30    27    28   ar
    31    28    29   ar
    32    29    30   ar
    33    30    31   ar
    34    26    31   ar
    35    29    32    1
    36    32    33    1
    37    33    34    1
    38    34    35    1
    39    35    36    1
    40    36    37    1
    41    32    37    1
    42    25    38    1
    43     1    39    1
    44     1    40    1
    45     1    41    1
    46     5    42    1
    47     5    43    1
    48     6    44    1
    49     6    45    1
    50     7    46    1
    51     7    47    1
    52     9    48    1
    53     9    49    1
    54    18    50    1
    55    21    51    1
    56    22    52    1
    57    27    53    1
    58    28    54    1
    59    30    55    1
    60    31    56    1
    61    33    57    1
    62    33    58    1
    63    34    59    1
    64    34    60    1
    65    36    61    1
    66    36    62    1
    67    37    63    1
    68    37    64    1
    69    38    65    1
    70    38    66    1
    71    38    67    1
@<TRIPOS>MOLECULE
*****
 60 64 0 0 0
SMALL
GASTEIGER

@<TRIPOS>ATOM
      1 O           1.3259   -0.2847   -1.3606 O.3     1  UNL1       -0.5059
      2 C           2.5295   -0.2016   -0.7104 C.ar    1  UNL1        0.1310
      3 C           3.3020   -1.3622   -0.6045 C.ar    1  UNL1        0.0060
      4 C           4.6065   -1.2107   -0.1315 C.ar    1  UNL1        0.0700
      5 N           5.6015   -2.1234    0.0628 N.ar    1  UNL1       -0.2761
      6 H           5.5425   -3.1290   -0.0222 H       1  UNL1        0.1889
      7 N           6.7977   -1.5816    0.3086 N.ar    1  UNL1       -0.1681
      8 C           6.5707   -0.2506    0.2962 C.ar    1  UNL1        0.1547
      9 C           5.1668    0.0176    0.1973 C.ar    1  UNL1        0.0328
     10 C           4.3181    1.1434    0.2287 C.ar    1  UNL1       -0.0347
     11 C           2.9651    1.0177   -0.1816 C.ar    1  UNL1        0.0793
     12 C           2.1189    2.2492   -0.0935 C.2     1  UNL1        0.2541
     13 O           2.7437    3.2851   -0.3375 O.2     1  UNL1       -0.2695
     14 N           0.7624    2.2042    0.3342 N.am    1  UNL1       -0.2704
     15 C          -0.0068    3.4249    0.5436 C.ar    1  UNL1        0.0364
     16 C           0.4213    4.6890    0.1236 C.ar    1  UNL1       -0.0385
     17 C          -0.1792    5.8682    0.5992 C.ar    1  UNL1       -0.0389
     18 C          -1.2418    5.8197    1.4982 C.ar    1  UNL1        0.0299
     19 C          -1.7982    4.5639    1.7475 C.ar    1  UNL1       -0.0389
     20 C          -1.2075    3.3937    1.2683 C.ar    1  UNL1       -0.0385
     21 N          -1.7782    6.9249    2.1568 N.pl3   1  UNL1       -0.3255
     22 C          -1.4940    8.2800    1.6546 C.3     1  UNL1        0.0357
     23 C          -2.4465    9.2606    2.3622 C.3     1  UNL1        0.0634
     24 O          -2.2894    9.2161    3.7932 O.3     1  UNL1       -0.3767
     25 C          -2.5393    7.8876    4.2843 C.3     1  UNL1        0.0634
     26 C          -1.6026    6.8615    3.6312 C.3     1  UNL1        0.0357
     27 C           0.1271    0.9810    0.8469 C.3     1  UNL1        0.0086
     28 C           7.6769    0.7327    0.2659 C.2     1  UNL1        0.2673
     29 O           7.6343    1.7724    0.9222 O.2     1  UNL1       -0.2682
     30 N           8.7316    0.4524   -0.6122 N.am    1  UNL1       -0.2962
     31 C           9.8373    1.3669   -0.8102 C.3     1  UNL1        0.0151
     32 C          10.3701    1.0315   -2.1987 C.3     1  UNL1       -0.0357
     33 C          10.0595   -0.4483   -2.3643 C.3     1  UNL1       -0.0357
     34 C           8.7880   -0.6538   -1.5579 C.3     1  UNL1        0.0151
     35 H           1.1504   -1.2065   -1.6087 H       1  UNL1        0.2922
     36 H           2.9385   -2.3292   -0.9308 H       1  UNL1        0.0675
     37 H           4.7131    2.1095    0.5427 H       1  UNL1        0.0633
     38 H           1.2555    4.8136   -0.5587 H       1  UNL1        0.0637
     39 H           0.2593    6.8127    0.2927 H       1  UNL1        0.0637
     40 H          -2.6954    4.4842    2.3563 H       1  UNL1        0.0637
     41 H          -1.7020    2.4705    1.5475 H       1  UNL1        0.0637
     42 H          -1.6558    8.3413    0.5729 H       1  UNL1        0.0486
     43 H          -0.4545    8.5529    1.8777 H       1  UNL1        0.0486
     44 H          -3.4908    9.0326    2.1155 H       1  UNL1        0.0575
     45 H          -2.2377   10.2841    2.0386 H       1  UNL1        0.0575
     46 H          -3.5886    7.6282    4.0970 H       1  UNL1        0.0575
     47 H          -2.3844    7.8967    5.3676 H       1  UNL1        0.0575
     48 H          -1.8279    5.8708    4.0420 H       1  UNL1        0.0486
     49 H          -0.5598    7.1012    3.8809 H       1  UNL1        0.0486
     50 H           0.7587    0.1005    0.8524 H       1  UNL1        0.0433
     51 H          -0.7691    0.7720    0.2486 H       1  UNL1        0.0433
     52 H          -0.1352    1.1143    1.9006 H       1  UNL1        0.0433
     53 H          10.5882    1.1562   -0.0406 H       1  UNL1        0.0465
     54 H           9.5234    2.4116   -0.7262 H       1  UNL1        0.0465
     55 H          11.4380    1.2454   -2.3046 H       1  UNL1        0.0281
     56 H           9.8311    1.6073   -2.9601 H       1  UNL1        0.0281
     57 H          10.8706   -1.0559   -1.9467 H       1  UNL1        0.0281
     58 H           9.9307   -0.7391   -3.4120 H       1  UNL1        0.0281
     59 H           8.8314   -1.6112   -1.0322 H       1  UNL1        0.0465
     60 H           7.8961   -0.6208   -2.1938 H       1  UNL1        0.0465
@<TRIPOS>BOND
     1     1     2    1
     2     2     3   ar
     3     3     4   ar
     4     4     5   ar
     5     5     6    1
     6     5     7   ar
     7     7     8   ar
     8     8     9   ar
     9     4     9   ar
    10     9    10   ar
    11    10    11   ar
    12     2    11   ar
    13    11    12    1
    14    12    13    2
    15    12    14   am
    16    14    15    1
    17    15    16   ar
    18    16    17   ar
    19    17    18   ar
    20    18    19   ar
    21    19    20   ar
    22    15    20   ar
    23    18    21    1
    24    21    22    1
    25    22    23    1
    26    23    24    1
    27    24    25    1
    28    25    26    1
    29    21    26    1
    30    14    27    1
    31     8    28    1
    32    28    29    2
    33    28    30   am
    34    30    31    1
    35    31    32    1
    36    32    33    1
    37    33    34    1
    38    30    34    1
    39     1    35    1
    40     3    36    1
    41    10    37    1
    42    16    38    1
    43    17    39    1
    44    19    40    1
    45    20    41    1
    46    22    42    1
    47    22    43    1
    48    23    44    1
    49    23    45    1
    50    25    46    1
    51    25    47    1
    52    26    48    1
    53    26    49    1
    54    27    50    1
    55    27    51    1
    56    27    52    1
    57    31    53    1
    58    31    54    1
    59    32    55    1
    60    32    56    1
    61    33    57    1
    62    33    58    1
    63    34    59    1
    64    34    60    1
@<TRIPOS>MOLECULE
*****
 63 67 0 0 0
SMALL
GASTEIGER

@<TRIPOS>ATOM
      1 C           8.5113   -2.5703   -4.6068 C.3     1  UNL1       -0.0397
      2 C           7.0910   -2.2698   -4.2161 C.ar    1  UNL1       -0.0502
      3 C           6.3049   -1.4363   -5.0127 C.ar    1  UNL1       -0.0588
      4 C           5.0432   -1.0295   -4.5751 C.ar    1  UNL1       -0.0612
      5 C           4.5765   -1.4164   -3.3150 C.ar    1  UNL1       -0.0582
      6 C           5.3581   -2.2327   -2.4858 C.ar    1  UNL1       -0.0413
      7 C           6.5947   -2.6965   -2.9721 C.ar    1  UNL1       -0.0553
      8 C           4.9899   -2.4316   -1.0279 C.3     1  UNL1        0.0171
      9 C           4.0885   -3.6113   -0.8595 C.ar    1  UNL1        0.0748
     10 N           4.6218   -4.8289   -0.6585 N.ar    1  UNL1       -0.1774
     11 N           3.5627   -5.6204   -0.4324 N.ar    1  UNL1       -0.2766
     12 H           3.7311   -6.5976   -0.2243 H       1  UNL1        0.1889
     13 C           2.3566   -4.9784   -0.4854 C.ar    1  UNL1        0.0695
     14 C           2.6661   -3.6400   -0.6938 C.ar    1  UNL1        0.0239
     15 C           1.6087   -2.7072   -0.6664 C.ar    1  UNL1       -0.0351
     16 C           0.2809   -3.1605   -0.4766 C.ar    1  UNL1        0.0793
     17 C           0.0104   -4.5295   -0.4408 C.ar    1  UNL1        0.1310
     18 C           1.0479   -5.4622   -0.3678 C.ar    1  UNL1        0.0060
     19 O          -1.2577   -5.0479   -0.4544 O.3     1  UNL1       -0.5059
     20 C          -0.7769   -2.1220   -0.4016 C.2     1  UNL1        0.2541
     21 O          -0.6886   -1.2837   -1.2969 O.2     1  UNL1       -0.2695
     22 N          -1.7322   -2.1246    0.6560 N.am    1  UNL1       -0.2704
     23 C          -2.6065   -0.9714    0.8535 C.ar    1  UNL1        0.0364
     24 C          -2.7797    0.0156   -0.1207 C.ar    1  UNL1       -0.0385
     25 C          -3.2661    1.2900    0.2073 C.ar    1  UNL1       -0.0388
     26 C          -3.6631    1.5981    1.5065 C.ar    1  UNL1        0.0318
     27 C          -3.7707    0.5197    2.3888 C.ar    1  UNL1       -0.0388
     28 C          -3.2422   -0.7381    2.0775 C.ar    1  UNL1       -0.0385
     29 N          -3.9372    2.8980    1.9698 N.pl3   1  UNL1       -0.3008
     30 C          -4.2801    3.8889    0.9131 C.3     1  UNL1        0.0380
     31 C          -4.7580    5.1948    1.5656 C.3     1  UNL1        0.0636
     32 O          -3.7470    5.7560    2.4195 O.3     1  UNL1       -0.3740
     33 C          -3.3763    4.8068    3.4279 C.3     1  UNL1        0.0904
     34 C          -2.8613    3.4780    2.8223 C.3     1  UNL1        0.1454
     35 H          -1.9609    3.6646    2.2238 H       1  UNL1        0.0830
     36 O          -2.5126    2.6243    3.9025 O.3     1  UNL1       -0.3719
     37 C          -1.5869   -3.0001    1.8353 C.3     1  UNL1        0.0086
     38 H           8.6535   -2.5054   -5.6910 H       1  UNL1        0.0278
     39 H           8.8084   -3.5744   -4.2906 H       1  UNL1        0.0278
     40 H           9.1760   -1.8400   -4.1309 H       1  UNL1        0.0278
     41 H           6.6782   -1.0732   -5.9692 H       1  UNL1        0.0620
     42 H           4.4459   -0.3670   -5.1963 H       1  UNL1        0.0618
     43 H           3.6252   -1.0261   -2.9677 H       1  UNL1        0.0620
     44 H           7.2100   -3.3390   -2.3447 H       1  UNL1        0.0623
     45 H           4.5235   -1.5202   -0.6391 H       1  UNL1        0.0377
     46 H           5.9066   -2.5739   -0.4407 H       1  UNL1        0.0377
     47 H           1.8101   -1.6452   -0.7924 H       1  UNL1        0.0633
     48 H           0.8361   -6.5189   -0.2477 H       1  UNL1        0.0675
     49 H          -1.8832   -4.3552   -0.7364 H       1  UNL1        0.2922
     50 H          -2.4856   -0.1363   -1.1527 H       1  UNL1        0.0637
     51 H          -3.2503    2.0355   -0.5805 H       1  UNL1        0.0637
     52 H          -4.2150    0.6606    3.3691 H       1  UNL1        0.0637
     53 H          -3.2868   -1.4759    2.8713 H       1  UNL1        0.0637
     54 H          -5.0727    3.5044    0.2601 H       1  UNL1        0.0487
     55 H          -3.3920    4.1100    0.3041 H       1  UNL1        0.0487
     56 H          -5.6689    5.0303    2.1520 H       1  UNL1        0.0575
     57 H          -4.9809    5.9363    0.7924 H       1  UNL1        0.0575
     58 H          -4.2395    4.6181    4.0809 H       1  UNL1        0.0602
     59 H          -2.6036    5.2565    4.0629 H       1  UNL1        0.0602
     60 H          -3.3680    2.3319    4.2536 H       1  UNL1        0.2118
     61 H          -1.0159   -3.9041    1.6575 H       1  UNL1        0.0433
     62 H          -2.5721   -3.3262    2.1855 H       1  UNL1        0.0433
     63 H          -1.0573   -2.4473    2.6181 H       1  UNL1        0.0433
@<TRIPOS>BOND
     1     1     2    1
     2     2     3   ar
     3     3     4   ar
     4     4     5   ar
     5     5     6   ar
     6     6     7   ar
     7     2     7   ar
     8     6     8    1
     9     8     9    1
    10     9    10   ar
    11    10    11   ar
    12    11    12    1
    13    11    13   ar
    14    13    14   ar
    15     9    14   ar
    16    14    15   ar
    17    15    16   ar
    18    16    17   ar
    19    17    18   ar
    20    13    18   ar
    21    17    19    1
    22    16    20    1
    23    20    21    2
    24    20    22   am
    25    22    23    1
    26    23    24   ar
    27    24    25   ar
    28    25    26   ar
    29    26    27   ar
    30    27    28   ar
    31    23    28   ar
    32    26    29    1
    33    29    30    1
    34    30    31    1
    35    31    32    1
    36    32    33    1
    37    33    34    1
    38    29    34    1
    39    22    37    1
    40    34    36    1
    41    34    35    1
    42     1    38    1
    43     1    39    1
    44     1    40    1
    45     3    41    1
    46     4    42    1
    47     5    43    1
    48     7    44    1
    49     8    45    1
    50     8    46    1
    51    15    47    1
    52    18    48    1
    53    19    49    1
    54    24    50    1
    55    25    51    1
    56    27    52    1
    57    28    53    1
    58    30    54    1
    59    30    55    1
    60    31    56    1
    61    31    57    1
    62    33    58    1
    63    33    59    1
    64    36    60    1
    65    37    61    1
    66    37    62    1
    67    37    63    1
@<TRIPOS>MOLECULE
*****
 49 52 0 0 0
SMALL
GASTEIGER

@<TRIPOS>ATOM
      1 F          11.8205   -3.4733   -1.3942 F       1  UNL1       -0.2055
      2 C          11.1035   -2.3490   -1.2591 C.ar    1  UNL1        0.1235
      3 C           9.7268   -2.4196   -1.0892 C.ar    1  UNL1       -0.0247
      4 C           8.9724   -1.2379   -1.0014 C.ar    1  UNL1       -0.0376
      5 C           9.5745    0.0259   -1.1013 C.ar    1  UNL1        0.0364
      6 C          10.9861    0.0466   -1.2095 C.ar    1  UNL1       -0.0376
      7 C          11.7455   -1.1241   -1.2984 C.ar    1  UNL1       -0.0247
      8 N           8.8243    1.2723   -1.1836 N.am    1  UNL1       -0.2704
      9 C           7.4986    1.4186   -0.6861 C.2     1  UNL1        0.2541
     10 O           6.8680    0.4990   -0.1538 O.2     1  UNL1       -0.2695
     11 C           6.7354    2.7407   -0.7258 C.ar    1  UNL1        0.0793
     12 C           5.3188    2.6581   -0.8808 C.ar    1  UNL1       -0.0351
     13 C           4.5141    3.8286   -0.8364 C.ar    1  UNL1        0.0239
     14 C           3.1180    4.1666   -0.8327 C.ar    1  UNL1        0.0748
     15 N           2.9313    5.4959   -0.7318 N.ar    1  UNL1       -0.1774
     16 N           4.1670    5.9965   -0.6850 N.ar    1  UNL1       -0.2766
     17 H           4.2718    7.0001   -0.5894 H       1  UNL1        0.1889
     18 C           5.1523    5.0508   -0.7000 C.ar    1  UNL1        0.0695
     19 C           6.5336    5.1858   -0.5593 C.ar    1  UNL1        0.0060
     20 C           7.2951    4.0081   -0.5148 C.ar    1  UNL1        0.1310
     21 O           8.6136    4.1700   -0.1890 O.3     1  UNL1       -0.5059
     22 C           1.9120    3.2762   -0.8052 C.3     1  UNL1        0.0171
     23 C           1.4681    3.0206   -2.2277 C.ar    1  UNL1       -0.0413
     24 C           1.1343    4.0655   -3.1044 C.ar    1  UNL1       -0.0582
     25 C           0.7329    3.7986   -4.4137 C.ar    1  UNL1       -0.0612
     26 C           0.6206    2.4818   -4.8551 C.ar    1  UNL1       -0.0588
     27 C           0.8854    1.4217   -3.9828 C.ar    1  UNL1       -0.0502
     28 C           1.2995    1.6997   -2.6721 C.ar    1  UNL1       -0.0553
     29 C           0.6925   -0.0002   -4.4187 C.3     1  UNL1       -0.0397
     30 C           9.5088    2.3345   -1.9206 C.3     1  UNL1        0.0086
     31 H           9.2428   -3.3873   -1.0528 H       1  UNL1        0.0647
     32 H           7.8939   -1.3466   -0.9122 H       1  UNL1        0.0637
     33 H          11.5345    0.9848   -1.2198 H       1  UNL1        0.0637
     34 H          12.8239   -1.0799   -1.4113 H       1  UNL1        0.0647
     35 H           4.8401    1.6860   -0.9912 H       1  UNL1        0.0633
     36 H           6.9822    6.1608   -0.4060 H       1  UNL1        0.0675
     37 H           8.8954    5.0573   -0.4710 H       1  UNL1        0.2922
     38 H           1.0889    3.7454   -0.2503 H       1  UNL1        0.0377
     39 H           2.1538    2.3415   -0.2874 H       1  UNL1        0.0377
     40 H           1.1902    5.1010   -2.7724 H       1  UNL1        0.0620
     41 H           0.5046    4.6197   -5.0881 H       1  UNL1        0.0618
     42 H           0.3139    2.2896   -5.8803 H       1  UNL1        0.0620
     43 H           1.4846    0.8730   -1.9883 H       1  UNL1        0.0623
     44 H           0.5434   -0.0701   -5.5010 H       1  UNL1        0.0278
     45 H          -0.1861   -0.4266   -3.9240 H       1  UNL1        0.0278
     46 H           1.5737   -0.5982   -4.1657 H       1  UNL1        0.0278
     47 H          10.1040    1.9215   -2.7412 H       1  UNL1        0.0433
     48 H          10.1830    2.8582   -1.2355 H       1  UNL1        0.0433
     49 H           8.8024    3.0202   -2.3875 H       1  UNL1        0.0433
@<TRIPOS>BOND
     1     1     2    1
     2     2     3   ar
     3     3     4   ar
     4     4     5   ar
     5     5     6   ar
     6     6     7   ar
     7     2     7   ar
     8     5     8    1
     9     8     9   am
    10     9    10    2
    11     9    11    1
    12    11    12   ar
    13    12    13   ar
    14    13    14   ar
    15    14    15   ar
    16    15    16   ar
    17    16    17    1
    18    16    18   ar
    19    13    18   ar
    20    18    19   ar
    21    19    20   ar
    22    11    20   ar
    23    20    21    1
    24    14    22    1
    25    22    23    1
    26    23    24   ar
    27    24    25   ar
    28    25    26   ar
    29    26    27   ar
    30    27    28   ar
    31    23    28   ar
    32    27    29    1
    33     8    30    1
    34     3    31    1
    35     4    32    1
    36     6    33    1
    37     7    34    1
    38    12    35    1
    39    19    36    1
    40    21    37    1
    41    22    38    1
    42    22    39    1
    43    24    40    1
    44    25    41    1
    45    26    42    1
    46    28    43    1
    47    29    44    1
    48    29    45    1
    49    29    46    1
    50    30    47    1
    51    30    48    1
    52    30    49    1
@<TRIPOS>MOLECULE
*****
 53 56 0 0 0
SMALL
GASTEIGER

@<TRIPOS>ATOM
      1 C           2.9895   -2.6007   -4.4622 C.3     1  UNL1        0.0788
      2 O           4.3036   -2.6846   -4.9911 O.3     1  UNL1       -0.4951
      3 C           5.0763   -1.5552   -4.9830 C.ar    1  UNL1        0.1219
      4 C           6.3534   -1.7484   -5.5078 C.ar    1  UNL1       -0.0198
      5 C           7.2450   -0.6840   -5.5854 C.ar    1  UNL1       -0.0565
      6 C           6.8606    0.5898   -5.1492 C.ar    1  UNL1       -0.0400
      7 C           5.5810    0.8273   -4.6245 C.ar    1  UNL1        0.0397
      8 C           4.7070   -0.2788   -4.5304 C.ar    1  UNL1        0.0015
      9 N           5.1434    2.1651   -4.2504 N.am    1  UNL1       -0.2703
     10 C           6.0659    3.1545   -3.8045 C.2     1  UNL1        0.2541
     11 O           7.2580    2.9232   -3.5899 O.2     1  UNL1       -0.2695
     12 C           5.6111    4.5577   -3.4696 C.ar    1  UNL1        0.0793
     13 C           4.5270    4.7833   -2.5893 C.ar    1  UNL1       -0.0351
     14 C           4.1633    6.1012   -2.2153 C.ar    1  UNL1        0.0239
     15 C           3.1700    6.7319   -1.4006 C.ar    1  UNL1        0.0748
     16 N           3.3570    8.0596   -1.3402 N.ar    1  UNL1       -0.1774
     17 N           4.4211    8.2802   -2.1202 N.ar    1  UNL1       -0.2766
     18 H           4.7569    9.2321   -2.2097 H       1  UNL1        0.1889
     19 C           4.9663    7.1491   -2.6604 C.ar    1  UNL1        0.0695
     20 C           6.0846    6.9745   -3.4775 C.ar    1  UNL1        0.0060
     21 C           6.3770    5.6638   -3.8869 C.ar    1  UNL1        0.1310
     22 O           7.4477    5.4967   -4.7287 O.3     1  UNL1       -0.5059
     23 C           2.0839    6.1111   -0.5757 C.3     1  UNL1        0.0171
     24 C           0.8153    6.0130   -1.3981 C.ar    1  UNL1       -0.0413
     25 C           0.2193    7.1302   -2.0050 C.ar    1  UNL1       -0.0582
     26 C          -0.9826    7.0076   -2.7071 C.ar    1  UNL1       -0.0612
     27 C          -1.6210    5.7711   -2.7938 C.ar    1  UNL1       -0.0588
     28 C          -1.0703    4.6504   -2.1652 C.ar    1  UNL1       -0.0502
     29 C           0.1351    4.7848   -1.4607 C.ar    1  UNL1       -0.0553
     30 C          -1.7713    3.3247   -2.1891 C.3     1  UNL1       -0.0397
     31 C           3.7408    2.4844   -4.5162 C.3     1  UNL1        0.0086
     32 H           2.4615   -3.5189   -4.7411 H       1  UNL1        0.0660
     33 H           2.4256   -1.7635   -4.8847 H       1  UNL1        0.0660
     34 H           3.0192   -2.5486   -3.3693 H       1  UNL1        0.0660
     35 H           6.6548   -2.7328   -5.8597 H       1  UNL1        0.0654
     36 H           8.2382   -0.8410   -5.9989 H       1  UNL1        0.0619
     37 H           7.5764    1.3961   -5.2765 H       1  UNL1        0.0636
     38 H           3.7336   -0.1490   -4.0708 H       1  UNL1        0.0673
     39 H           3.9785    3.9557   -2.1589 H       1  UNL1        0.0633
     40 H           6.6939    7.8219   -3.7739 H       1  UNL1        0.0675
     41 H           7.9947    6.2987   -4.7268 H       1  UNL1        0.2922
     42 H           1.8851    6.7052    0.3244 H       1  UNL1        0.0377
     43 H           2.4087    5.1197   -0.2408 H       1  UNL1        0.0377
     44 H           0.6802    8.1130   -1.9242 H       1  UNL1        0.0620
     45 H          -1.4248    7.8821   -3.1787 H       1  UNL1        0.0618
     46 H          -2.5591    5.6932   -3.3386 H       1  UNL1        0.0620
     47 H           0.5365    3.9198   -0.9362 H       1  UNL1        0.0623
     48 H          -2.5657    3.3030   -2.9417 H       1  UNL1        0.0278
     49 H          -2.2153    3.1173   -1.2102 H       1  UNL1        0.0278
     50 H          -1.0611    2.5284   -2.4358 H       1  UNL1        0.0278
     51 H           3.2111    1.6893   -5.0474 H       1  UNL1        0.0433
     52 H           3.6906    3.3797   -5.1420 H       1  UNL1        0.0433
     53 H           3.2177    2.6548   -3.5743 H       1  UNL1        0.0433
@<TRIPOS>BOND
     1     1     2    1
     2     2     3    1
     3     3     4   ar
     4     4     5   ar
     5     5     6   ar
     6     6     7   ar
     7     7     8   ar
     8     3     8   ar
     9     7     9    1
    10     9    10   am
    11    10    11    2
    12    10    12    1
    13    12    13   ar
    14    13    14   ar
    15    14    15   ar
    16    15    16   ar
    17    16    17   ar
    18    17    18    1
    19    17    19   ar
    20    14    19   ar
    21    19    20   ar
    22    20    21   ar
    23    12    21   ar
    24    21    22    1
    25    15    23    1
    26    23    24    1
    27    24    25   ar
    28    25    26   ar
    29    26    27   ar
    30    27    28   ar
    31    28    29   ar
    32    24    29   ar
    33    28    30    1
    34     9    31    1
    35     1    32    1
    36     1    33    1
    37     1    34    1
    38     4    35    1
    39     5    36    1
    40     6    37    1
    41     8    38    1
    42    13    39    1
    43    20    40    1
    44    22    41    1
    45    23    42    1
    46    23    43    1
    47    25    44    1
    48    26    45    1
    49    27    46    1
    50    29    47    1
    51    30    48    1
    52    30    49    1
    53    30    50    1
    54    31    51    1
    55    31    52    1
    56    31    53    1
@<TRIPOS>MOLECULE
*****
 52 55 0 0 0
SMALL
GASTEIGER

@<TRIPOS>ATOM
      1 C           4.5060   -0.7429   -4.9524 C.3     1  UNL1       -0.0397
      2 C           5.4007   -1.3700   -3.9254 C.ar    1  UNL1       -0.0502
      3 C           6.5759   -2.0252   -4.3037 C.ar    1  UNL1       -0.0588
      4 C           7.3157   -2.7393   -3.3622 C.ar    1  UNL1       -0.0612
      5 C           6.8677   -2.8251   -2.0350 C.ar    1  UNL1       -0.0582
      6 C           5.6913   -2.1719   -1.6397 C.ar    1  UNL1       -0.0413
      7 C           4.9835   -1.4176   -2.5895 C.ar    1  UNL1       -0.0553
      8 C           5.1473   -2.3209   -0.2348 C.3     1  UNL1        0.0171
      9 C           4.1677   -3.4573   -0.2780 C.ar    1  UNL1        0.0748
     10 N           4.6324   -4.7130   -0.1505 N.ar    1  UNL1       -0.1774
     11 N           3.5437   -5.4796   -0.2776 N.ar    1  UNL1       -0.2766
     12 H           3.6610   -6.4853   -0.2371 H       1  UNL1        0.1889
     13 C           2.3781   -4.7822   -0.4293 C.ar    1  UNL1        0.0695
     14 C           2.7333   -3.4374   -0.3845 C.ar    1  UNL1        0.0239
     15 C           1.6938   -2.4719   -0.4465 C.ar    1  UNL1       -0.0351
     16 C           0.3446   -2.9024   -0.5388 C.ar    1  UNL1        0.0793
     17 C           0.0649   -4.2618   -0.7127 C.ar    1  UNL1        0.1310
     18 C           1.0663   -5.2293   -0.6137 C.ar    1  UNL1        0.0060
     19 O          -1.1916   -4.7486   -0.9656 O.3     1  UNL1       -0.5059
     20 C          -0.7562   -1.8836   -0.4705 C.2     1  UNL1        0.2541
     21 O          -0.6866   -0.9576   -1.2781 O.2     1  UNL1       -0.2695
     22 N          -1.7598   -2.0210    0.5146 N.am    1  UNL1       -0.2704
     23 C          -2.8454   -1.0726    0.6243 C.ar    1  UNL1        0.0365
     24 C          -3.2698   -0.6503    1.8970 C.ar    1  UNL1       -0.0403
     25 C          -4.4249    0.1112    2.0702 C.ar    1  UNL1       -0.0598
     26 C          -5.1964    0.4512    0.9676 C.ar    1  UNL1       -0.0587
     27 C          -4.7904    0.0731   -0.3182 C.ar    1  UNL1       -0.0487
     28 C          -3.5893   -0.6560   -0.4872 C.ar    1  UNL1       -0.0374
     29 C          -5.6468    0.4384   -1.4969 C.3     1  UNL1       -0.0397
     30 C          -1.6844   -2.9834    1.6247 C.3     1  UNL1        0.0086
     31 H           5.0622   -0.4538   -5.8486 H       1  UNL1        0.0278
     32 H           4.0192    0.1531   -4.5539 H       1  UNL1        0.0278
     33 H           3.7342   -1.4661   -5.2373 H       1  UNL1        0.0278
     34 H           6.9081   -2.0069   -5.3401 H       1  UNL1        0.0620
     35 H           8.2196   -3.2597   -3.6618 H       1  UNL1        0.0618
     36 H           7.4257   -3.4355   -1.3335 H       1  UNL1        0.0620
     37 H           4.0733   -0.9033   -2.2942 H       1  UNL1        0.0623
     38 H           4.6715   -1.3924    0.0990 H       1  UNL1        0.0377
     39 H           5.9625   -2.5355    0.4662 H       1  UNL1        0.0377
     40 H           1.9262   -1.4107   -0.4043 H       1  UNL1        0.0633
     41 H           0.8282   -6.2852   -0.6812 H       1  UNL1        0.0675
     42 H          -1.7830   -4.0101   -1.2020 H       1  UNL1        0.2922
     43 H          -2.6935   -0.8922    2.7867 H       1  UNL1        0.0636
     44 H          -4.7342    0.4173    3.0680 H       1  UNL1        0.0618
     45 H          -6.1208    1.0054    1.1171 H       1  UNL1        0.0620
     46 H          -3.2845   -0.9436   -1.4901 H       1  UNL1        0.0639
     47 H          -6.6404    0.7737   -1.1774 H       1  UNL1        0.0278
     48 H          -5.7973   -0.4312   -2.1444 H       1  UNL1        0.0278
     49 H          -5.1854    1.2488   -2.0693 H       1  UNL1        0.0278
     50 H          -1.2276   -3.9282    1.3440 H       1  UNL1        0.0433
     51 H          -2.6964   -3.2320    1.9697 H       1  UNL1        0.0433
     52 H          -1.0956   -2.5501    2.4362 H       1  UNL1        0.0433
@<TRIPOS>BOND
     1     1     2    1
     2     2     3   ar
     3     3     4   ar
     4     4     5   ar
     5     5     6   ar
     6     6     7   ar
     7     2     7   ar
     8     6     8    1
     9     8     9    1
    10     9    10   ar
    11    10    11   ar
    12    11    12    1
    13    11    13   ar
    14    13    14   ar
    15     9    14   ar
    16    14    15   ar
    17    15    16   ar
    18    16    17   ar
    19    17    18   ar
    20    13    18   ar
    21    17    19    1
    22    16    20    1
    23    20    21    2
    24    20    22   am
    25    22    23    1
    26    23    24   ar
    27    24    25   ar
    28    25    26   ar
    29    26    27   ar
    30    27    28   ar
    31    23    28   ar
    32    27    29    1
    33    22    30    1
    34     1    31    1
    35     1    32    1
    36     1    33    1
    37     3    34    1
    38     4    35    1
    39     5    36    1
    40     7    37    1
    41     8    38    1
    42     8    39    1
    43    15    40    1
    44    18    41    1
    45    19    42    1
    46    24    43    1
    47    25    44    1
    48    26    45    1
    49    28    46    1
    50    29    47    1
    51    29    48    1
    52    29    49    1
    53    30    50    1
    54    30    51    1
    55    30    52    1
@<TRIPOS>MOLECULE
*****
 61 65 0 0 0
SMALL
GASTEIGER

@<TRIPOS>ATOM
      1 C           0.9564    0.1512    0.4163 C.3     1  UNL1        0.0086
      2 N           2.3992    0.1141    0.1550 N.am    1  UNL1       -0.2704
      3 C           3.0387    0.8569   -0.8704 C.2     1  UNL1        0.2541
      4 O           4.2547    0.8501   -1.0810 O.2     1  UNL1       -0.2695
      5 C           2.2613    1.7579   -1.7813 C.ar    1  UNL1        0.0793
      6 C           2.8224    3.0295   -2.0640 C.ar    1  UNL1       -0.0347
      7 C           2.1112    3.9521   -2.8670 C.ar    1  UNL1        0.0328
      8 C           0.8601    3.5748   -3.3429 C.ar    1  UNL1        0.0700
      9 C           0.3143    2.3049   -3.1541 C.ar    1  UNL1        0.0060
     10 C           1.0618    1.3950   -2.4060 C.ar    1  UNL1        0.1310
     11 O           0.5935    0.1097   -2.3168 O.3     1  UNL1       -0.5059
     12 N           0.3773    4.6657   -4.0007 N.ar    1  UNL1       -0.2761
     13 H          -0.5230    4.7669   -4.4553 H       1  UNL1        0.1889
     14 N           1.2208    5.7038   -4.0414 N.ar    1  UNL1       -0.1681
     15 C           2.3310    5.2637   -3.4124 C.ar    1  UNL1        0.1547
     16 C           3.5536    6.0929   -3.3002 C.2     1  UNL1        0.2674
     17 O           4.2844    5.9881   -2.3139 O.2     1  UNL1       -0.2682
     18 N           3.8701    6.9788   -4.3416 N.am    1  UNL1       -0.2918
     19 C           4.9269    7.9752   -4.1567 C.3     1  UNL1        0.0385
     20 C           5.8988    7.9724   -5.3419 C.3     1  UNL1        0.0635
     21 O           5.2006    8.1452   -6.5861 O.3     1  UNL1       -0.3767
     22 C           4.2541    7.0862   -6.7785 C.3     1  UNL1        0.0635
     23 C           3.2132    7.0541   -5.6532 C.3     1  UNL1        0.0385
     24 C           3.1547   -0.7361    1.0436 C.ar    1  UNL1        0.0364
     25 C           4.4612   -0.4428    1.4174 C.ar    1  UNL1       -0.0385
     26 C           5.1575   -1.2556    2.3263 C.ar    1  UNL1       -0.0389
     27 C           4.5859   -2.3977    2.8999 C.ar    1  UNL1        0.0299
     28 C           3.2720   -2.6860    2.5271 C.ar    1  UNL1       -0.0389
     29 C           2.5686   -1.8717    1.6213 C.ar    1  UNL1       -0.0385
     30 N           5.2914   -3.1592    3.8114 N.pl3   1  UNL1       -0.3255
     31 C           4.6534   -3.9995    4.8335 C.3     1  UNL1        0.0357
     32 C           4.8933   -5.4844    4.5338 C.3     1  UNL1        0.0634
     33 O           6.2975   -5.7713    4.4171 O.3     1  UNL1       -0.3767
     34 C           6.8725   -5.0025    3.3468 C.3     1  UNL1        0.0634
     35 C           6.7079   -3.4876    3.5675 C.3     1  UNL1        0.0357
     36 H           0.4844    1.0530    0.0266 H       1  UNL1        0.0433
     37 H           0.7683    0.1570    1.4949 H       1  UNL1        0.0433
     38 H           0.4878   -0.7359   -0.0246 H       1  UNL1        0.0433
     39 H           3.8021    3.2970   -1.6668 H       1  UNL1        0.0633
     40 H          -0.6390    2.0377   -3.5971 H       1  UNL1        0.0675
     41 H          -0.3509    0.0954   -2.5427 H       1  UNL1        0.2922
     42 H           5.4699    7.8244   -3.2197 H       1  UNL1        0.0487
     43 H           4.4243    8.9490   -4.1012 H       1  UNL1        0.0487
     44 H           6.4688    7.0368   -5.3817 H       1  UNL1        0.0575
     45 H           6.6111    8.7977   -5.2474 H       1  UNL1        0.0575
     46 H           4.7919    6.1318   -6.8338 H       1  UNL1        0.0575
     47 H           3.7581    7.2452   -7.7412 H       1  UNL1        0.0575
     48 H           2.5574    6.2077   -5.8467 H       1  UNL1        0.0487
     49 H           2.6231    7.9782   -5.6590 H       1  UNL1        0.0487
     50 H           4.9632    0.4548    1.0621 H       1  UNL1        0.0637
     51 H           6.1570   -0.9406    2.6168 H       1  UNL1        0.0637
     52 H           2.7680   -3.5687    2.9075 H       1  UNL1        0.0637
     53 H           1.5626   -2.1834    1.3584 H       1  UNL1        0.0637
     54 H           3.5839   -3.7954    4.9511 H       1  UNL1        0.0486
     55 H           5.1218   -3.7546    5.7945 H       1  UNL1        0.0486
     56 H           4.3875   -5.7939    3.6118 H       1  UNL1        0.0575
     57 H           4.5005   -6.0952    5.3529 H       1  UNL1        0.0575
     58 H           6.4120   -5.3149    2.4020 H       1  UNL1        0.0575
     59 H           7.9370   -5.2531    3.2967 H       1  UNL1        0.0575
     60 H           7.1306   -2.9647    2.7021 H       1  UNL1        0.0486
     61 H           7.2810   -3.1836    4.4507 H       1  UNL1        0.0486
@<TRIPOS>BOND
     1     1     2    1
     2     2     3   am
     3     3     4    2
     4     3     5    1
     5     5     6   ar
     6     6     7   ar
     7     7     8   ar
     8     8     9   ar
     9     9    10   ar
    10     5    10   ar
    11    10    11    1
    12     8    12   ar
    13    12    13    1
    14    12    14   ar
    15    14    15   ar
    16     7    15   ar
    17    15    16    1
    18    16    17    2
    19    16    18   am
    20    18    19    1
    21    19    20    1
    22    20    21    1
    23    21    22    1
    24    22    23    1
    25    18    23    1
    26     2    24    1
    27    24    25   ar
    28    25    26   ar
    29    26    27   ar
    30    27    28   ar
    31    28    29   ar
    32    24    29   ar
    33    27    30    1
    34    30    31    1
    35    31    32    1
    36    32    33    1
    37    33    34    1
    38    34    35    1
    39    30    35    1
    40     1    36    1
    41     1    37    1
    42     1    38    1
    43     6    39    1
    44     9    40    1
    45    11    41    1
    46    19    42    1
    47    19    43    1
    48    20    44    1
    49    20    45    1
    50    22    46    1
    51    22    47    1
    52    23    48    1
    53    23    49    1
    54    25    50    1
    55    26    51    1
    56    28    52    1
    57    29    53    1
    58    31    54    1
    59    31    55    1
    60    32    56    1
    61    32    57    1
    62    34    58    1
    63    34    59    1
    64    35    60    1
    65    35    61    1
@<TRIPOS>MOLECULE
*****
 63 67 0 0 0
SMALL
GASTEIGER

@<TRIPOS>ATOM
      1 C           3.8502    1.3836    2.6862 C.3     1  UNL1        0.0086
      2 N           3.6276    0.8606    1.3329 N.am    1  UNL1       -0.2704
      3 C           2.8745   -0.3161    1.0754 C.2     1  UNL1        0.2541
      4 O           2.7693   -0.8593   -0.0280 O.2     1  UNL1       -0.2695
      5 C           2.2377   -1.0987    2.1744 C.ar    1  UNL1        0.0793
      6 C           2.4562   -2.4974    2.1415 C.ar    1  UNL1       -0.0347
      7 C           1.9590   -3.3171    3.1765 C.ar    1  UNL1        0.0328
      8 C           1.2528   -2.7033    4.2010 C.ar    1  UNL1        0.0700
      9 C           0.9449   -1.3381    4.2289 C.ar    1  UNL1        0.0060
     10 C           1.4249   -0.5531    3.1731 C.ar    1  UNL1        0.1310
     11 O           1.0864    0.7741    3.1435 O.3     1  UNL1       -0.5059
     12 N           0.9560   -3.7104    5.0772 N.ar    1  UNL1       -0.2761
     13 H           0.4566   -3.6350    5.9526 H       1  UNL1        0.1889
     14 N           1.3995   -4.9158    4.7116 N.ar    1  UNL1       -0.1681
     15 C           1.9692   -4.7207    3.4979 C.ar    1  UNL1        0.1547
     16 C           2.5833   -5.8093    2.6925 C.2     1  UNL1        0.2673
     17 O           3.4739   -5.5294    1.8856 O.2     1  UNL1       -0.2682
     18 N           2.1540   -7.1428    2.8379 N.am    1  UNL1       -0.2962
     19 C           2.8833   -8.2119    2.1547 C.3     1  UNL1        0.0150
     20 C           3.4593   -9.2077    3.1671 C.3     1  UNL1       -0.0371
     21 C           2.4056   -9.6909    4.1692 C.3     1  UNL1       -0.0502
     22 C           1.6424   -8.5157    4.7860 C.3     1  UNL1       -0.0371
     23 C           1.0662   -7.6330    3.6817 C.3     1  UNL1        0.0150
     24 C           4.3234    1.5561    0.2602 C.ar    1  UNL1        0.0364
     25 C           4.0332    1.3471   -1.0903 C.ar    1  UNL1       -0.0385
     26 C           4.7999    1.9314   -2.1119 C.ar    1  UNL1       -0.0389
     27 C           5.8762    2.7794   -1.8408 C.ar    1  UNL1        0.0299
     28 C           6.1174    3.0557   -0.4958 C.ar    1  UNL1       -0.0389
     29 C           5.3560    2.4683    0.5291 C.ar    1  UNL1       -0.0385
     30 N           6.6089    3.3352   -2.8737 N.pl3   1  UNL1       -0.3255
     31 C           7.3475    4.5964   -2.7100 C.3     1  UNL1        0.0357
     32 C           8.8503    4.3358   -2.5640 C.3     1  UNL1        0.0634
     33 O           9.3539    3.5866   -3.6816 O.3     1  UNL1       -0.3767
     34 C           8.6991    2.3082   -3.7512 C.3     1  UNL1        0.0634
     35 C           7.1714    2.4394   -3.9058 C.3     1  UNL1        0.0357
     36 H           3.4599    0.7516    3.4783 H       1  UNL1        0.0433
     37 H           3.3842    2.3739    2.7559 H       1  UNL1        0.0433
     38 H           4.9179    1.4504    2.9064 H       1  UNL1        0.0433
     39 H           3.0187   -2.9442    1.3221 H       1  UNL1        0.0633
     40 H           0.3608   -0.9144    5.0386 H       1  UNL1        0.0675
     41 H           0.6594    1.0219    3.9804 H       1  UNL1        0.2922
     42 H           3.6895   -7.8200    1.5277 H       1  UNL1        0.0465
     43 H           2.1740   -8.7210    1.4904 H       1  UNL1        0.0465
     44 H           4.2761   -8.7275    3.7190 H       1  UNL1        0.0280
     45 H           3.8878  -10.0683    2.6404 H       1  UNL1        0.0280
     46 H           2.8844  -10.2819    4.9581 H       1  UNL1        0.0266
     47 H           1.6961  -10.3546    3.6594 H       1  UNL1        0.0266
     48 H           2.3249   -7.9301    5.4147 H       1  UNL1        0.0280
     49 H           0.8405   -8.8903    5.4307 H       1  UNL1        0.0280
     50 H           0.4372   -6.8462    4.0880 H       1  UNL1        0.0465
     51 H           0.4023   -8.2291    3.0416 H       1  UNL1        0.0465
     52 H           3.1914    0.7413   -1.4091 H       1  UNL1        0.0637
     53 H           4.5135    1.7296   -3.1416 H       1  UNL1        0.0637
     54 H           6.9340    3.7066   -0.1993 H       1  UNL1        0.0637
     55 H           5.6475    2.7356    1.5382 H       1  UNL1        0.0637
     56 H           6.9710    5.1982   -1.8766 H       1  UNL1        0.0486
     57 H           7.1781    5.1877   -3.6185 H       1  UNL1        0.0486
     58 H           9.0792    3.7937   -1.6391 H       1  UNL1        0.0575
     59 H           9.3881    5.2885   -2.5345 H       1  UNL1        0.0575
     60 H           8.9587    1.7317   -2.8556 H       1  UNL1        0.0575
     61 H           9.1113    1.7783   -4.6164 H       1  UNL1        0.0575
     62 H           6.7291    1.4367   -3.8922 H       1  UNL1        0.0486
     63 H           6.9477    2.8808   -4.8839 H       1  UNL1        0.0486
@<TRIPOS>BOND
     1     1     2    1
     2     2     3   am
     3     3     4    2
     4     3     5    1
     5     5     6   ar
     6     6     7   ar
     7     7     8   ar
     8     8     9   ar
     9     9    10   ar
    10     5    10   ar
    11    10    11    1
    12     8    12   ar
    13    12    13    1
    14    12    14   ar
    15    14    15   ar
    16     7    15   ar
    17    15    16    1
    18    16    17    2
    19    16    18   am
    20    18    19    1
    21    19    20    1
    22    20    21    1
    23    21    22    1
    24    22    23    1
    25    18    23    1
    26     2    24    1
    27    24    25   ar
    28    25    26   ar
    29    26    27   ar
    30    27    28   ar
    31    28    29   ar
    32    24    29   ar
    33    27    30    1
    34    30    31    1
    35    31    32    1
    36    32    33    1
    37    33    34    1
    38    34    35    1
    39    30    35    1
    40     1    36    1
    41     1    37    1
    42     1    38    1
    43     6    39    1
    44     9    40    1
    45    11    41    1
    46    19    42    1
    47    19    43    1
    48    20    44    1
    49    20    45    1
    50    21    46    1
    51    21    47    1
    52    22    48    1
    53    22    49    1
    54    23    50    1
    55    23    51    1
    56    25    52    1
    57    26    53    1
    58    28    54    1
    59    29    55    1
    60    31    56    1
    61    31    57    1
    62    32    58    1
    63    32    59    1
    64    34    60    1
    65    34    61    1
    66    35    62    1
    67    35    63    1
@<TRIPOS>MOLECULE
*****
 38 41 0 0 0
SMALL
GASTEIGER

@<TRIPOS>ATOM
      1 N           6.7269   -9.1135    0.1163 N.pl3   1  UNL1       -0.3274
      2 C           6.3979   -8.4573    1.2797 C.ar    1  UNL1        0.2138
      3 N           6.6565   -9.0756    2.4249 N.ar    1  UNL1       -0.2146
      4 C           6.2604   -8.4943    3.5624 C.ar    1  UNL1        0.0768
      5 C           6.5248   -9.1588    4.7548 C.ar    1  UNL1       -0.0356
      6 C           6.0929   -8.6677    5.9877 C.ar    1  UNL1       -0.0597
      7 C           5.3801   -7.4797    6.0364 C.ar    1  UNL1       -0.0610
      8 C           5.1295   -6.7798    4.8577 C.ar    1  UNL1       -0.0504
      9 C           5.5851   -7.2719    3.5990 C.ar    1  UNL1        0.0310
     10 C           5.4166   -6.6891    2.3321 C.ar    1  UNL1        0.1383
     11 N           5.8270   -7.2653    1.1724 N.ar    1  UNL1       -0.2094
     12 C           4.7723   -5.3326    2.1508 C.2     1  UNL1        0.2660
     13 O           4.8960   -4.4708    3.0243 O.2     1  UNL1       -0.2683
     14 N           4.0377   -5.0668    0.9974 N.am    1  UNL1       -0.2914
     15 C           3.7470   -5.9983   -0.0731 C.3     1  UNL1        0.0373
     16 C           2.5517   -5.3748   -0.7301 C.2     1  UNL1       -0.0352
     17 C           1.8849   -5.8502   -1.7907 C.2     1  UNL1        0.0429
     18 C           0.8211   -4.9981   -2.3861 C.2     1  UNL1        0.3430
     19 O          -0.1263   -5.5152   -3.0920 O.2     1  UNL1       -0.2714
     20 H          -0.7810   -4.8467   -3.4018 H       1  UNL1        0.6839
     21 C           0.9665   -3.5268   -2.1404 C.2     1  UNL1        0.0383
     22 C           1.6617   -3.0933   -1.0689 C.2     1  UNL1       -0.0665
     23 C           2.2000   -4.0668   -0.0571 C.3     1  UNL1        0.0166
     24 C           3.4612   -3.7504    0.7427 C.3     1  UNL1        0.0254
     25 H           7.4289   -9.8200    0.3148 H       1  UNL1        0.1452
     26 H           6.9478   -8.4570   -0.6212 H       1  UNL1        0.1452
     27 H           7.0761  -10.0955    4.7242 H       1  UNL1        0.0639
     28 H           6.3112   -9.2179    6.8994 H       1  UNL1        0.0618
     29 H           5.0190   -7.0974    6.9903 H       1  UNL1        0.0618
     30 H           4.5686   -5.8518    4.9244 H       1  UNL1        0.0625
     31 H           3.5241   -6.9972    0.3069 H       1  UNL1        0.0511
     32 H           4.6005   -6.0031   -0.7597 H       1  UNL1        0.0511
     33 H           2.0869   -6.8114   -2.2477 H       1  UNL1        0.0711
     34 H           0.5021   -2.8434   -2.8399 H       1  UNL1        0.0708
     35 H           1.7744   -2.0270   -0.8790 H       1  UNL1        0.0581
     36 H           1.3992   -4.2650    0.6687 H       1  UNL1        0.0404
     37 H           3.2293   -3.2288    1.6772 H       1  UNL1        0.0474
     38 H           4.1882   -3.1561    0.1781 H       1  UNL1        0.0474
@<TRIPOS>BOND
     1     1     2    1
     2     2     3   ar
     3     3     4   ar
     4     4     5   ar
     5     5     6   ar
     6     6     7   ar
     7     7     8   ar
     8     8     9   ar
     9     4     9   ar
    10     9    10   ar
    11    10    11   ar
    12     2    11   ar
    13    10    12    1
    14    12    13    2
    15    12    14   am
    16    14    15    1
    17    15    16    1
    18    16    17    2
    19    17    18    1
    20    18    19    2
    21    19    20    1
    22    18    21    1
    23    21    22    2
    24    22    23    1
    25    16    23    1
    26    23    24    1
    27    14    24    1
    28     1    25    1
    29     1    26    1
    30     5    27    1
    31     6    28    1
    32     7    29    1
    33     8    30    1
    34    15    31    1
    35    15    32    1
    36    17    33    1
    37    21    34    1
    38    22    35    1
    39    23    36    1
    40    24    37    1
    41    24    38    1
@<TRIPOS>MOLECULE
*****
 39 42 0 0 0
SMALL
GASTEIGER

@<TRIPOS>ATOM
      1 O           1.1064   -0.2173   -1.0846 O.3     1  UNL1       -0.5067
      2 C           2.4205   -0.1721   -0.7339 C.ar    1  UNL1        0.1176
      3 C           3.1154    1.0212   -0.6875 C.ar    1  UNL1       -0.0181
      4 C           4.4630    1.0057   -0.3239 C.ar    1  UNL1       -0.0321
      5 C           5.1290   -0.1746    0.0010 C.ar    1  UNL1        0.0770
      6 C           4.4285   -1.3850   -0.0296 C.ar    1  UNL1        0.0345
      7 C           3.0574   -1.3689   -0.4146 C.ar    1  UNL1       -0.0088
      8 C           5.2183   -2.4930    0.3254 C.ar    1  UNL1        0.1384
      9 N           6.5273   -2.4169    0.6637 N.ar    1  UNL1       -0.2094
     10 C           7.0600   -1.2022    0.6678 C.ar    1  UNL1        0.2138
     11 N           6.4192   -0.0853    0.3308 N.ar    1  UNL1       -0.2146
     12 N           8.3885   -1.0897    1.0077 N.pl3   1  UNL1       -0.3274
     13 C           4.6272   -3.8707    0.4480 C.2     1  UNL1        0.2660
     14 O           3.4705   -3.9892    0.8548 O.2     1  UNL1       -0.2683
     15 N           5.3803   -4.9901    0.1110 N.am    1  UNL1       -0.2914
     16 C           4.8160   -6.3111    0.3104 C.3     1  UNL1        0.0367
     17 C           5.6904   -7.1857   -0.5308 C.2     1  UNL1       -0.0477
     18 C           5.6386   -8.5234   -0.6480 C.2     1  UNL1       -0.0789
     19 C           6.7179   -9.2725   -1.3886 C.3     1  UNL1       -0.0162
     20 C           8.0134   -8.4900   -1.4601 C.2     1  UNL1       -0.0836
     21 C           8.0496   -7.1479   -1.3358 C.2     1  UNL1       -0.0790
     22 C           6.7674   -6.3697   -1.2077 C.3     1  UNL1        0.0154
     23 C           6.7483   -5.0685   -0.4032 C.3     1  UNL1        0.0254
     24 H           0.7819    0.6881   -1.2257 H       1  UNL1        0.2921
     25 H           2.6373    1.9668   -0.9254 H       1  UNL1        0.0655
     26 H           5.0107    1.9441   -0.2870 H       1  UNL1        0.0640
     27 H           2.4771   -2.2874   -0.4608 H       1  UNL1        0.0661
     28 H           8.8802   -1.9559    0.8477 H       1  UNL1        0.1452
     29 H           8.7815   -0.2433    0.6220 H       1  UNL1        0.1452
     30 H           3.7660   -6.3412    0.0100 H       1  UNL1        0.0511
     31 H           4.9167   -6.5590    1.3733 H       1  UNL1        0.0511
     32 H           4.8527   -9.0977   -0.1674 H       1  UNL1        0.0575
     33 H           6.3742   -9.5188   -2.4004 H       1  UNL1        0.0350
     34 H           6.9072  -10.2156   -0.8652 H       1  UNL1        0.0350
     35 H           8.9277   -9.0558   -1.6165 H       1  UNL1        0.0572
     36 H           8.9944   -6.6165   -1.3968 H       1  UNL1        0.0576
     37 H           6.4215   -6.1277   -2.2230 H       1  UNL1        0.0404
     38 H           6.9812   -4.2113   -1.0412 H       1  UNL1        0.0474
     39 H           7.4403   -5.0885    0.4472 H       1  UNL1        0.0474
@<TRIPOS>BOND
     1     1     2    1
     2     2     3   ar
     3     3     4   ar
     4     4     5   ar
     5     5     6   ar
     6     6     7   ar
     7     2     7   ar
     8     6     8   ar
     9     8     9   ar
    10     9    10   ar
    11    10    11   ar
    12     5    11   ar
    13    10    12    1
    14     8    13    1
    15    13    14    2
    16    13    15   am
    17    15    16    1
    18    16    17    1
    19    17    18    2
    20    18    19    1
    21    19    20    1
    22    20    21    2
    23    21    22    1
    24    17    22    1
    25    22    23    1
    26    15    23    1
    27     1    24    1
    28     3    25    1
    29     4    26    1
    30     7    27    1
    31    12    28    1
    32    12    29    1
    33    16    30    1
    34    16    31    1
    35    18    32    1
    36    19    33    1
    37    19    34    1
    38    20    35    1
    39    21    36    1
    40    22    37    1
    41    23    38    1
    42    23    39    1
@<TRIPOS>MOLECULE
*****
 69 74 0 0 0
SMALL
GASTEIGER

@<TRIPOS>ATOM
      1 C           9.4760    7.4576    6.8411 C.3     1  UNL1       -0.0430
      2 N           8.3017    6.9813    7.6594 N.4     1  UNL1        0.2350
      3 H           8.1250    7.6872    8.3841 H       1  UNL1        0.2031
      4 C           7.0459    6.9217    6.7823 C.3     1  UNL1       -0.0174
      5 C           5.9163    6.0865    7.4095 C.3     1  UNL1        0.0608
      6 N           6.3839    4.7537    7.8713 N.3     1  UNL1       -0.1664
      7 C           7.4124    4.9839    8.9624 C.3     1  UNL1        0.0608
      8 C           8.6640    5.6880    8.4013 C.3     1  UNL1       -0.0174
      9 S           6.9586    3.5823    6.7369 S.O2    1  UNL1        0.0618
     10 O           7.8880    4.2800    5.8694 O.2     1  UNL1       -0.1528
     11 O           7.4366    2.5383    7.6114 O.2     1  UNL1       -0.1528
     12 C           5.6366    2.9911    5.7001 C.ar    1  UNL1        0.1131
     13 C           4.9325    3.9848    4.9841 C.ar    1  UNL1       -0.0347
     14 C           3.8605    3.6758    4.1514 C.ar    1  UNL1       -0.0599
     15 C           3.5004    2.3556    3.9820 C.ar    1  UNL1       -0.0611
     16 C           4.2553    1.3557    4.5951 C.ar    1  UNL1       -0.0522
     17 C           5.3645    1.6197    5.4488 C.ar    1  UNL1        0.0085
     18 C           6.1785    0.4316    5.8602 C.ar    1  UNL1       -0.0153
     19 C           7.5738    0.4545    5.9550 C.ar    1  UNL1       -0.0519
     20 C           8.3145   -0.6613    6.3549 C.ar    1  UNL1       -0.0350
     21 C           7.7386   -1.9067    6.4276 C.ar    1  UNL1        0.0768
     22 C           6.3777   -2.0194    6.1685 C.ar    1  UNL1        0.0316
     23 C           5.5947   -0.8402    6.0128 C.ar    1  UNL1       -0.0426
     24 C           5.9530   -3.3428    6.0397 C.ar    1  UNL1        0.1383
     25 N           6.7645   -4.4170    6.2018 N.ar    1  UNL1       -0.2094
     26 C           8.0283   -4.1619    6.5104 C.ar    1  UNL1        0.2138
     27 N           8.5418   -2.9451    6.6514 N.ar    1  UNL1       -0.2146
     28 N           8.8831   -5.2245    6.6583 N.pl3   1  UNL1       -0.3274
     29 C           4.6018   -3.6870    5.4725 C.2     1  UNL1        0.2660
     30 O           4.1223   -3.0036    4.5676 O.2     1  UNL1       -0.2683
     31 N           3.9859   -4.8285    5.9423 N.am    1  UNL1       -0.2914
     32 C           2.9271   -5.5011    5.2098 C.3     1  UNL1        0.0367
     33 C           2.8685   -6.8366    5.9018 C.2     1  UNL1       -0.0477
     34 C           2.0705   -7.8897    5.6546 C.2     1  UNL1       -0.0789
     35 C           2.0478   -9.0694    6.6040 C.3     1  UNL1       -0.0162
     36 C           2.4803   -8.6860    8.0049 C.2     1  UNL1       -0.0836
     37 C           3.2878   -7.6338    8.2321 C.2     1  UNL1       -0.0790
     38 C           3.8388   -6.8680    7.0654 C.3     1  UNL1        0.0154
     39 C           4.1407   -5.3978    7.2727 C.3     1  UNL1        0.0254
     40 H           9.2095    8.4230    6.4015 H       1  UNL1        0.0778
     41 H           9.6805    6.7199    6.0594 H       1  UNL1        0.0778
     42 H          10.3340    7.5677    7.5077 H       1  UNL1        0.0778
     43 H           7.3328    6.5481    5.7968 H       1  UNL1        0.0827
     44 H           6.7156    7.9593    6.6606 H       1  UNL1        0.0827
     45 H           5.0527    6.0020    6.7526 H       1  UNL1        0.0497
     46 H           5.5319    6.6239    8.2873 H       1  UNL1        0.0497
     47 H           7.6845    4.0426    9.4518 H       1  UNL1        0.0497
     48 H           6.9595    5.6004    9.7482 H       1  UNL1        0.0497
     49 H           9.2283    5.0516    7.7134 H       1  UNL1        0.0827
     50 H           9.3346    5.9797    9.2165 H       1  UNL1        0.0827
     51 H           5.2468    5.0196    5.0054 H       1  UNL1        0.0637
     52 H           3.3284    4.4564    3.6139 H       1  UNL1        0.0618
     53 H           2.6752    2.0849    3.3268 H       1  UNL1        0.0618
     54 H           3.9821    0.3324    4.3312 H       1  UNL1        0.0624
     55 H           8.1499    1.3448    5.7266 H       1  UNL1        0.0624
     56 H           9.3837   -0.5596    6.5260 H       1  UNL1        0.0639
     57 H           4.5146   -0.9576    5.9338 H       1  UNL1        0.0631
     58 H           8.3906   -6.0808    6.8588 H       1  UNL1        0.1452
     59 H           9.6819   -4.9811    7.2318 H       1  UNL1        0.1452
     60 H           3.1693   -5.5661    4.1455 H       1  UNL1        0.0511
     61 H           2.0023   -4.9334    5.3586 H       1  UNL1        0.0511
     62 H           1.3892   -7.9016    4.8097 H       1  UNL1        0.0575
     63 H           2.6950   -9.8694    6.2252 H       1  UNL1        0.0350
     64 H           1.0271   -9.4624    6.6524 H       1  UNL1        0.0350
     65 H           2.1193   -9.2899    8.8319 H       1  UNL1        0.0572
     66 H           3.5936   -7.3699    9.2389 H       1  UNL1        0.0576
     67 H           4.7621   -7.3589    6.7280 H       1  UNL1        0.0404
     68 H           5.1279   -5.2388    7.7077 H       1  UNL1        0.0474
     69 H           3.4106   -4.8992    7.9209 H       1  UNL1        0.0474
@<TRIPOS>BOND
     1     1     2    1
     2     2     3    1
     3     2     4    1
     4     4     5    1
     5     5     6    1
     6     6     7    1
     7     7     8    1
     8     2     8    1
     9     6     9    1
    10     9    10    2
    11     9    11    2
    12     9    12    1
    13    12    13   ar
    14    13    14   ar
    15    14    15   ar
    16    15    16   ar
    17    16    17   ar
    18    12    17   ar
    19    17    18    1
    20    18    19   ar
    21    19    20   ar
    22    20    21   ar
    23    21    22   ar
    24    22    23   ar
    25    18    23   ar
    26    22    24   ar
    27    24    25   ar
    28    25    26   ar
    29    26    27   ar
    30    21    27   ar
    31    26    28    1
    32    24    29    1
    33    29    30    2
    34    29    31   am
    35    31    32    1
    36    32    33    1
    37    33    34    2
    38    34    35    1
    39    35    36    1
    40    36    37    2
    41    37    38    1
    42    33    38    1
    43    38    39    1
    44    31    39    1
    45     1    40    1
    46     1    41    1
    47     1    42    1
    48     4    43    1
    49     4    44    1
    50     5    45    1
    51     5    46    1
    52     7    47    1
    53     7    48    1
    54     8    49    1
    55     8    50    1
    56    13    51    1
    57    14    52    1
    58    15    53    1
    59    16    54    1
    60    19    55    1
    61    20    56    1
    62    23    57    1
    63    28    58    1
    64    28    59    1
    65    32    60    1
    66    32    61    1
    67    34    62    1
    68    35    63    1
    69    35    64    1
    70    36    65    1
    71    37    66    1
    72    38    67    1
    73    39    68    1
    74    39    69    1
@<TRIPOS>MOLECULE
*****
 41 44 0 0 0
SMALL
GASTEIGER

@<TRIPOS>ATOM
      1 C           1.1062   -0.0891   -1.3522 C.3     1  UNL1       -0.0397
      2 C           2.5441   -0.0531   -0.9263 C.ar    1  UNL1       -0.0497
      3 C           3.2439    1.1474   -0.8692 C.ar    1  UNL1       -0.0568
      4 C           4.5856    1.1541   -0.4764 C.ar    1  UNL1       -0.0353
      5 C           5.2605   -0.0092   -0.1241 C.ar    1  UNL1        0.0768
      6 C           4.5707   -1.2203   -0.1378 C.ar    1  UNL1        0.0313
      7 C           3.2051   -1.2305   -0.5522 C.ar    1  UNL1       -0.0474
      8 C           5.3635   -2.3145    0.2696 C.ar    1  UNL1        0.1383
      9 N           6.6670   -2.2203    0.6183 N.ar    1  UNL1       -0.2094
     10 C           7.2055   -1.0154    0.5447 C.ar    1  UNL1        0.2138
     11 N           6.5494    0.0951    0.2164 N.ar    1  UNL1       -0.2146
     12 N           8.5408   -0.8970    0.8615 N.pl3   1  UNL1       -0.3274
     13 C           4.7722   -3.6886    0.4341 C.2     1  UNL1        0.2660
     14 O           3.6147   -3.7996    0.8406 O.2     1  UNL1       -0.2683
     15 N           5.5343   -4.8114    0.1337 N.am    1  UNL1       -0.2914
     16 C           4.9815   -6.1348    0.3511 C.3     1  UNL1        0.0367
     17 C           5.8589   -7.0109   -0.4865 C.2     1  UNL1       -0.0477
     18 C           5.8254   -8.3506   -0.5868 C.2     1  UNL1       -0.0789
     19 C           6.9068   -9.0933   -1.3320 C.3     1  UNL1       -0.0162
     20 C           8.1895   -8.2941   -1.4297 C.2     1  UNL1       -0.0836
     21 C           8.2091   -6.9510   -1.3217 C.2     1  UNL1       -0.0790
     22 C           6.9173   -6.1891   -1.1863 C.3     1  UNL1        0.0154
     23 C           6.8993   -4.8845   -0.3916 C.3     1  UNL1        0.0254
     24 H           0.7829    0.8796   -1.7477 H       1  UNL1        0.0278
     25 H           0.4662   -0.3406   -0.5012 H       1  UNL1        0.0278
     26 H           0.9632   -0.8316   -2.1439 H       1  UNL1        0.0278
     27 H           2.7637    2.0869   -1.1345 H       1  UNL1        0.0621
     28 H           5.1202    2.1018   -0.4439 H       1  UNL1        0.0639
     29 H           2.6512   -2.1681   -0.5842 H       1  UNL1        0.0627
     30 H           8.8231   -1.6538    1.4685 H       1  UNL1        0.1452
     31 H           8.7385    0.0433    1.1739 H       1  UNL1        0.1452
     32 H           3.9302   -6.1766    0.0574 H       1  UNL1        0.0511
     33 H           5.0903   -6.3707    1.4160 H       1  UNL1        0.0511
     34 H           5.0537   -8.9311   -0.0911 H       1  UNL1        0.0575
     35 H           6.5544   -9.3571   -2.3362 H       1  UNL1        0.0350
     36 H           7.1173  -10.0269   -0.7994 H       1  UNL1        0.0350
     37 H           9.1100   -8.8466   -1.5943 H       1  UNL1        0.0572
     38 H           9.1431   -6.4047   -1.4046 H       1  UNL1        0.0576
     39 H           6.5555   -5.9597   -2.1975 H       1  UNL1        0.0404
     40 H           7.1225   -4.0321   -1.0395 H       1  UNL1        0.0474
     41 H           7.5966   -4.8938    0.4542 H       1  UNL1        0.0474
@<TRIPOS>BOND
     1     1     2    1
     2     2     3   ar
     3     3     4   ar
     4     4     5   ar
     5     5     6   ar
     6     6     7   ar
     7     2     7   ar
     8     6     8   ar
     9     8     9   ar
    10     9    10   ar
    11    10    11   ar
    12     5    11   ar
    13    10    12    1
    14     8    13    1
    15    13    14    2
    16    13    15   am
    17    15    16    1
    18    16    17    1
    19    17    18    2
    20    18    19    1
    21    19    20    1
    22    20    21    2
    23    21    22    1
    24    17    22    1
    25    22    23    1
    26    15    23    1
    27     1    24    1
    28     1    25    1
    29     1    26    1
    30     3    27    1
    31     4    28    1
    32     7    29    1
    33    12    30    1
    34    12    31    1
    35    16    32    1
    36    16    33    1
    37    18    34    1
    38    19    35    1
    39    19    36    1
    40    20    37    1
    41    21    38    1
    42    22    39    1
    43    23    40    1
    44    23    41    1
@<TRIPOS>MOLECULE
*****
 57 61 0 0 0
SMALL
GASTEIGER

@<TRIPOS>ATOM
      1 C           8.2963    1.7042    4.0267 C.3     1  UNL1       -0.0445
      2 N           7.0434    2.4943    4.0815 N.4     1  UNL1        0.2281
      3 H           6.3346    1.9639    4.5993 H       1  UNL1        0.2014
      4 H           7.1793    3.3504    4.6375 H       1  UNL1        0.2014
      5 C           6.4866    2.8922    2.7561 C.3     1  UNL1       -0.0074
      6 C           6.0336    1.7431    1.8811 C.ar    1  UNL1        0.0047
      7 C           6.6411    1.6619    0.6044 C.ar    1  UNL1       -0.0530
      8 C           6.3617    0.6165   -0.2706 C.ar    1  UNL1       -0.0613
      9 C           5.4609   -0.3650    0.1043 C.ar    1  UNL1       -0.0612
     10 C           4.8225   -0.2864    1.3431 C.ar    1  UNL1       -0.0536
     11 C           5.0759    0.7594    2.2620 C.ar    1  UNL1       -0.0097
     12 C           4.3492    0.7430    3.5634 C.ar    1  UNL1       -0.0167
     13 C           4.1483   -0.4490    4.2728 C.ar    1  UNL1       -0.0520
     14 C           3.4703   -0.4636    5.5019 C.ar    1  UNL1       -0.0350
     15 C           3.0188    0.6985    6.1098 C.ar    1  UNL1        0.0768
     16 C           3.2406    1.9025    5.4537 C.ar    1  UNL1        0.0316
     17 C           3.8303    1.9014    4.1540 C.ar    1  UNL1       -0.0426
     18 C           2.8531    3.0214    6.2007 C.ar    1  UNL1        0.1383
     19 N           2.2413    2.9703    7.4029 N.ar    1  UNL1       -0.2094
     20 C           2.0104    1.7561    7.8811 C.ar    1  UNL1        0.2138
     21 N           2.4121    0.6257    7.3000 N.ar    1  UNL1       -0.2146
     22 N           1.3509    1.6615    9.0799 N.pl3   1  UNL1       -0.3274
     23 C           3.3192    4.3903    5.8016 C.2     1  UNL1        0.2660
     24 O           4.4689    4.4993    5.3585 O.2     1  UNL1       -0.2683
     25 N           2.4577    5.4593    5.9578 N.am    1  UNL1       -0.2914
     26 C           2.8966    6.8289    5.7356 C.3     1  UNL1        0.0367
     27 C           1.6269    7.5210    5.3526 C.2     1  UNL1       -0.0477
     28 C           1.4520    8.8251    5.0795 C.2     1  UNL1       -0.0789
     29 C           0.0655    9.3975    4.9043 C.3     1  UNL1       -0.0162
     30 C          -0.9956    8.5478    5.5731 C.2     1  UNL1       -0.0836
     31 C          -0.8046    7.2422    5.8488 C.2     1  UNL1       -0.0790
     32 C           0.4590    6.5592    5.4061 C.3     1  UNL1        0.0154
     33 C           1.0219    5.4121    6.2405 C.3     1  UNL1        0.0254
     34 H           8.5985    1.4997    5.0557 H       1  UNL1        0.0777
     35 H           9.0562    2.2962    3.5123 H       1  UNL1        0.0777
     36 H           8.0998    0.7663    3.5010 H       1  UNL1        0.0777
     37 H           7.2795    3.4731    2.2687 H       1  UNL1        0.0867
     38 H           5.6725    3.5986    2.9340 H       1  UNL1        0.0867
     39 H           7.3512    2.4193    0.2710 H       1  UNL1        0.0622
     40 H           6.8441    0.5687   -1.2451 H       1  UNL1        0.0618
     41 H           5.2407   -1.1898   -0.5716 H       1  UNL1        0.0618
     42 H           4.1014   -1.0701    1.5781 H       1  UNL1        0.0624
     43 H           4.4964   -1.4041    3.8794 H       1  UNL1        0.0624
     44 H           3.3026   -1.4168    6.0044 H       1  UNL1        0.0639
     45 H           3.8576    2.8422    3.6097 H       1  UNL1        0.0631
     46 H           1.4401    2.5012    9.6336 H       1  UNL1        0.1452
     47 H           1.5348    0.7792    9.5380 H       1  UNL1        0.1452
     48 H           3.6732    6.8830    4.9677 H       1  UNL1        0.0511
     49 H           3.2752    7.2123    6.6880 H       1  UNL1        0.0511
     50 H           2.2918    9.5117    5.0383 H       1  UNL1        0.0575
     51 H          -0.1615    9.5058    3.8371 H       1  UNL1        0.0350
     52 H           0.0428   10.3976    5.3502 H       1  UNL1        0.0350
     53 H          -1.9336    9.0306    5.8264 H       1  UNL1        0.0572
     54 H          -1.5919    6.6610    6.3185 H       1  UNL1        0.0576
     55 H           0.2931    6.1741    4.3905 H       1  UNL1        0.0404
     56 H           0.5919    4.4533    5.9305 H       1  UNL1        0.0474
     57 H           0.8685    5.5477    7.3167 H       1  UNL1        0.0474
@<TRIPOS>BOND
     1     1     2    1
     2     2     3    1
     3     2     4    1
     4     2     5    1
     5     5     6    1
     6     6     7   ar
     7     7     8   ar
     8     8     9   ar
     9     9    10   ar
    10    10    11   ar
    11     6    11   ar
    12    11    12    1
    13    12    13   ar
    14    13    14   ar
    15    14    15   ar
    16    15    16   ar
    17    16    17   ar
    18    12    17   ar
    19    16    18   ar
    20    18    19   ar
    21    19    20   ar
    22    20    21   ar
    23    15    21   ar
    24    20    22    1
    25    18    23    1
    26    23    24    2
    27    23    25   am
    28    25    26    1
    29    26    27    1
    30    27    28    2
    31    28    29    1
    32    29    30    1
    33    30    31    2
    34    31    32    1
    35    27    32    1
    36    32    33    1
    37    25    33    1
    38     1    34    1
    39     1    35    1
    40     1    36    1
    41     5    37    1
    42     5    38    1
    43     7    39    1
    44     8    40    1
    45     9    41    1
    46    10    42    1
    47    13    43    1
    48    14    44    1
    49    17    45    1
    50    22    46    1
    51    22    47    1
    52    26    48    1
    53    26    49    1
    54    28    50    1
    55    29    51    1
    56    29    52    1
    57    30    53    1
    58    31    54    1
    59    32    55    1
    60    33    56    1
    61    33    57    1
@<TRIPOS>MOLECULE
*****
 59 64 0 0 0
SMALL
GASTEIGER

@<TRIPOS>ATOM
      1 N           0.9334    0.3172   -0.0378 N.pl3   1  UNL1       -0.3274
      2 C           2.3007    0.3559    0.0878 C.ar    1  UNL1        0.2138
      3 N           2.9581   -0.7808   -0.0930 N.ar    1  UNL1       -0.2146
      4 C           4.2916   -0.7339   -0.1396 C.ar    1  UNL1        0.0768
      5 C           4.9366   -1.8843   -0.5183 C.ar    1  UNL1       -0.0350
      6 C           6.3232   -1.9219   -0.6945 C.ar    1  UNL1       -0.0520
      7 C           7.1785   -0.8553   -0.3529 C.ar    1  UNL1       -0.0168
      8 C           6.4967    0.3165    0.0119 C.ar    1  UNL1       -0.0426
      9 C           5.0511    0.4110    0.0692 C.ar    1  UNL1        0.0316
     10 C           4.2354    1.5440    0.2594 C.ar    1  UNL1        0.1383
     11 N           2.8770    1.5285    0.2920 N.ar    1  UNL1       -0.2094
     12 C           4.8330    2.9161    0.2917 C.2     1  UNL1        0.2660
     13 O           5.8538    3.1146    0.9611 O.2     1  UNL1       -0.2683
     14 N           4.2487    3.9181   -0.4745 N.am    1  UNL1       -0.2914
     15 C           4.8070    5.2587   -0.4652 C.3     1  UNL1        0.0367
     16 C           4.1774    5.8994   -1.6595 C.2     1  UNL1       -0.0477
     17 C           4.2733    7.1859   -2.0356 C.2     1  UNL1       -0.0789
     18 C           3.4169    7.7285   -3.1521 C.3     1  UNL1       -0.0162
     19 C           2.1654    6.9039   -3.3654 C.2     1  UNL1       -0.0836
     20 C           2.0807    5.6144   -2.9804 C.2     1  UNL1       -0.0790
     21 C           3.2815    4.9253   -2.3889 C.3     1  UNL1        0.0154
     22 C           3.0677    3.8354   -1.3428 C.3     1  UNL1        0.0254
     23 C           8.6791   -1.0688   -0.3799 C.ar    1  UNL1       -0.0118
     24 C           9.1200   -2.4271   -0.3204 C.ar    1  UNL1       -0.0156
     25 C          10.4490   -2.8204   -0.4386 C.ar    1  UNL1        0.1590
     26 F          10.7477   -4.1268   -0.4319 F       1  UNL1       -0.2025
     27 C          11.4309   -1.8741   -0.5697 C.ar    1  UNL1        0.1587
     28 C          11.0791   -0.5323   -0.5720 C.ar    1  UNL1       -0.0198
     29 C           9.7219   -0.0993   -0.4765 C.ar    1  UNL1       -0.0364
     30 C           9.5639    1.4115   -0.5318 C.3     1  UNL1       -0.0201
     31 C           9.5027    2.1469    0.8150 C.3     1  UNL1        0.0126
     32 C          10.6954    2.0437    1.6925 C.ar    1  UNL1        0.1489
     33 N          11.9681    1.9092    1.3927 N.ar    1  UNL1       -0.1136
     34 N          12.6483    1.9118    2.5890 N.ar    1  UNL1       -0.0232
     35 N          11.8155    2.0717    3.6102 N.ar    1  UNL1       -0.0466
     36 N          10.6022    2.1609    3.0590 N.ar    1  UNL1       -0.2427
     37 H           9.7897    2.3151    3.6426 H       1  UNL1        0.1920
     38 F          12.7148   -2.2342   -0.6897 F       1  UNL1       -0.2025
     39 H           0.5677   -0.6021    0.1664 H       1  UNL1        0.1452
     40 H           0.4785    1.1206    0.3659 H       1  UNL1        0.1452
     41 H           4.3508   -2.7746   -0.7374 H       1  UNL1        0.0639
     42 H           6.7065   -2.8450   -1.1250 H       1  UNL1        0.0624
     43 H           7.0473    1.2101    0.2578 H       1  UNL1        0.0631
     44 H           5.8932    5.2205   -0.5210 H       1  UNL1        0.0511
     45 H           4.4833    5.7460    0.4638 H       1  UNL1        0.0511
     46 H           4.9241    7.8767   -1.5081 H       1  UNL1        0.0575
     47 H           3.9961    7.7724   -4.0798 H       1  UNL1        0.0350
     48 H           3.1216    8.7524   -2.8972 H       1  UNL1        0.0350
     49 H           1.3225    7.3912   -3.8475 H       1  UNL1        0.0572
     50 H           1.1710    5.0470   -3.1557 H       1  UNL1        0.0576
     51 H           3.8562    4.4803   -3.2135 H       1  UNL1        0.0404
     52 H           3.0008    2.8521   -1.8219 H       1  UNL1        0.0474
     53 H           2.1722    4.0022   -0.7335 H       1  UNL1        0.0474
     54 H           8.4250   -3.2501   -0.1779 H       1  UNL1        0.0653
     55 H          11.8908    0.1888   -0.6595 H       1  UNL1        0.0650
     56 H           8.6826    1.6563   -1.1343 H       1  UNL1        0.0317
     57 H          10.3974    1.8320   -1.1199 H       1  UNL1        0.0317
     58 H           8.6409    1.8021    1.3918 H       1  UNL1        0.0347
     59 H           9.3402    3.2123    0.6079 H       1  UNL1        0.0347
@<TRIPOS>BOND
     1     1     2    1
     2     2     3   ar
     3     3     4   ar
     4     4     5   ar
     5     5     6   ar
     6     6     7   ar
     7     7     8   ar
     8     8     9   ar
     9     4     9   ar
    10     9    10   ar
    11    10    11   ar
    12     2    11   ar
    13    10    12    1
    14    12    13    2
    15    12    14   am
    16    14    15    1
    17    15    16    1
    18    16    17    2
    19    17    18    1
    20    18    19    1
    21    19    20    2
    22    20    21    1
    23    16    21    1
    24    21    22    1
    25    14    22    1
    26     7    23    1
    27    23    24   ar
    28    24    25   ar
    29    25    26    1
    30    25    27   ar
    31    27    28   ar
    32    28    29   ar
    33    23    29   ar
    34    29    30    1
    35    30    31    1
    36    31    32    1
    37    32    33   ar
    38    33    34   ar
    39    34    35   ar
    40    35    36   ar
    41    36    37    1
    42    32    36   ar
    43    27    38    1
    44     1    39    1
    45     1    40    1
    46     5    41    1
    47     6    42    1
    48     8    43    1
    49    15    44    1
    50    15    45    1
    51    17    46    1
    52    18    47    1
    53    18    48    1
    54    19    49    1
    55    20    50    1
    56    21    51    1
    57    22    52    1
    58    22    53    1
    59    24    54    1
    60    28    55    1
    61    30    56    1
    62    30    57    1
    63    31    58    1
    64    31    59    1
@<TRIPOS>MOLECULE
*****
 38 41 0 0 0
SMALL
GASTEIGER

@<TRIPOS>ATOM
      1 N           4.5301  -10.0248    1.1162 N.pl3   1  UNL1       -0.3274
      2 C           5.2209   -8.9918    1.7063 C.ar    1  UNL1        0.2138
      3 N           6.3762   -9.2689    2.2918 N.ar    1  UNL1       -0.2146
      4 C           7.0174   -8.2717    2.9069 C.ar    1  UNL1        0.0768
      5 C           8.1995   -8.5879    3.5595 C.ar    1  UNL1       -0.0356
      6 C           8.9247   -7.6382    4.2790 C.ar    1  UNL1       -0.0597
      7 C           8.4651   -6.3325    4.3419 C.ar    1  UNL1       -0.0610
      8 C           7.3007   -5.9818    3.6603 C.ar    1  UNL1       -0.0504
      9 C           6.5548   -6.9462    2.9270 C.ar    1  UNL1        0.0310
     10 C           5.3774   -6.7553    2.1815 C.ar    1  UNL1        0.1383
     11 N           4.7043   -7.7780    1.6053 N.ar    1  UNL1       -0.2094
     12 C           4.7576   -5.3886    1.9639 C.2     1  UNL1        0.2660
     13 O           4.9643   -4.4837    2.7769 O.2     1  UNL1       -0.2683
     14 N           3.9525   -5.1467    0.8453 N.am    1  UNL1       -0.2914
     15 C           3.6771   -6.0487   -0.2633 C.3     1  UNL1        0.0367
     16 C           2.5072   -5.4135   -0.9316 C.2     1  UNL1       -0.0477
     17 C           1.8365   -5.8686   -2.0014 C.2     1  UNL1       -0.0789
     18 C           0.7676   -5.0214   -2.6413 C.3     1  UNL1       -0.0162
     19 C           0.9602   -3.5470   -2.3458 C.2     1  UNL1       -0.0836
     20 C           1.6354   -3.1145   -1.2617 C.2     1  UNL1       -0.0790
     21 C           2.1421   -4.1125   -0.2544 C.3     1  UNL1        0.0154
     22 C           3.3928   -3.8224    0.5720 C.3     1  UNL1        0.0254
     23 H           5.1500  -10.7864    0.8824 H       1  UNL1        0.1452
     24 H           3.9005   -9.6893    0.4027 H       1  UNL1        0.1452
     25 H           8.5643   -9.6124    3.5175 H       1  UNL1        0.0639
     26 H           9.8375   -7.9273    4.7933 H       1  UNL1        0.0618
     27 H           9.0065   -5.5870    4.9192 H       1  UNL1        0.0618
     28 H           6.9676   -4.9486    3.7289 H       1  UNL1        0.0625
     29 H           3.3981   -7.0520    0.0470 H       1  UNL1        0.0511
     30 H           4.5576   -6.0604   -0.9138 H       1  UNL1        0.0511
     31 H           2.0778   -6.8262   -2.4510 H       1  UNL1        0.0575
     32 H          -0.2215   -5.3471   -2.2979 H       1  UNL1        0.0350
     33 H           0.8092   -5.1740   -3.7249 H       1  UNL1        0.0350
     34 H           0.5341   -2.8403   -3.0505 H       1  UNL1        0.0572
     35 H           1.7540   -2.0528   -1.0700 H       1  UNL1        0.0576
     36 H           1.3268   -4.3135    0.4558 H       1  UNL1        0.0404
     37 H           3.1569   -3.2968    1.5042 H       1  UNL1        0.0474
     38 H           4.1398   -3.2380    0.0227 H       1  UNL1        0.0474
@<TRIPOS>BOND
     1     1     2    1
     2     2     3   ar
     3     3     4   ar
     4     4     5   ar
     5     5     6   ar
     6     6     7   ar
     7     7     8   ar
     8     8     9   ar
     9     4     9   ar
    10     9    10   ar
    11    10    11   ar
    12     2    11   ar
    13    10    12    1
    14    12    13    2
    15    12    14   am
    16    14    15    1
    17    15    16    1
    18    16    17    2
    19    17    18    1
    20    18    19    1
    21    19    20    2
    22    20    21    1
    23    16    21    1
    24    21    22    1
    25    14    22    1
    26     1    23    1
    27     1    24    1
    28     5    25    1
    29     6    26    1
    30     7    27    1
    31     8    28    1
    32    15    29    1
    33    15    30    1
    34    17    31    1
    35    18    32    1
    36    18    33    1
    37    19    34    1
    38    20    35    1
    39    21    36    1
    40    22    37    1
    41    22    38    1
@<TRIPOS>MOLECULE
*****
 52 56 0 0 0
SMALL
GASTEIGER

@<TRIPOS>ATOM
      1 O           3.0483    0.4165   -6.1471 O.3     1  UNL1       -0.3904
      2 C           2.6288   -0.3720   -5.0355 C.3     1  UNL1        0.0698
      3 C           2.7884    0.3665   -3.7226 C.ar    1  UNL1       -0.0145
      4 C           2.6960    1.7782   -3.7557 C.ar    1  UNL1       -0.0558
      5 C           2.8878    2.5546   -2.6167 C.ar    1  UNL1       -0.0614
      6 C           3.1496    1.9332   -1.4095 C.ar    1  UNL1       -0.0612
      7 C           3.1828    0.5390   -1.3415 C.ar    1  UNL1       -0.0537
      8 C           2.9997   -0.2892   -2.4779 C.ar    1  UNL1       -0.0125
      9 C           3.0563   -1.7705   -2.2889 C.ar    1  UNL1       -0.0168
     10 C           2.2513   -2.6645   -2.9977 C.ar    1  UNL1       -0.0520
     11 C           2.3703   -4.0489   -2.8242 C.ar    1  UNL1       -0.0350
     12 C           3.2184   -4.6014   -1.8829 C.ar    1  UNL1        0.0768
     13 C           3.9759   -3.7552   -1.0778 C.ar    1  UNL1        0.0316
     14 C           3.9116   -2.3483   -1.3284 C.ar    1  UNL1       -0.0426
     15 C           4.7068   -4.4288   -0.0810 C.ar    1  UNL1        0.1383
     16 N           4.7445   -5.7741    0.0122 N.ar    1  UNL1       -0.2094
     17 C           4.0263   -6.4589   -0.8668 C.ar    1  UNL1        0.2138
     18 N           3.2378   -5.9269   -1.7862 N.ar    1  UNL1       -0.2146
     19 N           4.0440   -7.8357   -0.7667 N.pl3   1  UNL1       -0.3274
     20 C           5.4931   -3.6821    0.9776 C.2     1  UNL1        0.2660
     21 O           6.0049   -2.5996    0.6861 O.2     1  UNL1       -0.2683
     22 N           5.6358   -4.1931    2.2667 N.am    1  UNL1       -0.2914
     23 C           5.1695   -5.4575    2.8101 C.3     1  UNL1        0.0367
     24 C           6.2293   -5.7747    3.8180 C.2     1  UNL1       -0.0477
     25 C           6.3864   -6.9040    4.5275 C.2     1  UNL1       -0.0789
     26 C           7.4281   -6.9726    5.6164 C.3     1  UNL1       -0.0162
     27 C           7.7822   -5.5983    6.1525 C.2     1  UNL1       -0.0836
     28 C           7.6227   -4.4798    5.4150 C.2     1  UNL1       -0.0790
     29 C           7.1775   -4.6061    3.9833 C.3     1  UNL1        0.0154
     30 C           6.4150   -3.4828    3.2866 C.3     1  UNL1        0.0254
     31 H           3.0500   -0.1732   -6.9191 H       1  UNL1        0.2098
     32 H           3.2402   -1.2775   -5.0539 H       1  UNL1        0.0607
     33 H           1.5737   -0.6231   -5.1868 H       1  UNL1        0.0607
     34 H           2.4929    2.2849   -4.6983 H       1  UNL1        0.0621
     35 H           2.8399    3.6381   -2.6802 H       1  UNL1        0.0618
     36 H           3.3234    2.5230   -0.5138 H       1  UNL1        0.0618
     37 H           3.3595    0.1022   -0.3598 H       1  UNL1        0.0624
     38 H           1.5050   -2.3143   -3.7038 H       1  UNL1        0.0624
     39 H           1.7618   -4.7110   -3.4380 H       1  UNL1        0.0639
     40 H           4.5593   -1.6895   -0.7553 H       1  UNL1        0.0631
     41 H           4.2768   -8.1375    0.1691 H       1  UNL1        0.1452
     42 H           3.2150   -8.2314   -1.1895 H       1  UNL1        0.1452
     43 H           5.0646   -6.2673    2.0992 H       1  UNL1        0.0511
     44 H           4.2116   -5.2620    3.3061 H       1  UNL1        0.0511
     45 H           5.7412   -7.7619    4.3711 H       1  UNL1        0.0575
     46 H           8.3290   -7.4722    5.2411 H       1  UNL1        0.0350
     47 H           7.0296   -7.5781    6.4370 H       1  UNL1        0.0350
     48 H           8.1741   -5.5431    7.1638 H       1  UNL1        0.0572
     49 H           7.8903   -3.5073    5.8142 H       1  UNL1        0.0576
     50 H           8.0722   -4.8045    3.3761 H       1  UNL1        0.0404
     51 H           7.0894   -2.7404    2.8478 H       1  UNL1        0.0474
     52 H           5.7155   -2.9685    3.9569 H       1  UNL1        0.0474
@<TRIPOS>BOND
     1     1     2    1
     2     2     3    1
     3     3     4   ar
     4     4     5   ar
     5     5     6   ar
     6     6     7   ar
     7     7     8   ar
     8     3     8   ar
     9     8     9    1
    10     9    10   ar
    11    10    11   ar
    12    11    12   ar
    13    12    13   ar
    14    13    14   ar
    15     9    14   ar
    16    13    15   ar
    17    15    16   ar
    18    16    17   ar
    19    17    18   ar
    20    12    18   ar
    21    17    19    1
    22    15    20    1
    23    20    21    2
    24    20    22   am
    25    22    23    1
    26    23    24    1
    27    24    25    2
    28    25    26    1
    29    26    27    1
    30    27    28    2
    31    28    29    1
    32    24    29    1
    33    29    30    1
    34    22    30    1
    35     1    31    1
    36     2    32    1
    37     2    33    1
    38     4    34    1
    39     5    35    1
    40     6    36    1
    41     7    37    1
    42    10    38    1
    43    11    39    1
    44    14    40    1
    45    19    41    1
    46    19    42    1
    47    23    43    1
    48    23    44    1
    49    25    45    1
    50    26    46    1
    51    26    47    1
    52    27    48    1
    53    28    49    1
    54    29    50    1
    55    30    51    1
    56    30    52    1
@<TRIPOS>MOLECULE
*****
 53 55 0 0 0
SMALL
GASTEIGER

@<TRIPOS>ATOM
      1 C           4.0522    4.5083    3.7755 C.3     1  UNL1        0.0788
      2 O           4.8067    3.4462    3.2087 O.3     1  UNL1       -0.4945
      3 C           5.6802    3.6945    2.1801 C.ar    1  UNL1        0.1291
      4 C           6.6160    4.7298    2.1423 C.ar    1  UNL1        0.0095
      5 C           6.8537    5.7696    3.1981 C.3     1  UNL1       -0.0348
      6 C           7.4844    4.7178    1.0492 C.ar    1  UNL1        0.0343
      7 N           7.4629    3.8264    0.0236 N.ar    1  UNL1       -0.2573
      8 C           6.5422    2.8291    0.0603 C.ar    1  UNL1        0.0673
      9 C           5.6620    2.7086    1.1497 C.ar    1  UNL1        0.0145
     10 C           4.6315    1.6174    1.2170 C.3     1  UNL1       -0.0345
     11 C           6.4280    1.9817   -1.2024 C.3     1  UNL1        0.0671
     12 N           7.1666    0.7137   -1.2060 N.ar    1  UNL1       -0.3247
     13 C           8.5265    0.5875   -1.4336 C.ar    1  UNL1        0.0230
     14 C           8.8347   -0.7577   -1.4963 C.ar    1  UNL1        0.0546
     15 C           7.6245   -1.4841   -1.3314 C.ar    1  UNL1        0.0711
     16 C           6.6003   -0.5489   -1.2266 C.ar    1  UNL1        0.1488
     17 N           5.2864   -0.8400   -1.1471 N.ar    1  UNL1       -0.1965
     18 C           5.0237   -2.1570   -1.1136 C.ar    1  UNL1        0.2158
     19 N           3.7053   -2.5458   -0.9434 N.pl3   1  UNL1       -0.3274
     20 N           5.9164   -3.1455   -1.1473 N.ar    1  UNL1       -0.2023
     21 C           7.2037   -2.8049   -1.2793 C.ar    1  UNL1        0.1447
     22 CL          8.3349   -4.0709   -1.3126 Cl      1  UNL1       -0.0611
     23 C          10.1274   -1.3215   -1.7603 C.1     1  UNL1       -0.0640
     24 C          11.1163   -1.9455   -2.0360 C.1     1  UNL1       -0.0941
     25 C          12.2209   -2.8362   -2.4251 C.3     1  UNL1        0.0378
     26 C          12.2966   -3.0546   -3.9543 C.3     1  UNL1        0.0713
     27 O          11.0937   -3.6654   -4.4376 O.3     1  UNL1       -0.3882
     28 C          12.5171   -1.7431   -4.7131 C.3     1  UNL1       -0.0354
     29 C          13.4261   -4.0352   -4.2814 C.3     1  UNL1       -0.0354
     30 H           3.0069    4.1891    3.8455 H       1  UNL1        0.0660
     31 H           4.0717    5.4383    3.1998 H       1  UNL1        0.0660
     32 H           4.4058    4.6725    4.7991 H       1  UNL1        0.0660
     33 H           6.0312    5.9070    3.8967 H       1  UNL1        0.0279
     34 H           7.0159    6.7505    2.7347 H       1  UNL1        0.0279
     35 H           7.7369    5.5108    3.7894 H       1  UNL1        0.0279
     36 H           8.2722    5.4660    0.9659 H       1  UNL1        0.0833
     37 H           4.9489    0.7365    0.6688 H       1  UNL1        0.0279
     38 H           3.6820    1.9743    0.8093 H       1  UNL1        0.0279
     39 H           4.4821    1.2726    2.2444 H       1  UNL1        0.0279
     40 H           6.8171    2.5556   -2.0543 H       1  UNL1        0.0557
     41 H           5.3775    1.7780   -1.4349 H       1  UNL1        0.0557
     42 H           9.1466    1.4685   -1.5456 H       1  UNL1        0.0822
     43 H           3.1802   -1.7890   -0.5318 H       1  UNL1        0.1452
     44 H           3.6901   -3.4359   -0.4565 H       1  UNL1        0.1452
     45 H          12.0598   -3.8022   -1.9294 H       1  UNL1        0.0425
     46 H          13.1664   -2.4296   -2.0505 H       1  UNL1        0.0425
     47 H          10.3475   -3.0830   -4.2102 H       1  UNL1        0.2102
     48 H          11.6720   -1.0582   -4.5846 H       1  UNL1        0.0257
     49 H          12.5953   -1.9262   -5.7906 H       1  UNL1        0.0257
     50 H          13.4292   -1.2377   -4.3797 H       1  UNL1        0.0257
     51 H          13.2506   -5.0073   -3.8079 H       1  UNL1        0.0257
     52 H          14.4001   -3.6580   -3.9520 H       1  UNL1        0.0257
     53 H          13.4770   -4.2258   -5.3607 H       1  UNL1        0.0257
@<TRIPOS>BOND
     1     1     2    1
     2     2     3    1
     3     3     4   ar
     4     4     5    1
     5     4     6   ar
     6     6     7   ar
     7     7     8   ar
     8     8     9   ar
     9     3     9   ar
    10     9    10    1
    11     8    11    1
    12    11    12    1
    13    12    13   ar
    14    13    14   ar
    15    14    15   ar
    16    15    16   ar
    17    12    16   ar
    18    16    17   ar
    19    17    18   ar
    20    18    19    1
    21    18    20   ar
    22    20    21   ar
    23    15    21   ar
    24    21    22    1
    25    14    23    1
    26    23    24    3
    27    24    25    1
    28    25    26    1
    29    26    27    1
    30    26    28    1
    31    26    29    1
    32     1    30    1
    33     1    31    1
    34     1    32    1
    35     5    33    1
    36     5    34    1
    37     5    35    1
    38     6    36    1
    39    10    37    1
    40    10    38    1
    41    10    39    1
    42    11    40    1
    43    11    41    1
    44    13    42    1
    45    19    43    1
    46    19    44    1
    47    25    45    1
    48    25    46    1
    49    27    47    1
    50    28    48    1
    51    28    49    1
    52    28    50    1
    53    29    51    1
    54    29    52    1
    55    29    53    1
@<TRIPOS>MOLECULE
*****
 40 42 0 0 0
SMALL
GASTEIGER

@<TRIPOS>ATOM
      1 N           6.1453    0.5617    4.2766 N.pl3   1  UNL1       -0.3274
      2 C           6.0568    0.3999    2.9074 C.ar    1  UNL1        0.2147
      3 N           6.2694   -0.8428    2.4502 N.ar    1  UNL1       -0.2192
      4 C           6.1959   -1.0851    1.1138 C.ar    1  UNL1        0.0525
      5 C           6.4756   -2.4786    0.6474 C.3     1  UNL1       -0.0215
      6 C           5.8833   -0.0155    0.2642 C.ar    1  UNL1        0.0400
      7 C           5.6492    1.2142    0.8668 C.ar    1  UNL1        0.1464
      8 N           5.7266    1.4752    2.1821 N.ar    1  UNL1       -0.1966
      9 N           5.3479    2.1236   -0.1234 N.ar    1  UNL1       -0.3259
     10 C           5.4410    1.4998   -1.3495 C.ar    1  UNL1        0.0076
     11 C           5.7546    0.1745   -1.1368 C.ar    1  UNL1       -0.0331
     12 C           5.1920    3.5621    0.0626 C.3     1  UNL1        0.0670
     13 C           3.7578    4.0450   -0.0154 C.ar    1  UNL1        0.0641
     14 N           3.3075    4.2978   -1.2720 N.ar    1  UNL1       -0.2575
     15 C           2.0775    4.8351   -1.4110 C.ar    1  UNL1        0.0311
     16 C           1.2301    5.1581   -0.3588 C.ar    1  UNL1       -0.0292
     17 C           1.6779    4.8793    0.9452 C.ar    1  UNL1       -0.0414
     18 C           2.9704    4.3182    1.1258 C.ar    1  UNL1       -0.0242
     19 C           3.5176    4.0389    2.5016 C.3     1  UNL1       -0.0377
     20 C           0.8046    5.1852    2.1388 C.3     1  UNL1       -0.0391
     21 C          -0.1007    5.7865   -0.6569 C.3     1  UNL1       -0.0380
     22 H           6.0109   -0.3375    4.7187 H       1  UNL1        0.1452
     23 H           5.5453    1.3172    4.5718 H       1  UNL1        0.1452
     24 H           6.6494   -3.1490    1.4957 H       1  UNL1        0.0293
     25 H           7.3662   -2.4905    0.0123 H       1  UNL1        0.0293
     26 H           5.6256   -2.8636    0.0759 H       1  UNL1        0.0293
     27 H           5.2859    2.0569   -2.2655 H       1  UNL1        0.0810
     28 H           5.9036   -0.5693   -1.9089 H       1  UNL1        0.0640
     29 H           5.7671    4.0403   -0.7419 H       1  UNL1        0.0557
     30 H           5.6871    3.8533    0.9932 H       1  UNL1        0.0557
     31 H           1.7876    5.0203   -2.4437 H       1  UNL1        0.0832
     32 H           2.8301    4.3047    3.3073 H       1  UNL1        0.0278
     33 H           4.4312    4.6167    2.6722 H       1  UNL1        0.0278
     34 H           3.7197    2.9723    2.6121 H       1  UNL1        0.0278
     35 H          -0.1661    5.6088    1.8689 H       1  UNL1        0.0278
     36 H           1.2963    5.9156    2.7899 H       1  UNL1        0.0278
     37 H           0.6002    4.2670    2.6994 H       1  UNL1        0.0278
     38 H          -0.2347    5.9632   -1.7299 H       1  UNL1        0.0278
     39 H          -0.1842    6.7585   -0.1599 H       1  UNL1        0.0278
     40 H          -0.9151    5.1336   -0.3274 H       1  UNL1        0.0278
@<TRIPOS>BOND
     1     1     2    1
     2     2     3   ar
     3     3     4   ar
     4     4     5    1
     5     4     6   ar
     6     6     7   ar
     7     7     8   ar
     8     2     8   ar
     9     7     9   ar
    10     9    10   ar
    11    10    11   ar
    12     6    11   ar
    13     9    12    1
    14    12    13    1
    15    13    14   ar
    16    14    15   ar
    17    15    16   ar
    18    16    17   ar
    19    17    18   ar
    20    13    18   ar
    21    18    19    1
    22    17    20    1
    23    16    21    1
    24     1    22    1
    25     1    23    1
    26     5    24    1
    27     5    25    1
    28     5    26    1
    29    10    27    1
    30    11    28    1
    31    12    29    1
    32    12    30    1
    33    15    31    1
    34    19    32    1
    35    19    33    1
    36    19    34    1
    37    20    35    1
    38    20    36    1
    39    20    37    1
    40    21    38    1
    41    21    39    1
    42    21    40    1
@<TRIPOS>MOLECULE
*****
 51 53 0 0 0
SMALL
GASTEIGER

@<TRIPOS>ATOM
      1 C           1.3856   -4.6065   -1.5706 C.1     1  UNL1       -0.1192
      2 C           2.1402   -4.2725   -2.4458 C.1     1  UNL1       -0.1055
      3 C           3.0552   -3.9026   -3.5362 C.3     1  UNL1        0.0105
      4 C           3.6484   -2.5053   -3.3674 C.3     1  UNL1       -0.0240
      5 C           4.4741   -2.2805   -2.0902 C.3     1  UNL1        0.0272
      6 N           5.6752   -3.0796   -1.9447 N.ar    1  UNL1       -0.3120
      7 C           5.9888   -3.9823   -0.9400 C.ar    1  UNL1        0.1164
      8 C           5.0826   -4.4387    0.1749 C.3     1  UNL1        0.0325
      9 C           4.7597   -5.9316    0.1148 C.ar    1  UNL1       -0.0146
     10 C           4.6962   -6.5411   -1.1448 C.ar    1  UNL1       -0.0111
     11 C           4.4012   -7.8859   -1.3025 C.ar    1  UNL1        0.1655
     12 O           4.3455   -8.4807   -2.5427 O.3     1  UNL1       -0.4913
     13 C           5.1769   -7.9129   -3.5542 C.3     1  UNL1        0.0790
     14 C           4.0891   -8.6657   -0.1717 C.ar    1  UNL1        0.2050
     15 C           4.1245   -8.0866    1.1311 C.ar    1  UNL1        0.1838
     16 C           4.4631   -6.7105    1.2577 C.ar    1  UNL1        0.0900
     17 CL          4.5166   -5.8762    2.7839 Cl      1  UNL1       -0.0793
     18 O           3.8110   -8.9590    2.1367 O.3     1  UNL1       -0.4900
     19 C           3.8026   -8.6316    3.5111 C.3     1  UNL1        0.0790
     20 O           3.7778   -9.9661   -0.5063 O.3     1  UNL1       -0.4885
     21 C           3.3918  -10.9055    0.4803 C.3     1  UNL1        0.0791
     22 N           7.2023   -4.4805   -1.1166 N.ar    1  UNL1       -0.2268
     23 C           7.6988   -3.8711   -2.2343 C.ar    1  UNL1        0.1477
     24 C           6.7810   -2.9838   -2.7613 C.ar    1  UNL1        0.1684
     25 N           6.9518   -2.2084   -3.8437 N.ar    1  UNL1       -0.1822
     26 C           8.1725   -2.4044   -4.3973 C.ar    1  UNL1        0.3127
     27 F           8.4517   -1.6585   -5.4765 F       1  UNL1       -0.1610
     28 N           9.1400   -3.2644   -4.0047 N.ar    1  UNL1       -0.1852
     29 C           8.9264   -4.0083   -2.9028 C.ar    1  UNL1        0.1500
     30 N           9.9076   -4.8900   -2.4781 N.pl3   1  UNL1       -0.3412
     31 H           0.7169   -4.9256   -0.8074 H       1  UNL1        0.1228
     32 H           2.5033   -3.9317   -4.4852 H       1  UNL1        0.0398
     33 H           3.8575   -4.6413   -3.6318 H       1  UNL1        0.0398
     34 H           2.8301   -1.7731   -3.3698 H       1  UNL1        0.0291
     35 H           4.2590   -2.2809   -4.2495 H       1  UNL1        0.0291
     36 H           3.8438   -2.4178   -1.2099 H       1  UNL1        0.0493
     37 H           4.8043   -1.2351   -2.0645 H       1  UNL1        0.0493
     38 H           4.1400   -3.8881    0.2051 H       1  UNL1        0.0392
     39 H           5.6294   -4.2013    1.0943 H       1  UNL1        0.0392
     40 H           4.8831   -5.9370   -2.0223 H       1  UNL1        0.0659
     41 H           5.0819   -8.5262   -4.4552 H       1  UNL1        0.0660
     42 H           6.2286   -7.9163   -3.2478 H       1  UNL1        0.0660
     43 H           4.8556   -6.9042   -3.8321 H       1  UNL1        0.0660
     44 H           3.5188   -9.5363    4.0592 H       1  UNL1        0.0660
     45 H           3.0399   -7.8821    3.7379 H       1  UNL1        0.0660
     46 H           4.7998   -8.3520    3.8615 H       1  UNL1        0.0660
     47 H           3.1502  -11.8421   -0.0320 H       1  UNL1        0.0660
     48 H           2.4849  -10.5893    1.0056 H       1  UNL1        0.0660
     49 H           4.2179  -11.1207    1.1651 H       1  UNL1        0.0660
     50 H          10.5543   -5.1567   -3.2146 H       1  UNL1        0.1438
     51 H           9.5688   -5.6193   -1.8580 H       1  UNL1        0.1438
@<TRIPOS>BOND
     1     1     2    3
     2     2     3    1
     3     3     4    1
     4     4     5    1
     5     5     6    1
     6     6     7   ar
     7     7     8    1
     8     8     9    1
     9     9    10   ar
    10    10    11   ar
    11    11    12    1
    12    12    13    1
    13    11    14   ar
    14    14    15   ar
    15    15    16   ar
    16     9    16   ar
    17    16    17    1
    18    15    18    1
    19    18    19    1
    20    14    20    1
    21    20    21    1
    22     7    22   ar
    23    22    23   ar
    24    23    24   ar
    25     6    24   ar
    26    24    25   ar
    27    25    26   ar
    28    26    27    1
    29    26    28   ar
    30    28    29   ar
    31    23    29   ar
    32    29    30    1
    33     1    31    1
    34     3    32    1
    35     3    33    1
    36     4    34    1
    37     4    35    1
    38     5    36    1
    39     5    37    1
    40     8    38    1
    41     8    39    1
    42    10    40    1
    43    13    41    1
    44    13    42    1
    45    13    43    1
    46    19    44    1
    47    19    45    1
    48    19    46    1
    49    21    47    1
    50    21    48    1
    51    21    49    1
    52    30    50    1
    53    30    51    1
@<TRIPOS>MOLECULE
*****
 59 62 0 0 0
SMALL
GASTEIGER

@<TRIPOS>ATOM
      1 N           0.8683    1.2879   -0.1457 N.1     1  UNL1       -0.1956
      2 C           2.0000    1.3691    0.0863 C.1     1  UNL1        0.0741
      3 C           3.4299    1.3961    0.4383 C.3     1  UNL1        0.0828
      4 C           3.5922    2.1018    1.7745 C.2     1  UNL1       -0.0619
      5 C           4.0497    1.5110    2.8968 C.2     1  UNL1       -0.0347
      6 C           4.5866    0.1027    2.9472 C.3     1  UNL1        0.0173
      7 C           4.3236   -0.6272    1.6537 C.2     1  UNL1       -0.0347
      8 C           3.9006   -0.0460    0.5160 C.2     1  UNL1       -0.0619
      9 N           6.0827    0.1122    3.3249 N.4     1  UNL1        0.2505
     10 H           6.0487    0.1592    4.3560 H       1  UNL1        0.2047
     11 C           6.8994    1.3319    2.9004 C.3     1  UNL1        0.0103
     12 C           7.1707    1.3280    1.3803 C.3     1  UNL1        0.0095
     13 N           7.8517    0.0291    0.9182 N.4     1  UNL1        0.2427
     14 H           7.7040   -0.0140   -0.1049 H       1  UNL1        0.2038
     15 C           7.2317   -1.2506    1.4883 C.3     1  UNL1        0.0095
     16 C           6.8608   -1.1551    2.9945 C.3     1  UNL1        0.0103
     17 C           9.3424    0.1311    1.0762 C.3     1  UNL1       -0.0315
     18 C          10.0563   -1.0882    0.5109 C.3     1  UNL1       -0.0122
     19 C          11.5567   -0.9601    0.6846 C.3     1  UNL1       -0.0442
     20 C          11.9271   -0.8237    2.1669 C.3     1  UNL1       -0.0255
     21 C          13.3846   -0.7096    2.3317 C.ar    1  UNL1       -0.0223
     22 C          14.2560   -1.7539    2.5565 C.ar    1  UNL1        0.0059
     23 N          15.5259   -1.2403    2.5808 N.ar    1  UNL1       -0.3603
     24 H          16.3700   -1.7834    2.7051 H       1  UNL1        0.1653
     25 C          15.4937    0.1176    2.3608 C.ar    1  UNL1        0.0503
     26 C          14.1583    0.4855    2.2258 C.ar    1  UNL1        0.0043
     27 C          13.8479    1.8423    1.9947 C.ar    1  UNL1       -0.0314
     28 C          14.8850    2.7861    1.8943 C.ar    1  UNL1        0.0938
     29 C          14.5244    4.1484    1.6402 C.1     1  UNL1        0.1028
     30 N          14.1840    5.2378    1.4311 N.1     1  UNL1       -0.1907
     31 C          16.2119    2.3757    2.0293 C.ar    1  UNL1        0.1361
     32 C          16.5397    1.0425    2.2674 C.ar    1  UNL1        0.0050
     33 O          17.2858    3.2194    1.9428 O.3     1  UNL1       -0.5054
     34 H           4.0099    1.9262   -0.3266 H       1  UNL1        0.0541
     35 H           3.2443    3.1356    1.8175 H       1  UNL1        0.0587
     36 H           4.0309    2.0773    3.8276 H       1  UNL1        0.0629
     37 H           4.0850   -0.4460    3.7530 H       1  UNL1        0.0946
     38 H           4.4384   -1.7111    1.6535 H       1  UNL1        0.0629
     39 H           3.7728   -0.6498   -0.3853 H       1  UNL1        0.0587
     40 H           7.8406    1.2740    3.4609 H       1  UNL1        0.0868
     41 H           6.3939    2.2403    3.2379 H       1  UNL1        0.0868
     42 H           7.8183    2.1664    1.1017 H       1  UNL1        0.0868
     43 H           6.2553    1.4147    0.7977 H       1  UNL1        0.0868
     44 H           7.9023   -2.0936    1.3367 H       1  UNL1        0.0868
     45 H           6.3905   -1.4684    0.8356 H       1  UNL1        0.0868
     46 H           7.7771   -1.1129    3.5967 H       1  UNL1        0.0868
     47 H           6.2739   -2.0143    3.3330 H       1  UNL1        0.0868
     48 H           9.6596    1.0322    0.5378 H       1  UNL1        0.0814
     49 H           9.5137    0.2702    2.1444 H       1  UNL1        0.0814
     50 H           9.8064   -1.2204   -0.5478 H       1  UNL1        0.0317
     51 H           9.7703   -2.0074    1.0276 H       1  UNL1        0.0317
     52 H          11.9253   -0.1027    0.1107 H       1  UNL1        0.0270
     53 H          12.0354   -1.8539    0.2644 H       1  UNL1        0.0270
     54 H          11.5389   -1.6806    2.7328 H       1  UNL1        0.0314
     55 H          11.4728    0.0671    2.6118 H       1  UNL1        0.0314
     56 H          14.0857   -2.8144    2.6729 H       1  UNL1        0.0810
     57 H          12.8141    2.1575    1.8898 H       1  UNL1        0.0638
     58 H          17.5726    0.7270    2.3707 H       1  UNL1        0.0675
     59 H          17.0167    4.1439    1.8055 H       1  UNL1        0.2922
@<TRIPOS>BOND
     1     1     2    3
     2     2     3    1
     3     3     4    1
     4     4     5    2
     5     5     6    1
     6     6     7    1
     7     7     8    2
     8     3     8    1
     9     6     9    1
    10     9    10    1
    11     9    11    1
    12    11    12    1
    13    12    13    1
    14    13    15    1
    15    15    16    1
    16     9    16    1
    17    17    18    1
    18    18    19    1
    19    19    20    1
    20    20    21    1
    21    21    22   ar
    22    22    23   ar
    23    23    24    1
    24    23    25   ar
    25    25    26   ar
    26    21    26   ar
    27    26    27   ar
    28    27    28   ar
    29    28    29    1
    30    29    30    3
    31    28    31   ar
    32    31    32   ar
    33    25    32   ar
    34    31    33    1
    35    13    17    1
    36    13    14    1
    37     3    34    1
    38     4    35    1
    39     5    36    1
    40     6    37    1
    41     7    38    1
    42     8    39    1
    43    11    40    1
    44    11    41    1
    45    12    42    1
    46    12    43    1
    47    15    44    1
    48    15    45    1
    49    16    46    1
    50    16    47    1
    51    17    48    1
    52    17    49    1
    53    18    50    1
    54    18    51    1
    55    19    52    1
    56    19    53    1
    57    20    54    1
    58    20    55    1
    59    22    56    1
    60    27    57    1
    61    32    58    1
    62    33    59    1
@<TRIPOS>MOLECULE
*****
 55 58 0 0 0
SMALL
GASTEIGER

@<TRIPOS>ATOM
      1 C           2.9673    1.6089   -2.2643 C.3     1  UNL1       -0.0649
      2 C           2.4720    2.1558   -0.9285 C.3     1  UNL1       -0.0504
      3 C           2.9403    1.3409    0.2929 C.3     1  UNL1       -0.0083
      4 C           4.4304    1.3283    0.4329 C.ar    1  UNL1        0.0705
      5 N           5.0888    2.4891    0.5617 N.ar    1  UNL1       -0.1777
      6 N           6.3697    2.1502    0.3600 N.ar    1  UNL1       -0.2766
      7 H           7.0684    2.8840    0.3644 H       1  UNL1        0.1889
      8 C           6.5526    0.8244    0.0707 C.ar    1  UNL1        0.0695
      9 C           5.3209    0.2266    0.2935 C.ar    1  UNL1        0.0236
     10 C           5.2310   -1.1797    0.2319 C.ar    1  UNL1       -0.0351
     11 C           6.3525   -1.9361   -0.1782 C.ar    1  UNL1        0.0793
     12 C           7.4583   -1.2343   -0.6702 C.ar    1  UNL1        0.1310
     13 C           7.6446    0.1296   -0.4244 C.ar    1  UNL1        0.0060
     14 O           8.3924   -1.7661   -1.5166 O.3     1  UNL1       -0.5059
     15 C           6.2051   -3.4328   -0.1326 C.2     1  UNL1        0.2541
     16 O           5.0594   -3.8618   -0.2976 O.2     1  UNL1       -0.2695
     17 N           7.2888   -4.3240    0.0720 N.am    1  UNL1       -0.2704
     18 C           8.6405   -3.9549    0.3045 C.ar    1  UNL1        0.0364
     19 C           8.9941   -3.0503    1.3043 C.ar    1  UNL1       -0.0385
     20 C          10.2585   -2.4372    1.2868 C.ar    1  UNL1       -0.0389
     21 C          11.1787   -2.6962    0.2625 C.ar    1  UNL1        0.0299
     22 C          10.8589   -3.7371   -0.6246 C.ar    1  UNL1       -0.0389
     23 C           9.6212   -4.3845   -0.5934 C.ar    1  UNL1       -0.0385
     24 N          12.3726   -2.0061    0.0955 N.pl3   1  UNL1       -0.3255
     25 C          12.9234   -1.1479    1.1573 C.3     1  UNL1        0.0357
     26 C          14.4376   -1.0105    0.9107 C.3     1  UNL1        0.0634
     27 O          14.7162   -0.4418   -0.3824 O.3     1  UNL1       -0.3767
     28 C          14.1457   -1.2555   -1.4235 C.3     1  UNL1        0.0634
     29 C          12.6266   -1.4164   -1.2442 C.3     1  UNL1        0.0357
     30 C           7.0303   -5.7580   -0.0636 C.3     1  UNL1        0.0086
     31 H           2.5948    2.2299   -3.0863 H       1  UNL1        0.0230
     32 H           2.6144    0.5860   -2.4264 H       1  UNL1        0.0230
     33 H           4.0603    1.6110   -2.3251 H       1  UNL1        0.0230
     34 H           1.3762    2.1730   -0.9443 H       1  UNL1        0.0266
     35 H           2.8004    3.1987   -0.8347 H       1  UNL1        0.0266
     36 H           2.5573    0.3174    0.2092 H       1  UNL1        0.0329
     37 H           2.4987    1.7740    1.1981 H       1  UNL1        0.0329
     38 H           4.2944   -1.6723    0.4836 H       1  UNL1        0.0633
     39 H           8.5610    0.6294   -0.7182 H       1  UNL1        0.0675
     40 H           8.1049   -2.6586   -1.7717 H       1  UNL1        0.2922
     41 H           8.2769   -2.7675    2.0702 H       1  UNL1        0.0637
     42 H          10.4655   -1.6908    2.0472 H       1  UNL1        0.0637
     43 H          11.5711   -4.0274   -1.3937 H       1  UNL1        0.0637
     44 H           9.4054   -5.1114   -1.3705 H       1  UNL1        0.0637
     45 H          12.7684   -1.5803    2.1503 H       1  UNL1        0.0486
     46 H          12.4472   -0.1586    1.1209 H       1  UNL1        0.0486
     47 H          14.9278   -1.9898    0.9783 H       1  UNL1        0.0575
     48 H          14.8851   -0.3569    1.6647 H       1  UNL1        0.0575
     49 H          14.6415   -2.2343   -1.4240 H       1  UNL1        0.0575
     50 H          14.3628   -0.7698   -2.3800 H       1  UNL1        0.0575
     51 H          12.2352   -2.0200   -2.0688 H       1  UNL1        0.0486
     52 H          12.1457   -0.4299   -1.2994 H       1  UNL1        0.0486
     53 H           5.9646   -5.9882    0.0192 H       1  UNL1        0.0433
     54 H           7.5533   -6.3010    0.7316 H       1  UNL1        0.0433
     55 H           7.3751   -6.1075   -1.0418 H       1  UNL1        0.0433
@<TRIPOS>BOND
     1     1     2    1
     2     2     3    1
     3     3     4    1
     4     4     5   ar
     5     5     6   ar
     6     6     7    1
     7     6     8   ar
     8     8     9   ar
     9     4     9   ar
    10     9    10   ar
    11    10    11   ar
    12    11    12   ar
    13    12    13   ar
    14     8    13   ar
    15    12    14    1
    16    11    15    1
    17    15    16    2
    18    15    17   am
    19    17    18    1
    20    18    19   ar
    21    19    20   ar
    22    20    21   ar
    23    21    22   ar
    24    22    23   ar
    25    18    23   ar
    26    21    24    1
    27    24    25    1
    28    25    26    1
    29    26    27    1
    30    27    28    1
    31    28    29    1
    32    24    29    1
    33    17    30    1
    34     1    31    1
    35     1    32    1
    36     1    33    1
    37     2    34    1
    38     2    35    1
    39     3    36    1
    40     3    37    1
    41    10    38    1
    42    13    39    1
    43    14    40    1
    44    19    41    1
    45    20    42    1
    46    22    43    1
    47    23    44    1
    48    25    45    1
    49    25    46    1
    50    26    47    1
    51    26    48    1
    52    28    49    1
    53    28    50    1
    54    29    51    1
    55    29    52    1
    56    30    53    1
    57    30    54    1
    58    30    55    1
@<TRIPOS>MOLECULE
*****
 58 61 0 0 0
SMALL
GASTEIGER

@<TRIPOS>ATOM
      1 C           6.1487    1.8325   -0.4906 C.3     1  UNL1       -0.0653
      2 C           4.9271    1.0303   -0.0587 C.3     1  UNL1       -0.0556
      3 C           5.3393   -0.2508    0.6622 C.3     1  UNL1       -0.0478
      4 C           4.1350   -1.0789    1.1501 C.3     1  UNL1       -0.0081
      5 C           4.5934   -2.3294    1.8395 C.ar    1  UNL1        0.0705
      6 N           5.3789   -2.2294    2.9209 N.ar    1  UNL1       -0.1777
      7 N           5.7938   -3.4859    3.1329 N.ar    1  UNL1       -0.2766
      8 H           6.4446   -3.6558    3.8937 H       1  UNL1        0.1889
      9 C           5.3167   -4.3864    2.2254 C.ar    1  UNL1        0.0695
     10 C           4.4020   -3.6860    1.4509 C.ar    1  UNL1        0.0236
     11 C           3.6347   -4.4020    0.5063 C.ar    1  UNL1       -0.0351
     12 C           3.8787   -5.7796    0.2955 C.ar    1  UNL1        0.0793
     13 C           4.9952   -6.3469    0.9208 C.ar    1  UNL1        0.1310
     14 C           5.6525   -5.7150    1.9812 C.ar    1  UNL1        0.0060
     15 O           5.6042   -7.5020    0.5107 O.3     1  UNL1       -0.5059
     16 C           2.9406   -6.4856   -0.6436 C.2     1  UNL1        0.2541
     17 O           2.4574   -5.7901   -1.5449 O.2     1  UNL1       -0.2695
     18 N           2.6348   -7.8626   -0.5456 N.am    1  UNL1       -0.2704
     19 C           3.0358   -8.7425    0.4972 C.ar    1  UNL1        0.0364
     20 C           2.8594   -8.4251    1.8424 C.ar    1  UNL1       -0.0385
     21 C           3.4997   -9.1843    2.8363 C.ar    1  UNL1       -0.0389
     22 C           4.3451  -10.2557    2.5148 C.ar    1  UNL1        0.0299
     23 C           4.4139  -10.6191    1.1621 C.ar    1  UNL1       -0.0389
     24 C           3.7442   -9.9012    0.1666 C.ar    1  UNL1       -0.0385
     25 N           5.0561  -10.9710    3.4563 N.pl3   1  UNL1       -0.3255
     26 C           4.6779  -11.0153    4.8733 C.3     1  UNL1        0.0357
     27 C           5.0028  -12.4285    5.3889 C.3     1  UNL1        0.0634
     28 O           6.4027  -12.7339    5.2400 O.3     1  UNL1       -0.3767
     29 C           6.7859  -12.6614    3.8521 C.3     1  UNL1        0.0634
     30 C           6.4859  -11.2782    3.2472 C.3     1  UNL1        0.0357
     31 C           1.7980   -8.4589   -1.5887 C.3     1  UNL1        0.0086
     32 H           5.8424    2.7397   -1.0212 H       1  UNL1        0.0230
     33 H           6.7881    1.2474   -1.1597 H       1  UNL1        0.0230
     34 H           6.7473    2.1334    0.3757 H       1  UNL1        0.0230
     35 H           4.3258    0.7860   -0.9411 H       1  UNL1        0.0263
     36 H           4.3082    1.6486    0.6009 H       1  UNL1        0.0263
     37 H           5.9762    0.0141    1.5164 H       1  UNL1        0.0269
     38 H           5.9581   -0.8629   -0.0077 H       1  UNL1        0.0269
     39 H           3.4990   -1.3320    0.2938 H       1  UNL1        0.0329
     40 H           3.5272   -0.4841    1.8413 H       1  UNL1        0.0329
     41 H           2.8700   -3.8845   -0.0691 H       1  UNL1        0.0633
     42 H           6.4460   -6.2178    2.5229 H       1  UNL1        0.0675
     43 H           5.1999   -7.7837   -0.3270 H       1  UNL1        0.2922
     44 H           2.2565   -7.5703    2.1361 H       1  UNL1        0.0637
     45 H           3.3746   -8.8712    3.8687 H       1  UNL1        0.0637
     46 H           5.0105  -11.4767    0.8615 H       1  UNL1        0.0637
     47 H           3.8915  -10.1995   -0.8671 H       1  UNL1        0.0637
     48 H           3.6120  -10.8237    5.0268 H       1  UNL1        0.0486
     49 H           5.2562  -10.2680    5.4318 H       1  UNL1        0.0486
     50 H           4.4135  -13.1804    4.8482 H       1  UNL1        0.0575
     51 H           4.7577  -12.5063    6.4502 H       1  UNL1        0.0575
     52 H           6.2643  -13.4466    3.2954 H       1  UNL1        0.0575
     53 H           7.8611  -12.8674    3.7964 H       1  UNL1        0.0575
     54 H           6.7879  -11.2654    2.1962 H       1  UNL1        0.0486
     55 H           7.0880  -10.5159    3.7663 H       1  UNL1        0.0486
     56 H           1.3310   -7.6999   -2.2228 H       1  UNL1        0.0433
     57 H           0.9965   -9.0439   -1.1230 H       1  UNL1        0.0433
     58 H           2.4064   -9.1055   -2.2270 H       1  UNL1        0.0433
@<TRIPOS>BOND
     1     1     2    1
     2     2     3    1
     3     3     4    1
     4     4     5    1
     5     5     6   ar
     6     6     7   ar
     7     7     8    1
     8     7     9   ar
     9     9    10   ar
    10     5    10   ar
    11    10    11   ar
    12    11    12   ar
    13    12    13   ar
    14    13    14   ar
    15     9    14   ar
    16    13    15    1
    17    12    16    1
    18    16    17    2
    19    16    18   am
    20    18    19    1
    21    19    20   ar
    22    20    21   ar
    23    21    22   ar
    24    22    23   ar
    25    23    24   ar
    26    19    24   ar
    27    22    25    1
    28    25    26    1
    29    26    27    1
    30    27    28    1
    31    28    29    1
    32    29    30    1
    33    25    30    1
    34    18    31    1
    35     1    32    1
    36     1    33    1
    37     1    34    1
    38     2    35    1
    39     2    36    1
    40     3    37    1
    41     3    38    1
    42     4    39    1
    43     4    40    1
    44    11    41    1
    45    14    42    1
    46    15    43    1
    47    20    44    1
    48    21    45    1
    49    23    46    1
    50    24    47    1
    51    26    48    1
    52    26    49    1
    53    27    50    1
    54    27    51    1
    55    29    52    1
    56    29    53    1
    57    30    54    1
    58    30    55    1
    59    31    56    1
    60    31    57    1
    61    31    58    1
@<TRIPOS>MOLECULE
*****
 53 56 0 0 0
SMALL
GASTEIGER

@<TRIPOS>ATOM
      1 C          10.1141   -1.0455   -2.4571 C.3     1  UNL1        0.0369
      2 O          10.1811   -2.0857   -1.4924 O.3     1  UNL1       -0.3768
      3 C           9.7025   -1.6481   -0.2180 C.3     1  UNL1        0.0916
      4 C           8.2267   -1.4530   -0.1626 C.ar    1  UNL1        0.0960
      5 N           7.6937   -0.2254   -0.2861 N.ar    1  UNL1       -0.1754
      6 N           6.3919   -0.4193   -0.0202 N.ar    1  UNL1       -0.2765
      7 H           5.7645    0.3719   -0.0948 H       1  UNL1        0.1889
      8 C           6.0911   -1.6904    0.3760 C.ar    1  UNL1        0.0696
      9 C           7.2379   -2.4279    0.1352 C.ar    1  UNL1        0.0259
     10 C           7.1987   -3.8275    0.2932 C.ar    1  UNL1       -0.0351
     11 C           6.0835   -4.4431    0.8934 C.ar    1  UNL1        0.0793
     12 C           4.9822   -3.6210    1.2196 C.ar    1  UNL1        0.1310
     13 C           4.9376   -2.2532    0.9158 C.ar    1  UNL1        0.0060
     14 O           3.8653   -4.0859    1.8735 O.3     1  UNL1       -0.5059
     15 C           5.9625   -5.9322    1.1250 C.2     1  UNL1        0.2541
     16 O           4.8100   -6.3526    1.2894 O.2     1  UNL1       -0.2695
     17 N           7.0516   -6.8192    1.0841 N.am    1  UNL1       -0.2704
     18 C           8.4077   -6.4449    1.2448 C.ar    1  UNL1        0.0364
     19 C           8.8009   -5.5871    2.2743 C.ar    1  UNL1       -0.0385
     20 C          10.0642   -4.9769    2.2413 C.ar    1  UNL1       -0.0389
     21 C          10.9538   -5.1959    1.1803 C.ar    1  UNL1        0.0299
     22 C          10.5852   -6.1770    0.2439 C.ar    1  UNL1       -0.0389
     23 C           9.3406   -6.8125    0.2781 C.ar    1  UNL1       -0.0385
     24 N          12.1613   -4.5270    1.0347 N.pl3   1  UNL1       -0.3255
     25 C          12.7324   -3.7033    2.1133 C.3     1  UNL1        0.0357
     26 C          14.2534   -3.6189    1.8861 C.3     1  UNL1        0.0634
     27 O          14.5856   -3.0614    0.6014 O.3     1  UNL1       -0.3767
     28 C          14.0041   -3.8574   -0.4505 C.3     1  UNL1        0.0634
     29 C          12.4806   -3.9441   -0.2940 C.3     1  UNL1        0.0357
     30 C           6.7770   -8.2458    0.9165 C.3     1  UNL1        0.0086
     31 H          10.6866   -1.3672   -3.3348 H       1  UNL1        0.0524
     32 H          10.5723   -0.1217   -2.0785 H       1  UNL1        0.0524
     33 H           9.0871   -0.8709   -2.7641 H       1  UNL1        0.0524
     34 H          10.2390   -0.7435    0.0965 H       1  UNL1        0.0626
     35 H           9.9752   -2.4155    0.5137 H       1  UNL1        0.0626
     36 H           8.0613   -4.3844   -0.0470 H       1  UNL1        0.0633
     37 H           4.0557   -1.6602    1.1345 H       1  UNL1        0.0675
     38 H           3.9347   -5.0655    1.9206 H       1  UNL1        0.2922
     39 H           8.1140   -5.3449    3.0819 H       1  UNL1        0.0637
     40 H          10.2988   -4.2725    3.0338 H       1  UNL1        0.0637
     41 H          11.2687   -6.4441   -0.5585 H       1  UNL1        0.0637
     42 H           9.0855   -7.4936   -0.5278 H       1  UNL1        0.0637
     43 H          12.5470   -4.1350    3.1017 H       1  UNL1        0.0486
     44 H          12.2930   -2.6972    2.0799 H       1  UNL1        0.0486
     45 H          14.7101   -4.6166    1.9648 H       1  UNL1        0.0575
     46 H          14.7093   -2.9793    2.6526 H       1  UNL1        0.0575
     47 H          14.4569   -4.8547   -0.4478 H       1  UNL1        0.0575
     48 H          14.2511   -3.3734   -1.4009 H       1  UNL1        0.0575
     49 H          12.0497   -4.4918   -1.1368 H       1  UNL1        0.0486
     50 H          12.0969   -2.9220   -0.3225 H       1  UNL1        0.0486
     51 H           5.7060   -8.4644    0.9580 H       1  UNL1        0.0433
     52 H           7.2701   -8.8099    1.7150 H       1  UNL1        0.0433
     53 H           7.1423   -8.5817   -0.0584 H       1  UNL1        0.0433
@<TRIPOS>BOND
     1     1     2    1
     2     2     3    1
     3     3     4    1
     4     4     5   ar
     5     5     6   ar
     6     6     7    1
     7     6     8   ar
     8     8     9   ar
     9     4     9   ar
    10     9    10   ar
    11    10    11   ar
    12    11    12   ar
    13    12    13   ar
    14     8    13   ar
    15    12    14    1
    16    11    15    1
    17    15    16    2
    18    15    17   am
    19    17    18    1
    20    18    19   ar
    21    19    20   ar
    22    20    21   ar
    23    21    22   ar
    24    22    23   ar
    25    18    23   ar
    26    21    24    1
    27    24    25    1
    28    25    26    1
    29    26    27    1
    30    27    28    1
    31    28    29    1
    32    24    29    1
    33    17    30    1
    34     1    31    1
    35     1    32    1
    36     1    33    1
    37     3    34    1
    38     3    35    1
    39    10    36    1
    40    13    37    1
    41    14    38    1
    42    19    39    1
    43    20    40    1
    44    22    41    1
    45    23    42    1
    46    25    43    1
    47    25    44    1
    48    26    45    1
    49    26    46    1
    50    28    47    1
    51    28    48    1
    52    29    49    1
    53    29    50    1
    54    30    51    1
    55    30    52    1
    56    30    53    1
@<TRIPOS>MOLECULE
*****
 54 57 0 0 0
SMALL
GASTEIGER

@<TRIPOS>ATOM
      1 C           0.5651    2.1413    0.0277 C.3     1  UNL1       -0.0582
      2 C           2.0571    2.4141    0.0534 C.3     1  UNL1        0.0092
      3 C           2.9110    1.1538   -0.0923 C.2     1  UNL1        0.1833
      4 O           2.4090    0.0304   -0.1189 O.2     1  UNL1       -0.2904
      5 C           4.3628    1.3583   -0.2432 C.ar    1  UNL1        0.1353
      6 N           4.8837    2.5964   -0.2028 N.ar    1  UNL1       -0.1698
      7 N           6.1621    2.4317   -0.5690 N.ar    1  UNL1       -0.2762
      8 H           6.7574    3.2505   -0.6379 H       1  UNL1        0.1889
      9 C           6.4769    1.1463   -0.8918 C.ar    1  UNL1        0.0699
     10 C           5.3744    0.3846   -0.5323 C.ar    1  UNL1        0.0312
     11 C           5.4814   -1.0268   -0.6103 C.ar    1  UNL1       -0.0347
     12 C           6.6447   -1.6177   -1.1577 C.ar    1  UNL1        0.0793
     13 C           7.5769   -0.7665   -1.7614 C.ar    1  UNL1        0.1310
     14 C           7.5970    0.6074   -1.5196 C.ar    1  UNL1        0.0060
     15 O           8.4766   -1.1622   -2.7131 O.3     1  UNL1       -0.5059
     16 C           6.7316   -3.1204   -1.1118 C.2     1  UNL1        0.2541
     17 O           5.6552   -3.7236   -1.1626 O.2     1  UNL1       -0.2695
     18 N           7.9564   -3.8308   -1.0437 N.am    1  UNL1       -0.2704
     19 C           9.2532   -3.2566   -0.9405 C.ar    1  UNL1        0.0364
     20 C           9.5674   -2.3167    0.0403 C.ar    1  UNL1       -0.0385
     21 C          10.7169   -1.5166   -0.0897 C.ar    1  UNL1       -0.0389
     22 C          11.5552   -1.6191   -1.2082 C.ar    1  UNL1        0.0299
     23 C          11.3029   -2.6859   -2.0863 C.ar    1  UNL1       -0.0389
     24 C          10.1880   -3.5176   -1.9454 C.ar    1  UNL1       -0.0385
     25 N          12.6112   -0.7575   -1.4731 N.pl3   1  UNL1       -0.3255
     26 C          13.1464    0.1531   -0.4494 C.3     1  UNL1        0.0357
     27 C          14.5995    0.4995   -0.8251 C.3     1  UNL1        0.0634
     28 O          14.6737    1.1072   -2.1298 O.3     1  UNL1       -0.3767
     29 C          14.1248    0.2295   -3.1298 C.3     1  UNL1        0.0634
     30 C          12.6621   -0.1325   -2.8181 C.3     1  UNL1        0.0357
     31 C           7.9097   -5.2890   -1.1649 C.3     1  UNL1        0.0086
     32 H           0.0062    3.0756    0.1481 H       1  UNL1        0.0234
     33 H           0.2743    1.4631    0.8360 H       1  UNL1        0.0234
     34 H           0.2629    1.6855   -0.9209 H       1  UNL1        0.0234
     35 H           2.3211    2.9009    0.9990 H       1  UNL1        0.0343
     36 H           2.2949    3.0977   -0.7705 H       1  UNL1        0.0343
     37 H           4.6507   -1.6465   -0.2762 H       1  UNL1        0.0633
     38 H           8.4007    1.2290   -1.8976 H       1  UNL1        0.0675
     39 H           8.2883   -2.0861   -2.9497 H       1  UNL1        0.2922
     40 H           8.9010   -2.1572    0.8837 H       1  UNL1        0.0637
     41 H          10.8890   -0.7584    0.6676 H       1  UNL1        0.0637
     42 H          11.9661   -2.8578   -2.9307 H       1  UNL1        0.0637
     43 H          10.0039   -4.2615   -2.7147 H       1  UNL1        0.0637
     44 H          13.1418   -0.2997    0.5437 H       1  UNL1        0.0486
     45 H          12.5392    1.0702   -0.4175 H       1  UNL1        0.0486
     46 H          15.2176   -0.4058   -0.8229 H       1  UNL1        0.0575
     47 H          15.0176    1.2024   -0.1070 H       1  UNL1        0.0575
     48 H          14.7426   -0.6748   -3.1887 H       1  UNL1        0.0575
     49 H          14.1889    0.7424   -4.0947 H       1  UNL1        0.0575
     50 H          12.2780   -0.7768   -3.6140 H       1  UNL1        0.0486
     51 H          12.0540    0.7825   -2.8113 H       1  UNL1        0.0486
     52 H           6.9049   -5.6800   -0.9810 H       1  UNL1        0.0433
     53 H           8.5844   -5.7403   -0.4288 H       1  UNL1        0.0433
     54 H           8.2079   -5.5853   -2.1747 H       1  UNL1        0.0433
@<TRIPOS>BOND
     1     1     2    1
     2     2     3    1
     3     3     4    2
     4     3     5    1
     5     5     6   ar
     6     6     7   ar
     7     7     8    1
     8     7     9   ar
     9     9    10   ar
    10     5    10   ar
    11    10    11   ar
    12    11    12   ar
    13    12    13   ar
    14    13    14   ar
    15     9    14   ar
    16    13    15    1
    17    12    16    1
    18    16    17    2
    19    16    18   am
    20    18    19    1
    21    19    20   ar
    22    20    21   ar
    23    21    22   ar
    24    22    23   ar
    25    23    24   ar
    26    19    24   ar
    27    22    25    1
    28    25    26    1
    29    26    27    1
    30    27    28    1
    31    28    29    1
    32    29    30    1
    33    25    30    1
    34    18    31    1
    35     1    32    1
    36     1    33    1
    37     1    34    1
    38     2    35    1
    39     2    36    1
    40    11    37    1
    41    14    38    1
    42    15    39    1
    43    20    40    1
    44    21    41    1
    45    23    42    1
    46    24    43    1
    47    26    44    1
    48    26    45    1
    49    27    46    1
    50    27    47    1
    51    29    48    1
    52    29    49    1
    53    30    50    1
    54    30    51    1
    55    31    52    1
    56    31    53    1
    57    31    54    1
@<TRIPOS>MOLECULE
*****
 56 59 0 0 0
SMALL
GASTEIGER

@<TRIPOS>ATOM
      1 C          -0.2951    8.1339    1.6945 C.3     1  UNL1       -0.0626
      2 C           1.1559    8.2809    2.0954 C.3     1  UNL1       -0.0240
      3 C           1.8039    7.1289    2.8320 C.3     1  UNL1        0.0990
      4 H           2.8466    7.4124    3.0342 H       1  UNL1        0.0659
      5 C           1.8555    5.8301    2.0879 C.ar    1  UNL1        0.0988
      6 N           1.4136    4.7070    2.6787 N.ar    1  UNL1       -0.1751
      7 N           1.8929    3.7304    1.8888 N.ar    1  UNL1       -0.2765
      8 H           1.6671    2.7703    2.1199 H       1  UNL1        0.1889
      9 C           2.7412    4.1802    0.9151 C.ar    1  UNL1        0.0696
     10 C           2.5783    5.5549    0.8961 C.ar    1  UNL1        0.0262
     11 C           3.2121    6.3095   -0.1116 C.ar    1  UNL1       -0.0350
     12 C           4.1992    5.7226   -0.9143 C.ar    1  UNL1        0.0793
     13 C           4.4124    4.3309   -0.7688 C.ar    1  UNL1        0.1310
     14 C           3.6413    3.5246    0.0827 C.ar    1  UNL1        0.0060
     15 O           5.4086    3.6496   -1.4292 O.3     1  UNL1       -0.5059
     16 C           5.0033    6.4773   -1.9486 C.2     1  UNL1        0.2541
     17 O           5.6024    5.7717   -2.7708 O.2     1  UNL1       -0.2695
     18 N           5.0320    7.8818   -2.0453 N.am    1  UNL1       -0.2704
     19 C           4.7537    8.7889   -0.9870 C.ar    1  UNL1        0.0364
     20 C           5.2410    8.5631    0.3002 C.ar    1  UNL1       -0.0385
     21 C           4.7675    9.3297    1.3760 C.ar    1  UNL1       -0.0389
     22 C           3.8022   10.3484    1.2057 C.ar    1  UNL1        0.0299
     23 C           3.4154   10.6117   -0.1020 C.ar    1  UNL1       -0.0389
     24 C           3.8904    9.8726   -1.1996 C.ar    1  UNL1       -0.0385
     25 N           3.2560   11.0302    2.2784 N.pl3   1  UNL1       -0.3255
     26 C           3.9288   11.1274    3.5813 C.3     1  UNL1        0.0357
     27 C           3.8530   12.5952    4.0342 C.3     1  UNL1        0.0634
     28 O           2.4953   13.0581    4.1393 O.3     1  UNL1       -0.3767
     29 C           1.8245   12.9606    2.8683 C.3     1  UNL1        0.0634
     30 C           1.8640   11.5296    2.3373 C.3     1  UNL1        0.0357
     31 C           5.6186    8.4711   -3.2521 C.3     1  UNL1        0.0086
     32 O           1.2002    7.0012    4.1271 O.3     1  UNL1       -0.3856
     33 H          -0.6384    9.0799    1.2581 H       1  UNL1        0.0231
     34 H          -0.9262    7.9144    2.5584 H       1  UNL1        0.0231
     35 H          -0.4218    7.3533    0.9412 H       1  UNL1        0.0231
     36 H           1.1965    9.1090    2.7919 H       1  UNL1        0.0291
     37 H           1.7285    8.5458    1.2059 H       1  UNL1        0.0291
     38 H           2.9458    7.3502   -0.2025 H       1  UNL1        0.0633
     39 H           3.8041    2.4538    0.1390 H       1  UNL1        0.0675
     40 H           5.8287    4.2761   -2.0599 H       1  UNL1        0.2922
     41 H           5.9585    7.7687    0.4935 H       1  UNL1        0.0637
     42 H           5.1137    9.0563    2.3646 H       1  UNL1        0.0637
     43 H           2.7073   11.4093   -0.3197 H       1  UNL1        0.0637
     44 H           3.4950   10.0827   -2.1876 H       1  UNL1        0.0637
     45 H           4.9825   10.8371    3.5403 H       1  UNL1        0.0486
     46 H           3.4187   10.4732    4.3004 H       1  UNL1        0.0486
     47 H           4.3858   13.2370    3.3225 H       1  UNL1        0.0575
     48 H           4.3231   12.7057    5.0142 H       1  UNL1        0.0575
     49 H           2.2787   13.6593    2.1600 H       1  UNL1        0.0575
     50 H           0.7827   13.2596    3.0291 H       1  UNL1        0.0575
     51 H           1.3183   11.4334    1.3916 H       1  UNL1        0.0486
     52 H           1.3154   10.9470    3.0818 H       1  UNL1        0.0486
     53 H           5.8976    7.7090   -3.9876 H       1  UNL1        0.0433
     54 H           6.5242    9.0230   -2.9782 H       1  UNL1        0.0433
     55 H           4.9019    9.1435   -3.7299 H       1  UNL1        0.0433
     56 H           1.3060    6.0538    4.3451 H       1  UNL1        0.2103
@<TRIPOS>BOND
     1     1     2    1
     2     3     5    1
     3     5     6   ar
     4     6     7   ar
     5     7     8    1
     6     7     9   ar
     7     9    10   ar
     8     5    10   ar
     9    10    11   ar
    10    11    12   ar
    11    12    13   ar
    12    13    14   ar
    13     9    14   ar
    14    13    15    1
    15    12    16    1
    16    16    17    2
    17    16    18   am
    18    18    19    1
    19    19    20   ar
    20    20    21   ar
    21    21    22   ar
    22    22    23   ar
    23    23    24   ar
    24    19    24   ar
    25    22    25    1
    26    25    26    1
    27    26    27    1
    28    27    28    1
    29    28    29    1
    30    29    30    1
    31    25    30    1
    32    18    31    1
    33     3    32    1
    34     3     4    1
    35     3     2    1
    36     1    33    1
    37     1    34    1
    38     1    35    1
    39     2    36    1
    40     2    37    1
    41    11    38    1
    42    14    39    1
    43    15    40    1
    44    20    41    1
    45    21    42    1
    46    23    43    1
    47    24    44    1
    48    26    45    1
    49    26    46    1
    50    27    47    1
    51    27    48    1
    52    29    49    1
    53    29    50    1
    54    30    51    1
    55    30    52    1
    56    31    53    1
    57    31    54    1
    58    31    55    1
    59    32    56    1
@<TRIPOS>MOLECULE
*****
 63 67 0 0 0
SMALL
GASTEIGER

@<TRIPOS>ATOM
      1 C           1.3627   -1.3799   -3.7111 C.3     1  UNL1        0.0788
      2 O           1.2741   -2.5547   -4.5209 O.3     1  UNL1       -0.4951
      3 C           1.3994   -3.7121   -3.7975 C.ar    1  UNL1        0.1204
      4 C           0.6311   -4.8003   -4.2070 C.ar    1  UNL1       -0.0199
      5 C           0.6466   -5.9805   -3.4630 C.ar    1  UNL1       -0.0580
      6 C           1.4055   -6.0582   -2.2936 C.ar    1  UNL1       -0.0580
      7 C           2.1856   -4.9690   -1.8760 C.ar    1  UNL1       -0.0381
      8 C           2.2302   -3.8271   -2.6829 C.ar    1  UNL1       -0.0164
      9 C           2.9341   -4.9849   -0.5642 C.3     1  UNL1        0.0173
     10 C           1.8803   -4.9619    0.5077 C.ar    1  UNL1        0.0748
     11 N           1.5106   -6.0944    1.1198 N.ar    1  UNL1       -0.1774
     12 N           0.5851   -5.6944    2.0119 N.ar    1  UNL1       -0.2766
     13 H           0.1786   -6.3960    2.6201 H       1  UNL1        0.1889
     14 C           0.3724   -4.3497    2.0332 C.ar    1  UNL1        0.0695
     15 C           1.2286   -3.8303    1.0669 C.ar    1  UNL1        0.0239
     16 C           1.3060   -2.4434    0.8920 C.ar    1  UNL1       -0.0351
     17 C           0.6493   -1.6277    1.8246 C.ar    1  UNL1        0.0793
     18 C          -0.3197   -2.1687    2.6846 C.ar    1  UNL1        0.1310
     19 C          -0.4737   -3.5504    2.8122 C.ar    1  UNL1        0.0060
     20 O          -1.1533   -1.3964    3.4449 O.3     1  UNL1       -0.5059
     21 C           1.0672   -0.2125    1.9948 C.2     1  UNL1        0.2541
     22 O           0.1380    0.5771    2.1851 O.2     1  UNL1       -0.2695
     23 N           2.4519    0.1046    2.0592 N.am    1  UNL1       -0.2704
     24 C           2.8265    1.4712    2.2921 C.ar    1  UNL1        0.0364
     25 C           3.8366    1.8155    3.1969 C.ar    1  UNL1       -0.0385
     26 C           3.9558    3.1287    3.6698 C.ar    1  UNL1       -0.0389
     27 C           3.1077    4.1405    3.2099 C.ar    1  UNL1        0.0299
     28 C           2.2682    3.8180    2.1385 C.ar    1  UNL1       -0.0389
     29 C           2.1127    2.5065    1.6944 C.ar    1  UNL1       -0.0385
     30 N           3.0564    5.4112    3.7684 N.pl3   1  UNL1       -0.3255
     31 C           4.0393    5.8424    4.7797 C.3     1  UNL1        0.0357
     32 C           4.0248    7.3797    4.8239 C.3     1  UNL1        0.0634
     33 O           2.7197    7.8900    5.1530 O.3     1  UNL1       -0.3767
     34 C           1.7470    7.4399    4.1931 C.3     1  UNL1        0.0634
     35 C           1.6985    5.9076    4.1177 C.3     1  UNL1        0.0357
     36 C           3.5248   -0.8990    2.1226 C.3     1  UNL1        0.0086
     37 H           0.9381   -0.5418   -4.2689 H       1  UNL1        0.0660
     38 H           2.4096   -1.1431   -3.4937 H       1  UNL1        0.0660
     39 H           0.7913   -1.4840   -2.7794 H       1  UNL1        0.0660
     40 H          -0.0020   -4.7223   -5.0864 H       1  UNL1        0.0654
     41 H           0.0407   -6.8284   -3.7714 H       1  UNL1        0.0619
     42 H           1.3650   -6.9626   -1.6888 H       1  UNL1        0.0620
     43 H           2.8986   -3.0153   -2.4156 H       1  UNL1        0.0657
     44 H           3.5812   -4.1053   -0.4728 H       1  UNL1        0.0377
     45 H           3.5720   -5.8698   -0.4967 H       1  UNL1        0.0377
     46 H           1.9732   -2.0106    0.1604 H       1  UNL1        0.0633
     47 H          -1.1695   -3.9727    3.5273 H       1  UNL1        0.0675
     48 H          -1.0998   -0.4742    3.1051 H       1  UNL1        0.2922
     49 H           4.4812    1.0829    3.6651 H       1  UNL1        0.0637
     50 H           4.6770    3.3109    4.4577 H       1  UNL1        0.0637
     51 H           1.6839    4.5950    1.6523 H       1  UNL1        0.0637
     52 H           1.3940    2.3093    0.9039 H       1  UNL1        0.0637
     53 H           5.0524    5.5103    4.5328 H       1  UNL1        0.0486
     54 H           3.7628    5.4375    5.7637 H       1  UNL1        0.0486
     55 H           4.3320    7.7911    3.8545 H       1  UNL1        0.0575
     56 H           4.7251    7.7414    5.5821 H       1  UNL1        0.0575
     57 H           1.9897    7.8642    3.2112 H       1  UNL1        0.0575
     58 H           0.7708    7.8300    4.4966 H       1  UNL1        0.0575
     59 H           0.9285    5.6198    3.3958 H       1  UNL1        0.0486
     60 H           1.4055    5.4957    5.0934 H       1  UNL1        0.0486
     61 H           3.1541   -1.8954    2.3552 H       1  UNL1        0.0433
     62 H           4.2605   -0.6956    2.8990 H       1  UNL1        0.0433
     63 H           4.0309   -0.9114    1.1511 H       1  UNL1        0.0433
@<TRIPOS>BOND
     1     1     2    1
     2     2     3    1
     3     3     4   ar
     4     4     5   ar
     5     5     6   ar
     6     6     7   ar
     7     7     8   ar
     8     3     8   ar
     9     7     9    1
    10     9    10    1
    11    10    11   ar
    12    11    12   ar
    13    12    13    1
    14    12    14   ar
    15    14    15   ar
    16    10    15   ar
    17    15    16   ar
    18    16    17   ar
    19    17    18   ar
    20    18    19   ar
    21    14    19   ar
    22    18    20    1
    23    17    21    1
    24    21    22    2
    25    21    23   am
    26    23    24    1
    27    24    25   ar
    28    25    26   ar
    29    26    27   ar
    30    27    28   ar
    31    28    29   ar
    32    24    29   ar
    33    27    30    1
    34    30    31    1
    35    31    32    1
    36    32    33    1
    37    33    34    1
    38    34    35    1
    39    30    35    1
    40    23    36    1
    41     1    37    1
    42     1    38    1
    43     1    39    1
    44     4    40    1
    45     5    41    1
    46     6    42    1
    47     8    43    1
    48     9    44    1
    49     9    45    1
    50    16    46    1
    51    19    47    1
    52    20    48    1
    53    25    49    1
    54    26    50    1
    55    28    51    1
    56    29    52    1
    57    31    53    1
    58    31    54    1
    59    32    55    1
    60    32    56    1
    61    34    57    1
    62    34    58    1
    63    35    59    1
    64    35    60    1
    65    36    61    1
    66    36    62    1
    67    36    63    1
@<TRIPOS>MOLECULE
*****
 65 68 0 0 0
SMALL
GASTEIGER

@<TRIPOS>ATOM
      1 C           3.7783    4.6776   -3.3290 C.3     1  UNL1       -0.0612
      2 C           4.4600    4.2597   -2.0283 C.3     1  UNL1       -0.0309
      3 C           3.5269    3.4276   -1.1294 C.3     1  UNL1        0.0170
      4 N           3.1819    2.0978   -1.6261 N.am    1  UNL1       -0.2990
      5 C           1.9134    1.8793   -2.2134 C.2     1  UNL1        0.2671
      6 O           1.1513    2.8194   -2.4611 O.2     1  UNL1       -0.2682
      7 C           1.4665    0.4806   -2.4303 C.ar    1  UNL1        0.1547
      8 N           2.3121   -0.5518   -2.6395 N.ar    1  UNL1       -0.1681
      9 N           1.5471   -1.6422   -2.5422 N.ar    1  UNL1       -0.2761
     10 H           1.9953   -2.5492   -2.6053 H       1  UNL1        0.1889
     11 C           0.2225   -1.3808   -2.3590 C.ar    1  UNL1        0.0700
     12 C           0.1098    0.0021   -2.4084 C.ar    1  UNL1        0.0328
     13 C          -1.1825    0.5747   -2.3653 C.ar    1  UNL1       -0.0347
     14 C          -2.3051   -0.2753   -2.3400 C.ar    1  UNL1        0.0793
     15 C          -2.1207   -1.6447   -2.0921 C.ar    1  UNL1        0.1310
     16 C          -0.8569   -2.2324   -2.1270 C.ar    1  UNL1        0.0060
     17 O          -3.1575   -2.4885   -1.7843 O.3     1  UNL1       -0.5059
     18 C          -3.6950    0.2361   -2.5649 C.2     1  UNL1        0.2541
     19 O          -4.5311   -0.2443   -1.7958 O.2     1  UNL1       -0.2695
     20 N          -3.9581    1.1380   -3.6279 N.am    1  UNL1       -0.2704
     21 C          -5.2534    1.7747   -3.8220 C.ar    1  UNL1        0.0364
     22 C          -6.4257    1.3858   -3.1655 C.ar    1  UNL1       -0.0385
     23 C          -7.6333    2.1043   -3.3167 C.ar    1  UNL1       -0.0389
     24 C          -7.7299    3.2223   -4.1477 C.ar    1  UNL1        0.0299
     25 C          -6.5825    3.5634   -4.8596 C.ar    1  UNL1       -0.0389
     26 C          -5.3778    2.8676   -4.6967 C.ar    1  UNL1       -0.0385
     27 N          -8.8527    4.0107   -4.2368 N.pl3   1  UNL1       -0.3255
     28 C          -9.7525    4.2353   -3.1016 C.3     1  UNL1        0.0357
     29 C         -10.2112    5.7071   -3.1238 C.3     1  UNL1        0.0634
     30 O         -10.8142    6.0638   -4.3816 O.3     1  UNL1       -0.3767
     31 C          -9.8785    5.8702   -5.4576 C.3     1  UNL1        0.0634
     32 C          -9.4073    4.4103   -5.5377 C.3     1  UNL1        0.0357
     33 C          -2.9181    1.5140   -4.6000 C.3     1  UNL1        0.0086
     34 C           4.0952    1.0136   -1.2746 C.3     1  UNL1        0.0035
     35 C           5.7998    3.5847   -2.3212 C.3     1  UNL1       -0.0612
     36 H           2.7833    5.0909   -3.1351 H       1  UNL1        0.0233
     37 H           3.6730    3.8341   -4.0185 H       1  UNL1        0.0233
     38 H           4.3654    5.4537   -3.8319 H       1  UNL1        0.0233
     39 H           4.6803    5.1794   -1.4700 H       1  UNL1        0.0311
     40 H           2.6060    3.9979   -0.9536 H       1  UNL1        0.0467
     41 H           3.9839    3.3094   -0.1373 H       1  UNL1        0.0467
     42 H          -1.2994    1.6537   -2.4162 H       1  UNL1        0.0633
     43 H          -0.7281   -3.2991   -1.9755 H       1  UNL1        0.0675
     44 H          -3.9268   -1.9245   -1.5400 H       1  UNL1        0.2922
     45 H          -6.4608    0.5131   -2.5225 H       1  UNL1        0.0637
     46 H          -8.5075    1.7551   -2.7723 H       1  UNL1        0.0637
     47 H          -6.5829    4.4362   -5.5071 H       1  UNL1        0.0637
     48 H          -4.5350    3.2626   -5.2533 H       1  UNL1        0.0637
     49 H          -9.2590    4.0396   -2.1427 H       1  UNL1        0.0486
     50 H         -10.6191    3.5709   -3.1920 H       1  UNL1        0.0486
     51 H          -9.3660    6.3817   -2.9366 H       1  UNL1        0.0575
     52 H         -10.9537    5.8794   -2.3391 H       1  UNL1        0.0575
     53 H          -9.0286    6.5494   -5.3176 H       1  UNL1        0.0575
     54 H         -10.3804    6.1511   -6.3888 H       1  UNL1        0.0575
     55 H          -8.6949    4.3006   -6.3616 H       1  UNL1        0.0486
     56 H         -10.2645    3.7620   -5.7587 H       1  UNL1        0.0486
     57 H          -2.1017    0.7942   -4.6470 H       1  UNL1        0.0433
     58 H          -2.5246    2.4986   -4.3226 H       1  UNL1        0.0433
     59 H          -3.3273    1.5401   -5.6152 H       1  UNL1        0.0433
     60 H           4.9310    1.3832   -0.6742 H       1  UNL1        0.0429
     61 H           4.4966    0.5808   -2.1937 H       1  UNL1        0.0429
     62 H           3.5722    0.2616   -0.6780 H       1  UNL1        0.0429
     63 H           5.6845    2.7242   -2.9884 H       1  UNL1        0.0233
     64 H           6.2829    3.2460   -1.3990 H       1  UNL1        0.0233
     65 H           6.4825    4.2886   -2.8097 H       1  UNL1        0.0233
@<TRIPOS>BOND
     1     1     2    1
     2     2     3    1
     3     3     4    1
     4     4     5   am
     5     5     6    2
     6     5     7    1
     7     7     8   ar
     8     8     9   ar
     9     9    10    1
    10     9    11   ar
    11    11    12   ar
    12     7    12   ar
    13    12    13   ar
    14    13    14   ar
    15    14    15   ar
    16    15    16   ar
    17    11    16   ar
    18    15    17    1
    19    14    18    1
    20    18    19    2
    21    18    20   am
    22    20    21    1
    23    21    22   ar
    24    22    23   ar
    25    23    24   ar
    26    24    25   ar
    27    25    26   ar
    28    21    26   ar
    29    24    27    1
    30    27    28    1
    31    28    29    1
    32    29    30    1
    33    30    31    1
    34    31    32    1
    35    27    32    1
    36    20    33    1
    37     4    34    1
    38     2    35    1
    39     1    36    1
    40     1    37    1
    41     1    38    1
    42     2    39    1
    43     3    40    1
    44     3    41    1
    45    13    42    1
    46    16    43    1
    47    17    44    1
    48    22    45    1
    49    23    46    1
    50    25    47    1
    51    26    48    1
    52    28    49    1
    53    28    50    1
    54    29    51    1
    55    29    52    1
    56    31    53    1
    57    31    54    1
    58    32    55    1
    59    32    56    1
    60    33    57    1
    61    33    58    1
    62    33    59    1
    63    34    60    1
    64    34    61    1
    65    34    62    1
    66    35    63    1
    67    35    64    1
    68    35    65    1
@<TRIPOS>MOLECULE
*****
 62 66 0 0 0
SMALL
GASTEIGER

@<TRIPOS>ATOM
      1 O           1.2775   -0.2982   -1.4305 O.3     1  UNL1       -0.5059
      2 C           2.4960   -0.1875   -0.8130 C.ar    1  UNL1        0.1310
      3 C           3.2801   -1.3429   -0.6804 C.ar    1  UNL1        0.0060
      4 C           4.5919   -1.1702   -0.2319 C.ar    1  UNL1        0.0695
      5 N           5.6032   -2.0631   -0.0025 N.ar    1  UNL1       -0.2766
      6 H           5.5550   -3.0750   -0.0212 H       1  UNL1        0.1889
      7 N           6.7985   -1.4919    0.2056 N.ar    1  UNL1       -0.1777
      8 C           6.5358   -0.1777    0.1820 C.ar    1  UNL1        0.0708
      9 C           5.1409    0.0761    0.0370 C.ar    1  UNL1        0.0236
     10 C           4.2889    1.1979    0.0355 C.ar    1  UNL1       -0.0351
     11 C           2.9323    1.0539   -0.3409 C.ar    1  UNL1        0.0793
     12 C           2.0898    2.2926   -0.2709 C.2     1  UNL1        0.2541
     13 O           2.7057    3.3154   -0.5863 O.2     1  UNL1       -0.2695
     14 N           0.7576    2.2726    0.2257 N.am    1  UNL1       -0.2704
     15 C           0.0046    3.5030    0.4488 C.ar    1  UNL1        0.0364
     16 C           0.4262    4.7629    0.0114 C.ar    1  UNL1       -0.0385
     17 C          -0.1581    5.9484    0.4974 C.ar    1  UNL1       -0.0389
     18 C          -1.1965    5.9091    1.4253 C.ar    1  UNL1        0.0299
     19 C          -1.7519    4.6577    1.6925 C.ar    1  UNL1       -0.0389
     20 C          -1.1769    3.4831    1.2062 C.ar    1  UNL1       -0.0385
     21 N          -1.6999    7.0143    2.1132 N.pl3   1  UNL1       -0.3255
     22 C          -1.4089    8.3722    1.6195 C.3     1  UNL1        0.0357
     23 C          -2.2928    9.3674    2.3941 C.3     1  UNL1        0.0634
     24 O          -2.0586    9.2943    3.8131 O.3     1  UNL1       -0.3767
     25 C          -2.3233    7.9665    4.2956 C.3     1  UNL1        0.0634
     26 C          -1.4547    6.9257    3.5783 C.3     1  UNL1        0.0357
     27 C           0.1363    1.0635    0.7871 C.3     1  UNL1        0.0086
     28 C           7.6641    0.8033    0.2060 C.3     1  UNL1       -0.0052
     29 C           7.6688    1.7080    1.4276 C.3     1  UNL1       -0.0356
     30 C           7.9049    0.9706    2.7425 C.3     1  UNL1       -0.0499
     31 C           8.1549    2.1205    3.7047 C.3     1  UNL1       -0.0528
     32 C           8.9585    3.1385    2.8967 C.3     1  UNL1       -0.0528
     33 C           8.8002    2.7360    1.4271 C.3     1  UNL1       -0.0499
     34 H           1.1606   -1.2054   -1.7569 H       1  UNL1        0.2922
     35 H           2.9108   -2.3234   -0.9548 H       1  UNL1        0.0675
     36 H           4.6784    2.1766    0.3082 H       1  UNL1        0.0633
     37 H           1.2428    4.8814   -0.6929 H       1  UNL1        0.0637
     38 H           0.2733    6.8900    0.1729 H       1  UNL1        0.0637
     39 H          -2.6319    4.5849    2.3259 H       1  UNL1        0.0637
     40 H          -1.6669    2.5642    1.5070 H       1  UNL1        0.0637
     41 H          -1.6295    8.4565    0.5486 H       1  UNL1        0.0486
     42 H          -0.3519    8.6174    1.7870 H       1  UNL1        0.0486
     43 H          -3.3556    9.1744    2.2026 H       1  UNL1        0.0575
     44 H          -2.0728   10.3906    2.0771 H       1  UNL1        0.0575
     45 H          -3.3885    7.7392    4.1604 H       1  UNL1        0.0575
     46 H          -2.1112    7.9495    5.3679 H       1  UNL1        0.0575
     47 H          -1.6882    5.9357    3.9844 H       1  UNL1        0.0486
     48 H          -0.3936    7.1286    3.7782 H       1  UNL1        0.0486
     49 H           0.7583    0.1786    0.7763 H       1  UNL1        0.0433
     50 H          -0.7867    0.8503    0.2345 H       1  UNL1        0.0433
     51 H          -0.0754    1.2176    1.8498 H       1  UNL1        0.0433
     52 H           7.6019    1.4179   -0.7019 H       1  UNL1        0.0332
     53 H           8.6243    0.2650    0.1329 H       1  UNL1        0.0332
     54 H           6.7152    2.2451    1.4858 H       1  UNL1        0.0304
     55 H           8.7910    0.3252    2.6805 H       1  UNL1        0.0268
     56 H           7.0518    0.3564    3.0443 H       1  UNL1        0.0268
     57 H           8.6712    1.8006    4.6137 H       1  UNL1        0.0265
     58 H           7.1954    2.5620    4.0011 H       1  UNL1        0.0265
     59 H          10.0152    3.1236    3.1856 H       1  UNL1        0.0265
     60 H           8.5828    4.1523    3.0742 H       1  UNL1        0.0265
     61 H           9.7396    2.2939    1.0669 H       1  UNL1        0.0268
     62 H           8.5772    3.5974    0.7902 H       1  UNL1        0.0268
@<TRIPOS>BOND
     1     1     2    1
     2     2     3   ar
     3     3     4   ar
     4     4     5   ar
     5     5     6    1
     6     5     7   ar
     7     7     8   ar
     8     8     9   ar
     9     4     9   ar
    10     9    10   ar
    11    10    11   ar
    12     2    11   ar
    13    11    12    1
    14    12    13    2
    15    12    14   am
    16    14    15    1
    17    15    16   ar
    18    16    17   ar
    19    17    18   ar
    20    18    19   ar
    21    19    20   ar
    22    15    20   ar
    23    18    21    1
    24    21    22    1
    25    22    23    1
    26    23    24    1
    27    24    25    1
    28    25    26    1
    29    21    26    1
    30    14    27    1
    31     8    28    1
    32    28    29    1
    33    29    30    1
    34    30    31    1
    35    31    32    1
    36    32    33    1
    37    29    33    1
    38     1    34    1
    39     3    35    1
    40    10    36    1
    41    16    37    1
    42    17    38    1
    43    19    39    1
    44    20    40    1
    45    22    41    1
    46    22    42    1
    47    23    43    1
    48    23    44    1
    49    25    45    1
    50    25    46    1
    51    26    47    1
    52    26    48    1
    53    27    49    1
    54    27    50    1
    55    27    51    1
    56    28    52    1
    57    28    53    1
    58    29    54    1
    59    30    55    1
    60    30    56    1
    61    31    57    1
    62    31    58    1
    63    32    59    1
    64    32    60    1
    65    33    61    1
    66    33    62    1
@<TRIPOS>MOLECULE
*****
 49 52 0 0 0
SMALL
GASTEIGER

@<TRIPOS>ATOM
      1 C           4.5843   -0.8204   -5.0037 C.3     1  UNL1       -0.0397
      2 C           5.4741   -1.4408   -3.9679 C.ar    1  UNL1       -0.0502
      3 C           6.6551   -2.0971   -4.3370 C.ar    1  UNL1       -0.0588
      4 C           7.3895   -2.8007   -3.3903 C.ar    1  UNL1       -0.0612
      5 C           6.9392   -2.8873   -2.0689 C.ar    1  UNL1       -0.0582
      6 C           5.7568   -2.2318   -1.6802 C.ar    1  UNL1       -0.0413
      7 C           5.0509   -1.4865   -2.6317 C.ar    1  UNL1       -0.0553
      8 C           5.2099   -2.3828   -0.2741 C.3     1  UNL1        0.0171
      9 C           4.2490   -3.5342   -0.3141 C.ar    1  UNL1        0.0748
     10 N           4.7346   -4.7929   -0.1900 N.ar    1  UNL1       -0.1774
     11 N           3.6463   -5.5598   -0.3073 N.ar    1  UNL1       -0.2766
     12 H           3.7750   -6.5651   -0.2698 H       1  UNL1        0.1889
     13 C           2.4714   -4.8797   -0.4570 C.ar    1  UNL1        0.0695
     14 C           2.8228   -3.5363   -0.4070 C.ar    1  UNL1        0.0239
     15 C           1.7825   -2.5805   -0.4614 C.ar    1  UNL1       -0.0351
     16 C           0.4375   -3.0162   -0.5505 C.ar    1  UNL1        0.0793
     17 C           0.1548   -4.3717   -0.7347 C.ar    1  UNL1        0.1310
     18 C           1.1603   -5.3343   -0.6363 C.ar    1  UNL1        0.0060
     19 O          -1.1036   -4.8525   -0.9965 O.3     1  UNL1       -0.5059
     20 C          -0.6154   -1.9675   -0.4976 C.2     1  UNL1        0.2541
     21 O          -0.4267   -1.0500   -1.2965 O.2     1  UNL1       -0.2695
     22 N          -1.6775   -2.0498    0.4491 N.am    1  UNL1       -0.2704
     23 C          -2.5846   -0.9203    0.6661 C.ar    1  UNL1        0.0376
     24 C          -2.6624    0.1724   -0.2101 C.ar    1  UNL1       -0.0402
     25 C          -3.3433    1.3491    0.1325 C.ar    1  UNL1       -0.0586
     26 C          -4.0152    1.4437    1.3438 C.ar    1  UNL1       -0.0433
     27 C          -4.0622    0.3317    2.1702 C.ar    1  UNL1        0.0427
     28 C          -3.3764   -0.8408    1.8303 C.ar    1  UNL1       -0.0219
     29 CL         -4.9320    0.4101    3.6548 Cl      1  UNL1       -0.0835
     30 C          -1.7038   -3.0868    1.4979 C.3     1  UNL1        0.0086
     31 H           5.1401   -0.5508   -5.9030 H       1  UNL1        0.0278
     32 H           4.1069    0.0893   -4.6180 H       1  UNL1        0.0278
     33 H           3.8033   -1.5360   -5.2777 H       1  UNL1        0.0278
     34 H           6.9902   -2.0829   -5.3733 H       1  UNL1        0.0620
     35 H           8.2984   -3.3220   -3.6850 H       1  UNL1        0.0618
     36 H           7.4931   -3.4889   -1.3548 H       1  UNL1        0.0620
     37 H           4.1335   -0.9720   -2.3470 H       1  UNL1        0.0623
     38 H           4.7187   -1.4612    0.0495 H       1  UNL1        0.0377
     39 H           6.0272   -2.5760    0.4350 H       1  UNL1        0.0377
     40 H           2.0116   -1.5169   -0.4144 H       1  UNL1        0.0633
     41 H           0.9270   -6.3925   -0.7128 H       1  UNL1        0.0675
     42 H          -1.6742   -4.1161   -1.2870 H       1  UNL1        0.2922
     43 H          -2.1829    0.1654   -1.1825 H       1  UNL1        0.0636
     44 H          -3.3210    2.1980   -0.5465 H       1  UNL1        0.0619
     45 H          -4.4986    2.3732    1.6299 H       1  UNL1        0.0632
     46 H          -3.4494   -1.6625    2.5356 H       1  UNL1        0.0651
     47 H          -1.0857   -3.9514    1.2932 H       1  UNL1        0.0433
     48 H          -2.7257   -3.4580    1.6258 H       1  UNL1        0.0433
     49 H          -1.3253   -2.6497    2.4256 H       1  UNL1        0.0433
@<TRIPOS>BOND
     1     1     2    1
     2     2     3   ar
     3     3     4   ar
     4     4     5   ar
     5     5     6   ar
     6     6     7   ar
     7     2     7   ar
     8     6     8    1
     9     8     9    1
    10     9    10   ar
    11    10    11   ar
    12    11    12    1
    13    11    13   ar
    14    13    14   ar
    15     9    14   ar
    16    14    15   ar
    17    15    16   ar
    18    16    17   ar
    19    17    18   ar
    20    13    18   ar
    21    17    19    1
    22    16    20    1
    23    20    21    2
    24    20    22   am
    25    22    23    1
    26    23    24   ar
    27    24    25   ar
    28    25    26   ar
    29    26    27   ar
    30    27    28   ar
    31    23    28   ar
    32    27    29    1
    33    22    30    1
    34     1    31    1
    35     1    32    1
    36     1    33    1
    37     3    34    1
    38     4    35    1
    39     5    36    1
    40     7    37    1
    41     8    38    1
    42     8    39    1
    43    15    40    1
    44    18    41    1
    45    19    42    1
    46    24    43    1
    47    25    44    1
    48    26    45    1
    49    28    46    1
    50    30    47    1
    51    30    48    1
    52    30    49    1
@<TRIPOS>MOLECULE
*****
 49 52 0 0 0
SMALL
GASTEIGER

@<TRIPOS>ATOM
      1 C           4.3713   -0.7435   -4.7840 C.3     1  UNL1       -0.0397
      2 C           5.2824   -1.3793   -3.7770 C.ar    1  UNL1       -0.0502
      3 C           6.4477   -2.0390   -4.1817 C.ar    1  UNL1       -0.0588
      4 C           7.1934   -2.7729   -3.2603 C.ar    1  UNL1       -0.0612
      5 C           6.7581   -2.8814   -1.9374 C.ar    1  UNL1       -0.0582
      6 C           5.5922   -2.2245   -1.5096 C.ar    1  UNL1       -0.0413
      7 C           4.8860   -1.4422   -2.4341 C.ar    1  UNL1       -0.0553
      8 C           5.0622   -2.4064   -0.1028 C.3     1  UNL1        0.0171
      9 C           4.1006   -3.5587   -0.1531 C.ar    1  UNL1        0.0748
     10 N           4.5723   -4.8127   -0.0480 N.ar    1  UNL1       -0.1774
     11 N           3.4803   -5.5806   -0.1764 N.ar    1  UNL1       -0.2766
     12 H           3.6090   -6.5904   -0.1510 H       1  UNL1        0.1889
     13 C           2.3176   -4.8889   -0.3079 C.ar    1  UNL1        0.0695
     14 C           2.6697   -3.5506   -0.2360 C.ar    1  UNL1        0.0239
     15 C           1.6333   -2.5925   -0.2637 C.ar    1  UNL1       -0.0351
     16 C           0.2852   -3.0207   -0.3539 C.ar    1  UNL1        0.0793
     17 C          -0.0020   -4.3700   -0.5671 C.ar    1  UNL1        0.1310
     18 C           1.0027   -5.3382   -0.4918 C.ar    1  UNL1        0.0060
     19 O          -1.2598   -4.8397   -0.8460 O.3     1  UNL1       -0.5059
     20 C          -0.7633   -1.9686   -0.2731 C.2     1  UNL1        0.2541
     21 O          -0.5563   -1.0203   -1.0286 O.2     1  UNL1       -0.2695
     22 N          -1.8444   -2.0880    0.6496 N.am    1  UNL1       -0.2704
     23 C          -2.7479   -0.9614    0.8921 C.ar    1  UNL1        0.0363
     24 C          -2.8147    0.1515    0.0431 C.ar    1  UNL1       -0.0403
     25 C          -3.4666    1.3318    0.4252 C.ar    1  UNL1       -0.0600
     26 C          -4.1287    1.4057    1.6426 C.ar    1  UNL1       -0.0616
     27 C          -4.2082    0.2720    2.4374 C.ar    1  UNL1       -0.0600
     28 C          -3.5418   -0.9005    2.0569 C.ar    1  UNL1       -0.0403
     29 C          -1.8737   -3.1421    1.6793 C.3     1  UNL1        0.0086
     30 H           4.9088   -0.4603   -5.6937 H       1  UNL1        0.0278
     31 H           3.8986    0.1553   -4.3763 H       1  UNL1        0.0278
     32 H           3.5893   -1.4629   -5.0511 H       1  UNL1        0.0278
     33 H           6.7637   -2.0109   -5.2221 H       1  UNL1        0.0620
     34 H           8.0901   -3.2967   -3.5827 H       1  UNL1        0.0618
     35 H           7.3168   -3.5105   -1.2470 H       1  UNL1        0.0620
     36 H           3.9877   -0.9157   -2.1183 H       1  UNL1        0.0623
     37 H           4.5782   -1.4898    0.2507 H       1  UNL1        0.0377
     38 H           5.8871   -2.6201    0.5880 H       1  UNL1        0.0377
     39 H           1.8632   -1.5313   -0.2036 H       1  UNL1        0.0633
     40 H           0.7609   -6.3948   -0.5780 H       1  UNL1        0.0675
     41 H          -1.8313   -4.0937   -1.1066 H       1  UNL1        0.2922
     42 H          -2.3440    0.1590   -0.9338 H       1  UNL1        0.0636
     43 H          -3.4256    2.2000   -0.2277 H       1  UNL1        0.0618
     44 H          -4.5862    2.3370    1.9635 H       1  UNL1        0.0618
     45 H          -4.7584    0.3026    3.3746 H       1  UNL1        0.0618
     46 H          -3.6338   -1.7367    2.7422 H       1  UNL1        0.0636
     47 H          -1.2793   -4.0183    1.4460 H       1  UNL1        0.0433
     48 H          -2.8995   -3.4990    1.8234 H       1  UNL1        0.0433
     49 H          -1.4668   -2.7307    2.6085 H       1  UNL1        0.0433
@<TRIPOS>BOND
     1     1     2    1
     2     2     3   ar
     3     3     4   ar
     4     4     5   ar
     5     5     6   ar
     6     6     7   ar
     7     2     7   ar
     8     6     8    1
     9     8     9    1
    10     9    10   ar
    11    10    11   ar
    12    11    12    1
    13    11    13   ar
    14    13    14   ar
    15     9    14   ar
    16    14    15   ar
    17    15    16   ar
    18    16    17   ar
    19    17    18   ar
    20    13    18   ar
    21    17    19    1
    22    16    20    1
    23    20    21    2
    24    20    22   am
    25    22    23    1
    26    23    24   ar
    27    24    25   ar
    28    25    26   ar
    29    26    27   ar
    30    27    28   ar
    31    23    28   ar
    32    22    29    1
    33     1    30    1
    34     1    31    1
    35     1    32    1
    36     3    33    1
    37     4    34    1
    38     5    35    1
    39     7    36    1
    40     8    37    1
    41     8    38    1
    42    15    39    1
    43    18    40    1
    44    19    41    1
    45    24    42    1
    46    25    43    1
    47    26    44    1
    48    27    45    1
    49    28    46    1
    50    29    47    1
    51    29    48    1
    52    29    49    1
@<TRIPOS>MOLECULE
*****
 66 70 0 0 0
SMALL
GASTEIGER

@<TRIPOS>ATOM
      1 C           6.9736    2.0891   -1.1123 C.3     1  UNL1       -0.0397
      2 C           6.7316    0.7063   -0.5816 C.ar    1  UNL1       -0.0502
      3 C           7.5336    0.1894    0.4390 C.ar    1  UNL1       -0.0588
      4 C           7.4408   -1.1559    0.7888 C.ar    1  UNL1       -0.0612
      5 C           6.5717   -2.0036    0.0966 C.ar    1  UNL1       -0.0582
      6 C           5.7381   -1.5093   -0.9179 C.ar    1  UNL1       -0.0413
      7 C           5.8149   -0.1377   -1.2259 C.ar    1  UNL1       -0.0553
      8 C           4.9748   -2.4109   -1.8658 C.3     1  UNL1        0.0171
      9 C           4.2000   -3.4575   -1.1298 C.ar    1  UNL1        0.0748
     10 N           4.7811   -4.6365   -0.8593 N.ar    1  UNL1       -0.1774
     11 N           3.7949   -5.3897   -0.3678 N.ar    1  UNL1       -0.2766
     12 H           4.0095   -6.3462   -0.0983 H       1  UNL1        0.1889
     13 C           2.5744   -4.7763   -0.3522 C.ar    1  UNL1        0.0695
     14 C           2.8093   -3.4737   -0.7935 C.ar    1  UNL1        0.0239
     15 C           1.7211   -2.5814   -0.8510 C.ar    1  UNL1       -0.0351
     16 C           0.4434   -3.0316   -0.4439 C.ar    1  UNL1        0.0793
     17 C           0.2378   -4.3758   -0.1286 C.ar    1  UNL1        0.1310
     18 C           1.3056   -5.2634   -0.0263 C.ar    1  UNL1        0.0060
     19 O          -1.0026   -4.9098    0.1210 O.3     1  UNL1       -0.5059
     20 C          -0.6516   -2.0311   -0.3870 C.2     1  UNL1        0.2541
     21 O          -0.8452   -1.3834   -1.4164 O.2     1  UNL1       -0.2695
     22 N          -1.3478   -1.8288    0.8371 N.am    1  UNL1       -0.2704
     23 C          -2.2071   -0.6745    0.9211 C.ar    1  UNL1        0.0363
     24 C          -3.1208   -0.3739   -0.0980 C.ar    1  UNL1       -0.0398
     25 C          -3.7243    0.8901   -0.1810 C.ar    1  UNL1       -0.0518
     26 C          -3.4091    1.8792    0.7575 C.ar    1  UNL1       -0.0028
     27 C          -2.6273    1.5222    1.8664 C.ar    1  UNL1       -0.0518
     28 C          -2.0497    0.2523    1.9569 C.ar    1  UNL1       -0.0398
     29 C          -3.6765    3.3371    0.4942 C.3     1  UNL1       -0.0058
     30 N          -5.1101    3.7862    0.3752 N.4     1  UNL1        0.2417
     31 H          -5.5573    3.2277   -0.3583 H       1  UNL1        0.2038
     32 C          -5.8885    3.5710    1.6664 C.3     1  UNL1       -0.0075
     33 C          -7.2616    4.2425    1.5735 C.3     1  UNL1        0.0878
     34 O          -7.1100    5.6425    1.3249 O.3     1  UNL1       -0.3693
     35 C          -6.5263    5.8761    0.0434 C.3     1  UNL1        0.0878
     36 C          -5.1310    5.2556   -0.0595 C.3     1  UNL1       -0.0075
     37 C          -0.8338   -2.3557    2.1097 C.3     1  UNL1        0.0086
     38 H           7.4238    2.7379   -0.3552 H       1  UNL1        0.0278
     39 H           6.0414    2.5547   -1.4457 H       1  UNL1        0.0278
     40 H           7.6594    2.0250   -1.9653 H       1  UNL1        0.0278
     41 H           8.2683    0.8195    0.9358 H       1  UNL1        0.0620
     42 H           8.0966   -1.5625    1.5540 H       1  UNL1        0.0618
     43 H           6.5969   -3.0680    0.3226 H       1  UNL1        0.0620
     44 H           5.2128    0.2646   -2.0388 H       1  UNL1        0.0623
     45 H           5.7006   -2.8791   -2.5444 H       1  UNL1        0.0377
     46 H           4.2905   -1.8262   -2.4913 H       1  UNL1        0.0377
     47 H           1.8647   -1.5593   -1.1946 H       1  UNL1        0.0633
     48 H           1.1469   -6.2970    0.2623 H       1  UNL1        0.0675
     49 H          -1.6832   -4.3181   -0.2446 H       1  UNL1        0.2922
     50 H          -3.3131   -1.1017   -0.8856 H       1  UNL1        0.0636
     51 H          -4.3418    1.1016   -1.0506 H       1  UNL1        0.0623
     52 H          -2.3565    2.2544    2.6260 H       1  UNL1        0.0623
     53 H          -1.3669    0.0672    2.7822 H       1  UNL1        0.0636
     54 H          -3.1819    3.6048   -0.4478 H       1  UNL1        0.0867
     55 H          -3.2242    3.9528    1.2819 H       1  UNL1        0.0867
     56 H          -5.2958    4.0176    2.4711 H       1  UNL1        0.0837
     57 H          -5.9904    2.4921    1.8161 H       1  UNL1        0.0837
     58 H          -7.7963    4.1285    2.5212 H       1  UNL1        0.0613
     59 H          -7.8774    3.7962    0.7840 H       1  UNL1        0.0613
     60 H          -6.4482    6.9595   -0.0921 H       1  UNL1        0.0613
     61 H          -7.1947    5.4941   -0.7377 H       1  UNL1        0.0613
     62 H          -4.4373    5.7872    0.6017 H       1  UNL1        0.0837
     63 H          -4.7613    5.2926   -1.0901 H       1  UNL1        0.0837
     64 H          -0.5326   -3.3988    2.0357 H       1  UNL1        0.0433
     65 H          -1.6152   -2.3157    2.8764 H       1  UNL1        0.0433
     66 H           0.0398   -1.7719    2.4131 H       1  UNL1        0.0433
@<TRIPOS>BOND
     1     1     2    1
     2     2     3   ar
     3     3     4   ar
     4     4     5   ar
     5     5     6   ar
     6     6     7   ar
     7     2     7   ar
     8     6     8    1
     9     8     9    1
    10     9    10   ar
    11    10    11   ar
    12    11    12    1
    13    11    13   ar
    14    13    14   ar
    15     9    14   ar
    16    14    15   ar
    17    15    16   ar
    18    16    17   ar
    19    17    18   ar
    20    13    18   ar
    21    17    19    1
    22    16    20    1
    23    20    21    2
    24    20    22   am
    25    22    23    1
    26    23    24   ar
    27    24    25   ar
    28    25    26   ar
    29    26    27   ar
    30    27    28   ar
    31    23    28   ar
    32    26    29    1
    33    29    30    1
    34    30    31    1
    35    30    32    1
    36    32    33    1
    37    33    34    1
    38    34    35    1
    39    35    36    1
    40    30    36    1
    41    22    37    1
    42     1    38    1
    43     1    39    1
    44     1    40    1
    45     3    41    1
    46     4    42    1
    47     5    43    1
    48     7    44    1
    49     8    45    1
    50     8    46    1
    51    15    47    1
    52    18    48    1
    53    19    49    1
    54    24    50    1
    55    25    51    1
    56    27    52    1
    57    28    53    1
    58    29    54    1
    59    29    55    1
    60    32    56    1
    61    32    57    1
    62    33    58    1
    63    33    59    1
    64    35    60    1
    65    35    61    1
    66    36    62    1
    67    36    63    1
    68    37    64    1
    69    37    65    1
    70    37    66    1
@<TRIPOS>MOLECULE
*****
 62 65 0 0 0
SMALL
GASTEIGER

@<TRIPOS>ATOM
      1 N          15.7661   -5.2315    6.1082 N.4     1  UNL1        0.2202
      2 H          15.6338   -5.7770    5.2423 H       1  UNL1        0.1995
      3 H          15.8806   -4.2517    5.8223 H       1  UNL1        0.1995
      4 H          16.6329   -5.5457    6.5608 H       1  UNL1        0.1995
      5 C          14.5715   -5.4237    6.9732 C.3     1  UNL1       -0.0114
      6 C          13.3070   -4.9889    6.2232 C.3     1  UNL1        0.0878
      7 O          13.3121   -5.5865    4.9197 O.3     1  UNL1       -0.3700
      8 C          12.0214   -5.5329    4.2716 C.3     1  UNL1        0.0729
      9 C          11.6582   -4.1844    3.6885 C.ar    1  UNL1       -0.0218
     10 C          12.5978   -3.2226    3.3093 C.ar    1  UNL1       -0.0546
     11 C          12.2044   -1.9212    2.9074 C.ar    1  UNL1       -0.0399
     12 C          10.8591   -1.5386    2.8600 C.ar    1  UNL1        0.0363
     13 C           9.9409   -2.5964    3.0179 C.ar    1  UNL1       -0.0399
     14 C          10.3206   -3.8803    3.4463 C.ar    1  UNL1       -0.0546
     15 N          10.3922   -0.1482    2.7094 N.am    1  UNL1       -0.2704
     16 C          11.2523    0.9551    2.3822 C.2     1  UNL1        0.2541
     17 O          12.4501    0.8226    2.1261 O.2     1  UNL1       -0.2695
     18 C          10.7344    2.3952    2.1855 C.ar    1  UNL1        0.0793
     19 C          11.2960    3.1026    1.0846 C.ar    1  UNL1       -0.0351
     20 C          10.9127    4.4382    0.7845 C.ar    1  UNL1        0.0239
     21 C          11.2601    5.4494   -0.1679 C.ar    1  UNL1        0.0748
     22 N          10.4741    6.5340   -0.0496 N.ar    1  UNL1       -0.1774
     23 N           9.6762    6.2455    0.9862 N.ar    1  UNL1       -0.2766
     24 H           8.9647    6.9217    1.2417 H       1  UNL1        0.1889
     25 C           9.9205    5.0219    1.5562 C.ar    1  UNL1        0.0695
     26 C           9.3663    4.3966    2.6708 C.ar    1  UNL1        0.0060
     27 C           9.8500    3.1152    3.0093 C.ar    1  UNL1        0.1310
     28 O           9.4579    2.6419    4.2419 O.3     1  UNL1       -0.5059
     29 C          12.2196    5.3667   -1.3112 C.3     1  UNL1        0.0171
     30 C          13.5480    5.9905   -0.9344 C.ar    1  UNL1       -0.0413
     31 C          14.5905    5.1832   -0.4532 C.ar    1  UNL1       -0.0582
     32 C          15.8852    5.6897   -0.3327 C.ar    1  UNL1       -0.0612
     33 C          16.1572    7.0137   -0.6719 C.ar    1  UNL1       -0.0588
     34 C          15.1278    7.8588   -1.0975 C.ar    1  UNL1       -0.0502
     35 C          13.8231    7.3443   -1.2121 C.ar    1  UNL1       -0.0553
     36 C          15.4215    9.2929   -1.4363 C.3     1  UNL1       -0.0397
     37 C           9.0457    0.1229    3.2063 C.3     1  UNL1        0.0086
     38 H          14.7271   -4.8488    7.8902 H       1  UNL1        0.0836
     39 H          14.5456   -6.4930    7.2053 H       1  UNL1        0.0836
     40 H          13.2964   -3.8992    6.1171 H       1  UNL1        0.0613
     41 H          12.4288   -5.3019    6.7998 H       1  UNL1        0.0613
     42 H          11.2481   -5.8571    4.9853 H       1  UNL1        0.0610
     43 H          12.0381   -6.2712    3.4635 H       1  UNL1        0.0610
     44 H          13.6573   -3.4576    3.3410 H       1  UNL1        0.0622
     45 H          13.0012   -1.2250    2.6730 H       1  UNL1        0.0636
     46 H           8.8842   -2.4739    2.8004 H       1  UNL1        0.0636
     47 H           9.5412   -4.6279    3.5915 H       1  UNL1        0.0622
     48 H          12.0571    2.6287    0.4692 H       1  UNL1        0.0633
     49 H           8.6176    4.9082    3.2702 H       1  UNL1        0.0675
     50 H           8.9444    3.3285    4.6973 H       1  UNL1        0.2922
     51 H          11.8148    5.8736   -2.1954 H       1  UNL1        0.0377
     52 H          12.3711    4.3217   -1.6032 H       1  UNL1        0.0377
     53 H          14.4092    4.1387   -0.2132 H       1  UNL1        0.0620
     54 H          16.6928    5.0405   -0.0051 H       1  UNL1        0.0618
     55 H          17.1808    7.3785   -0.6117 H       1  UNL1        0.0620
     56 H          13.0223    7.9940   -1.5624 H       1  UNL1        0.0623
     57 H          16.5006    9.4824   -1.4659 H       1  UNL1        0.0278
     58 H          14.9830    9.9567   -0.6848 H       1  UNL1        0.0278
     59 H          15.0198    9.5457   -2.4230 H       1  UNL1        0.0278
     60 H           8.3915   -0.7379    3.3163 H       1  UNL1        0.0433
     61 H           8.5307    0.8245    2.5486 H       1  UNL1        0.0433
     62 H           9.1539    0.5041    4.2230 H       1  UNL1        0.0433
@<TRIPOS>BOND
     1     1     2    1
     2     1     3    1
     3     1     4    1
     4     1     5    1
     5     5     6    1
     6     6     7    1
     7     7     8    1
     8     8     9    1
     9     9    10   ar
    10    10    11   ar
    11    11    12   ar
    12    12    13   ar
    13    13    14   ar
    14     9    14   ar
    15    12    15    1
    16    15    16   am
    17    16    17    2
    18    16    18    1
    19    18    19   ar
    20    19    20   ar
    21    20    21   ar
    22    21    22   ar
    23    22    23   ar
    24    23    24    1
    25    23    25   ar
    26    20    25   ar
    27    25    26   ar
    28    26    27   ar
    29    18    27   ar
    30    27    28    1
    31    21    29    1
    32    29    30    1
    33    30    31   ar
    34    31    32   ar
    35    32    33   ar
    36    33    34   ar
    37    34    35   ar
    38    30    35   ar
    39    34    36    1
    40    15    37    1
    41     5    38    1
    42     5    39    1
    43     6    40    1
    44     6    41    1
    45     8    42    1
    46     8    43    1
    47    10    44    1
    48    11    45    1
    49    13    46    1
    50    14    47    1
    51    19    48    1
    52    26    49    1
    53    28    50    1
    54    29    51    1
    55    29    52    1
    56    31    53    1
    57    32    54    1
    58    33    55    1
    59    35    56    1
    60    36    57    1
    61    36    58    1
    62    36    59    1
    63    37    60    1
    64    37    61    1
    65    37    62    1
@<TRIPOS>MOLECULE
*****
 53 56 0 0 0
SMALL
GASTEIGER

@<TRIPOS>ATOM
      1 C          11.1050    3.5111    5.3320 C.3     1  UNL1        0.0788
      2 O          11.0327    4.0935    4.0376 O.3     1  UNL1       -0.4951
      3 C           9.7975    4.4043    3.5499 C.ar    1  UNL1        0.1202
      4 C           8.5662    4.0709    4.0971 C.ar    1  UNL1       -0.0182
      5 C           7.3641    4.4832    3.4756 C.ar    1  UNL1       -0.0368
      6 C           7.3432    5.2554    2.3029 C.ar    1  UNL1        0.0365
      7 C           8.6104    5.5128    1.7416 C.ar    1  UNL1       -0.0368
      8 C           9.8058    5.1060    2.3521 C.ar    1  UNL1       -0.0182
      9 N           6.1073    5.7716    1.6999 N.am    1  UNL1       -0.2704
     10 C           4.8328    5.6512    2.3393 C.2     1  UNL1        0.2541
     11 O           4.6309    5.1776    3.4585 O.2     1  UNL1       -0.2695
     12 C           3.5725    6.0044    1.6077 C.ar    1  UNL1        0.0793
     13 C           2.6239    4.9691    1.4546 C.ar    1  UNL1       -0.0351
     14 C           1.4792    5.1815    0.6519 C.ar    1  UNL1        0.0239
     15 C           0.3882    4.3900    0.1655 C.ar    1  UNL1        0.0748
     16 N          -0.3902    5.0908   -0.6817 N.ar    1  UNL1       -0.1774
     17 N           0.1566    6.3208   -0.6763 N.ar    1  UNL1       -0.2766
     18 H          -0.2676    7.0251   -1.2665 H       1  UNL1        0.1889
     19 C           1.2871    6.4324    0.0888 C.ar    1  UNL1        0.0695
     20 C           2.1443    7.5171    0.3193 C.ar    1  UNL1        0.0060
     21 C           3.2669    7.2846    1.1277 C.ar    1  UNL1        0.1310
     22 O           4.0692    8.3488    1.4487 O.3     1  UNL1       -0.5059
     23 C           0.1848    2.9142    0.3516 C.3     1  UNL1        0.0171
     24 C          -0.9294    2.6840    1.3429 C.ar    1  UNL1       -0.0413
     25 C          -2.2220    2.3868    0.8799 C.ar    1  UNL1       -0.0582
     26 C          -3.2477    2.0785    1.7742 C.ar    1  UNL1       -0.0612
     27 C          -3.0145    2.1290    3.1462 C.ar    1  UNL1       -0.0588
     28 C          -1.7583    2.5073    3.6317 C.ar    1  UNL1       -0.0502
     29 C          -0.7059    2.7230    2.7262 C.ar    1  UNL1       -0.0553
     30 C          -1.5537    2.7484    5.0984 C.3     1  UNL1       -0.0397
     31 C           6.2072    6.3445    0.3493 C.3     1  UNL1        0.0086
     32 H          12.1442    3.2074    5.4979 H       1  UNL1        0.0660
     33 H          10.4898    2.6107    5.4113 H       1  UNL1        0.0660
     34 H          10.8426    4.2421    6.1039 H       1  UNL1        0.0660
     35 H           8.4872    3.4873    5.0083 H       1  UNL1        0.0655
     36 H           6.4510    4.1496    3.9565 H       1  UNL1        0.0637
     37 H           8.7489    6.0503    0.8119 H       1  UNL1        0.0637
     38 H          10.7578    5.3627    1.8907 H       1  UNL1        0.0655
     39 H           2.7859    4.0092    1.9389 H       1  UNL1        0.0633
     40 H           1.9527    8.4850   -0.1315 H       1  UNL1        0.0675
     41 H           3.6308    9.1756    1.1866 H       1  UNL1        0.2922
     42 H           1.1135    2.4247    0.7075 H       1  UNL1        0.0377
     43 H          -0.0527    2.4448   -0.6131 H       1  UNL1        0.0377
     44 H          -2.4347    2.3929   -0.1871 H       1  UNL1        0.0620
     45 H          -4.2356    1.8225    1.4006 H       1  UNL1        0.0618
     46 H          -3.8286    1.9066    3.8320 H       1  UNL1        0.0620
     47 H           0.2882    2.9461    3.1102 H       1  UNL1        0.0623
     48 H          -2.5070    2.7317    5.6387 H       1  UNL1        0.0278
     49 H          -1.1259    3.7468    5.2410 H       1  UNL1        0.0278
     50 H          -0.8887    2.0010    5.5395 H       1  UNL1        0.0278
     51 H           7.1721    6.7987    0.1357 H       1  UNL1        0.0433
     52 H           5.5143    7.1597    0.1895 H       1  UNL1        0.0433
     53 H           5.9893    5.5618   -0.3801 H       1  UNL1        0.0433
@<TRIPOS>BOND
     1     1     2    1
     2     2     3    1
     3     3     4   ar
     4     4     5   ar
     5     5     6   ar
     6     6     7   ar
     7     7     8   ar
     8     3     8   ar
     9     6     9    1
    10     9    10   am
    11    10    11    2
    12    10    12    1
    13    12    13   ar
    14    13    14   ar
    15    14    15   ar
    16    15    16   ar
    17    16    17   ar
    18    17    18    1
    19    17    19   ar
    20    14    19   ar
    21    19    20   ar
    22    20    21   ar
    23    12    21   ar
    24    21    22    1
    25    15    23    1
    26    23    24    1
    27    24    25   ar
    28    25    26   ar
    29    26    27   ar
    30    27    28   ar
    31    28    29   ar
    32    24    29   ar
    33    28    30    1
    34     9    31    1
    35     1    32    1
    36     1    33    1
    37     1    34    1
    38     4    35    1
    39     5    36    1
    40     7    37    1
    41     8    38    1
    42    13    39    1
    43    20    40    1
    44    22    41    1
    45    23    42    1
    46    23    43    1
    47    25    44    1
    48    26    45    1
    49    27    46    1
    50    29    47    1
    51    30    48    1
    52    30    49    1
    53    30    50    1
    54    31    51    1
    55    31    52    1
    56    31    53    1
@<TRIPOS>MOLECULE
*****
 49 52 0 0 0
SMALL
GASTEIGER

@<TRIPOS>ATOM
      1 CL         12.2043   -3.7798   -1.2714 Cl      1  UNL1       -0.0835
      2 C          11.3087   -2.3175   -1.1283 C.ar    1  UNL1        0.0411
      3 C           9.9291   -2.3474   -0.9541 C.ar    1  UNL1       -0.0416
      4 C           9.1858   -1.1566   -0.8892 C.ar    1  UNL1       -0.0389
      5 C           9.8091    0.0920   -1.0170 C.ar    1  UNL1        0.0363
      6 C          11.2171    0.0865   -1.1373 C.ar    1  UNL1       -0.0389
      7 C          11.9608   -1.0971   -1.1976 C.ar    1  UNL1       -0.0416
      8 N           9.0776    1.3501   -1.1071 N.am    1  UNL1       -0.2704
      9 C           7.7615    1.5222   -0.5928 C.2     1  UNL1        0.2541
     10 O           7.1141    0.6119   -0.0707 O.2     1  UNL1       -0.2695
     11 C           7.0187    2.8518   -0.6432 C.ar    1  UNL1        0.0793
     12 C           5.5993    2.7896   -0.7889 C.ar    1  UNL1       -0.0351
     13 C           4.8047    3.9639   -0.7530 C.ar    1  UNL1        0.0239
     14 C           3.4153    4.3088   -0.7584 C.ar    1  UNL1        0.0748
     15 N           3.2340    5.6382   -0.6669 N.ar    1  UNL1       -0.1774
     16 N           4.4734    6.1332   -0.6320 N.ar    1  UNL1       -0.2766
     17 H           4.5830    7.1394   -0.5583 H       1  UNL1        0.1889
     18 C           5.4577    5.1791   -0.6371 C.ar    1  UNL1        0.0695
     19 C           6.8367    5.3067   -0.5019 C.ar    1  UNL1        0.0060
     20 C           7.5889    4.1231   -0.4524 C.ar    1  UNL1        0.1310
     21 O           8.9125    4.2786   -0.1408 O.3     1  UNL1       -0.5059
     22 C           2.2075    3.4210   -0.7431 C.3     1  UNL1        0.0171
     23 C           1.8028    3.1552   -2.1767 C.ar    1  UNL1       -0.0413
     24 C           1.5146    4.1970   -3.0736 C.ar    1  UNL1       -0.0582
     25 C           1.1628    3.9250   -4.3953 C.ar    1  UNL1       -0.0612
     26 C           1.0459    2.6064   -4.8283 C.ar    1  UNL1       -0.0588
     27 C           1.2546    1.5501   -3.9363 C.ar    1  UNL1       -0.0502
     28 C           1.6309    1.8326   -2.6150 C.ar    1  UNL1       -0.0553
     29 C           1.0363    0.1300   -4.3653 C.3     1  UNL1       -0.0397
     30 C           9.7807    2.4025   -1.8417 C.3     1  UNL1        0.0086
     31 H           9.4102   -3.3065   -0.8914 H       1  UNL1        0.0633
     32 H           8.1101   -1.2511   -0.7946 H       1  UNL1        0.0637
     33 H          11.7833    1.0133   -1.1764 H       1  UNL1        0.0637
     34 H          13.0405   -1.0545   -1.3194 H       1  UNL1        0.0633
     35 H           5.1135    1.8200   -0.8797 H       1  UNL1        0.0633
     36 H           7.2940    6.2795   -0.3592 H       1  UNL1        0.0675
     37 H           9.2009    5.1550   -0.4489 H       1  UNL1        0.2922
     38 H           1.3711    3.8967   -0.2137 H       1  UNL1        0.0377
     39 H           2.4380    2.4906   -0.2137 H       1  UNL1        0.0377
     40 H           1.5714    5.2344   -2.7481 H       1  UNL1        0.0620
     41 H           0.9748    4.7437   -5.0848 H       1  UNL1        0.0618
     42 H           0.7763    2.4098   -5.8629 H       1  UNL1        0.0620
     43 H           1.7819    1.0096   -1.9184 H       1  UNL1        0.0623
     44 H           0.8891    0.0580   -5.4478 H       1  UNL1        0.0278
     45 H           0.1451   -0.2740   -3.8741 H       1  UNL1        0.0278
     46 H           1.9027   -0.4858   -4.1046 H       1  UNL1        0.0278
     47 H          10.3742    1.9839   -2.6605 H       1  UNL1        0.0433
     48 H          10.4587    2.9172   -1.1527 H       1  UNL1        0.0433
     49 H           9.0859    3.0983   -2.3110 H       1  UNL1        0.0433
@<TRIPOS>BOND
     1     1     2    1
     2     2     3   ar
     3     3     4   ar
     4     4     5   ar
     5     5     6   ar
     6     6     7   ar
     7     2     7   ar
     8     5     8    1
     9     8     9   am
    10     9    10    2
    11     9    11    1
    12    11    12   ar
    13    12    13   ar
    14    13    14   ar
    15    14    15   ar
    16    15    16   ar
    17    16    17    1
    18    16    18   ar
    19    13    18   ar
    20    18    19   ar
    21    19    20   ar
    22    11    20   ar
    23    20    21    1
    24    14    22    1
    25    22    23    1
    26    23    24   ar
    27    24    25   ar
    28    25    26   ar
    29    26    27   ar
    30    27    28   ar
    31    23    28   ar
    32    27    29    1
    33     8    30    1
    34     3    31    1
    35     4    32    1
    36     6    33    1
    37     7    34    1
    38    12    35    1
    39    19    36    1
    40    21    37    1
    41    22    38    1
    42    22    39    1
    43    24    40    1
    44    25    41    1
    45    26    42    1
    46    28    43    1
    47    29    44    1
    48    29    45    1
    49    29    46    1
    50    30    47    1
    51    30    48    1
    52    30    49    1
@<TRIPOS>MOLECULE
*****
 60 63 0 0 0
SMALL
GASTEIGER

@<TRIPOS>ATOM
      1 N          18.3360   -9.0271   -8.2155 N.1     1  UNL1       -0.1966
      2 C          17.3408   -8.3307   -7.8769 C.1     1  UNL1        0.0626
      3 C          16.1413   -7.4912   -7.4686 C.3     1  UNL1        0.0379
      4 C          15.1966   -8.0929   -6.4286 C.3     1  UNL1       -0.0059
      5 C          15.7600   -8.3079   -5.0185 C.3     1  UNL1        0.0905
      6 O          16.4481   -7.1833   -4.4784 O.3     1  UNL1       -0.4919
      7 C          15.7696   -6.0626   -4.1000 C.ar    1  UNL1        0.1206
      8 C          14.4375   -5.9424   -3.7113 C.ar    1  UNL1       -0.0182
      9 C          13.8656   -4.6619   -3.4688 C.ar    1  UNL1       -0.0368
     10 C          14.6128   -3.4874   -3.6414 C.ar    1  UNL1        0.0365
     11 C          15.9888   -3.6613   -3.8810 C.ar    1  UNL1       -0.0368
     12 C          16.5557   -4.9181   -4.1048 C.ar    1  UNL1       -0.0182
     13 N          14.0483   -2.1422   -3.6975 N.am    1  UNL1       -0.2704
     14 C          12.8188   -1.7605   -3.0942 C.2     1  UNL1        0.2541
     15 O          12.0905   -2.5616   -2.4960 O.2     1  UNL1       -0.2695
     16 C          12.2748   -0.3304   -3.1680 C.ar    1  UNL1        0.0793
     17 C          10.8607   -0.1879   -3.2425 C.ar    1  UNL1       -0.0351
     18 C          10.2424    1.0910   -3.2265 C.ar    1  UNL1        0.0239
     19 C           8.9070    1.6225   -3.1797 C.ar    1  UNL1        0.0748
     20 N           8.9147    2.9663   -3.1258 N.ar    1  UNL1       -0.1774
     21 N          10.2127    3.2876   -3.1249 N.ar    1  UNL1       -0.2766
     22 H          10.4611    4.2675   -3.0385 H       1  UNL1        0.1889
     23 C          11.0572    2.2123   -3.1653 C.ar    1  UNL1        0.0695
     24 C          12.4485    2.1378   -3.0980 C.ar    1  UNL1        0.0060
     25 C          13.0288    0.8554   -3.0637 C.ar    1  UNL1        0.1310
     26 O          14.3846    0.8335   -2.8739 O.3     1  UNL1       -0.5059
     27 C           7.6229    0.8910   -2.9795 C.3     1  UNL1        0.0171
     28 C           6.8970    0.7433   -4.2963 C.ar    1  UNL1       -0.0413
     29 C           6.9588   -0.4701   -4.9951 C.ar    1  UNL1       -0.0582
     30 C           6.1315   -0.6965   -6.0955 C.ar    1  UNL1       -0.0612
     31 C           5.2466    0.2923   -6.5248 C.ar    1  UNL1       -0.0588
     32 C           5.2061    1.5331   -5.8808 C.ar    1  UNL1       -0.0502
     33 C           6.0378    1.7521   -4.7708 C.ar    1  UNL1       -0.0553
     34 C           4.2619    2.6024   -6.3488 C.3     1  UNL1       -0.0397
     35 C          14.7997   -1.2252   -4.5632 C.3     1  UNL1        0.0086
     36 H          15.5650   -7.2885   -8.3802 H       1  UNL1        0.0419
     37 H          16.5122   -6.5206   -7.1190 H       1  UNL1        0.0419
     38 H          14.7921   -9.0425   -6.7979 H       1  UNL1        0.0308
     39 H          14.3451   -7.4053   -6.3439 H       1  UNL1        0.0308
     40 H          16.5000   -9.1158   -5.0709 H       1  UNL1        0.0697
     41 H          14.9829   -8.6589   -4.3302 H       1  UNL1        0.0697
     42 H          13.8075   -6.8190   -3.5915 H       1  UNL1        0.0655
     43 H          12.8119   -4.6228   -3.2064 H       1  UNL1        0.0637
     44 H          16.6637   -2.8104   -3.9164 H       1  UNL1        0.0637
     45 H          17.6180   -4.9950   -4.3247 H       1  UNL1        0.0655
     46 H          10.2311   -1.0767   -3.2727 H       1  UNL1        0.0633
     47 H          13.0471    3.0397   -3.0044 H       1  UNL1        0.0675
     48 H          14.7593    1.6545   -3.2393 H       1  UNL1        0.2922
     49 H           6.9814    1.4295   -2.2690 H       1  UNL1        0.0377
     50 H           7.8059   -0.0926   -2.5331 H       1  UNL1        0.0377
     51 H           7.6190   -1.2652   -4.6579 H       1  UNL1        0.0620
     52 H           6.1569   -1.6573   -6.6026 H       1  UNL1        0.0618
     53 H           4.5842    0.0826   -7.3620 H       1  UNL1        0.0620
     54 H           5.9917    2.7065   -4.2465 H       1  UNL1        0.0623
     55 H           3.6836    2.2787   -7.2195 H       1  UNL1        0.0278
     56 H           4.8167    3.5021   -6.6311 H       1  UNL1        0.0278
     57 H           3.5487    2.8527   -5.5531 H       1  UNL1        0.0278
     58 H          15.2471   -1.7613   -5.4068 H       1  UNL1        0.0433
     59 H          15.6051   -0.7650   -3.9819 H       1  UNL1        0.0433
     60 H          14.1504   -0.4734   -5.0109 H       1  UNL1        0.0433
@<TRIPOS>BOND
     1     1     2    3
     2     2     3    1
     3     3     4    1
     4     4     5    1
     5     5     6    1
     6     6     7    1
     7     7     8   ar
     8     8     9   ar
     9     9    10   ar
    10    10    11   ar
    11    11    12   ar
    12     7    12   ar
    13    10    13    1
    14    13    14   am
    15    14    15    2
    16    14    16    1
    17    16    17   ar
    18    17    18   ar
    19    18    19   ar
    20    19    20   ar
    21    20    21   ar
    22    21    22    1
    23    21    23   ar
    24    18    23   ar
    25    23    24   ar
    26    24    25   ar
    27    16    25   ar
    28    25    26    1
    29    19    27    1
    30    27    28    1
    31    28    29   ar
    32    29    30   ar
    33    30    31   ar
    34    31    32   ar
    35    32    33   ar
    36    28    33   ar
    37    32    34    1
    38    13    35    1
    39     3    36    1
    40     3    37    1
    41     4    38    1
    42     4    39    1
    43     5    40    1
    44     5    41    1
    45     8    42    1
    46     9    43    1
    47    11    44    1
    48    12    45    1
    49    17    46    1
    50    24    47    1
    51    26    48    1
    52    27    49    1
    53    27    50    1
    54    29    51    1
    55    30    52    1
    56    31    53    1
    57    33    54    1
    58    34    55    1
    59    34    56    1
    60    34    57    1
    61    35    58    1
    62    35    59    1
    63    35    60    1
@<TRIPOS>MOLECULE
*****
 50 53 0 0 0
SMALL
GASTEIGER

@<TRIPOS>ATOM
      1 O          11.8765   -3.4017   -1.2213 O.3     1  UNL1       -0.5068
      2 C          11.1298   -2.2817   -1.0406 C.ar    1  UNL1        0.1170
      3 C           9.7528   -2.3558   -0.8635 C.ar    1  UNL1       -0.0184
      4 C           8.9915   -1.1764   -0.7705 C.ar    1  UNL1       -0.0368
      5 C           9.5932    0.0869   -0.8836 C.ar    1  UNL1        0.0365
      6 C          11.0057    0.1112   -0.9837 C.ar    1  UNL1       -0.0368
      7 C          11.7684   -1.0555   -1.0647 C.ar    1  UNL1       -0.0184
      8 N           8.8431    1.3316   -0.9915 N.am    1  UNL1       -0.2704
      9 C           7.5155    1.5008   -0.5021 C.2     1  UNL1        0.2541
     10 O           6.8670    0.5877    0.0216 O.2     1  UNL1       -0.2695
     11 C           6.7634    2.8258   -0.5912 C.ar    1  UNL1        0.0793
     12 C           5.3492    2.7506   -0.7608 C.ar    1  UNL1       -0.0351
     13 C           4.5502    3.9259   -0.7630 C.ar    1  UNL1        0.0239
     14 C           3.1562    4.2648   -0.7913 C.ar    1  UNL1        0.0748
     15 N           2.9712    5.5965   -0.7326 N.ar    1  UNL1       -0.1774
     16 N           4.2081    6.0998   -0.6785 N.ar    1  UNL1       -0.2766
     17 H           4.3122    7.1053   -0.6111 H       1  UNL1        0.1889
     18 C           5.1938    5.1523   -0.6603 C.ar    1  UNL1        0.0695
     19 C           6.5724    5.2832   -0.5123 C.ar    1  UNL1        0.0060
     20 C           7.3261    4.1012   -0.4214 C.ar    1  UNL1        0.1310
     21 O           8.6418    4.2762   -0.0869 O.3     1  UNL1       -0.5059
     22 C           1.9513    3.3733   -0.7553 C.3     1  UNL1        0.0171
     23 C           1.5503    3.0582   -2.1783 C.ar    1  UNL1       -0.0413
     24 C           1.2368    4.0680   -3.1024 C.ar    1  UNL1       -0.0582
     25 C           0.9012    3.7516   -4.4186 C.ar    1  UNL1       -0.0612
     26 C           0.8309    2.4194   -4.8200 C.ar    1  UNL1       -0.0588
     27 C           1.0599    1.3928   -3.8990 C.ar    1  UNL1       -0.0502
     28 C           1.4148    1.7202   -2.5822 C.ar    1  UNL1       -0.0553
     29 C           0.9178   -0.0449   -4.3019 C.3     1  UNL1       -0.0397
     30 C           9.5437    2.3797   -1.7363 C.3     1  UNL1        0.0086
     31 H          11.5922   -3.7848   -2.0714 H       1  UNL1        0.2921
     32 H           9.2623   -3.3229   -0.8052 H       1  UNL1        0.0655
     33 H           7.9173   -1.2871   -0.6641 H       1  UNL1        0.0637
     34 H          11.5550    1.0495   -0.9969 H       1  UNL1        0.0637
     35 H          12.8476   -1.0052   -1.1726 H       1  UNL1        0.0655
     36 H           4.8657    1.7796   -0.8468 H       1  UNL1        0.0633
     37 H           7.0237    6.2606   -0.3821 H       1  UNL1        0.0675
     38 H           8.9343    5.1392   -0.4257 H       1  UNL1        0.2922
     39 H           1.1141    3.8629   -0.2415 H       1  UNL1        0.0377
     40 H           2.1847    2.4621   -0.1938 H       1  UNL1        0.0377
     41 H           1.2641    5.1147   -2.8031 H       1  UNL1        0.0620
     42 H           0.6955    4.5459   -5.1311 H       1  UNL1        0.0618
     43 H           0.5846    2.1889   -5.8535 H       1  UNL1        0.0620
     44 H           1.5828    0.9201   -1.8632 H       1  UNL1        0.0623
     45 H           0.6803   -0.1403   -5.3665 H       1  UNL1        0.0278
     46 H           0.1088   -0.5166   -3.7345 H       1  UNL1        0.0278
     47 H           1.8519   -0.5840   -4.1167 H       1  UNL1        0.0278
     48 H          10.1612    1.9536   -2.5340 H       1  UNL1        0.0433
     49 H          10.2014    2.9185   -1.0466 H       1  UNL1        0.0433
     50 H           8.8474    3.0514   -2.2368 H       1  UNL1        0.0433
@<TRIPOS>BOND
     1     1     2    1
     2     2     3   ar
     3     3     4   ar
     4     4     5   ar
     5     5     6   ar
     6     6     7   ar
     7     2     7   ar
     8     5     8    1
     9     8     9   am
    10     9    10    2
    11     9    11    1
    12    11    12   ar
    13    12    13   ar
    14    13    14   ar
    15    14    15   ar
    16    15    16   ar
    17    16    17    1
    18    16    18   ar
    19    13    18   ar
    20    18    19   ar
    21    19    20   ar
    22    11    20   ar
    23    20    21    1
    24    14    22    1
    25    22    23    1
    26    23    24   ar
    27    24    25   ar
    28    25    26   ar
    29    26    27   ar
    30    27    28   ar
    31    23    28   ar
    32    27    29    1
    33     8    30    1
    34     1    31    1
    35     3    32    1
    36     4    33    1
    37     6    34    1
    38     7    35    1
    39    12    36    1
    40    19    37    1
    41    21    38    1
    42    22    39    1
    43    22    40    1
    44    24    41    1
    45    25    42    1
    46    26    43    1
    47    28    44    1
    48    29    45    1
    49    29    46    1
    50    29    47    1
    51    30    48    1
    52    30    49    1
    53    30    50    1
@<TRIPOS>MOLECULE
*****
 49 52 0 0 0
SMALL
GASTEIGER

@<TRIPOS>ATOM
      1 C           4.5557   -0.7860   -5.0582 C.3     1  UNL1       -0.0397
      2 C           5.4386   -1.4292   -4.0298 C.ar    1  UNL1       -0.0502
      3 C           6.6034   -2.1041   -4.4098 C.ar    1  UNL1       -0.0588
      4 C           7.3328   -2.8302   -3.4698 C.ar    1  UNL1       -0.0612
      5 C           6.8794   -2.9141   -2.1484 C.ar    1  UNL1       -0.0582
      6 C           5.7164   -2.2426   -1.7452 C.ar    1  UNL1       -0.0413
      7 C           5.0215   -1.4758   -2.6920 C.ar    1  UNL1       -0.0553
      8 C           5.1768   -2.3901   -0.3375 C.3     1  UNL1        0.0171
      9 C           4.2216   -3.5498   -0.3620 C.ar    1  UNL1        0.0748
     10 N           4.7100   -4.7969   -0.2433 N.ar    1  UNL1       -0.1774
     11 N           3.6340   -5.5837   -0.3501 N.ar    1  UNL1       -0.2766
     12 H           3.7618   -6.5858   -0.3098 H       1  UNL1        0.1889
     13 C           2.4514   -4.9031   -0.4905 C.ar    1  UNL1        0.0695
     14 C           2.7930   -3.5550   -0.4455 C.ar    1  UNL1        0.0239
     15 C           1.7473   -2.6073   -0.4855 C.ar    1  UNL1       -0.0351
     16 C           0.4029   -3.0474   -0.5724 C.ar    1  UNL1        0.0793
     17 C           0.1288   -4.4087   -0.7588 C.ar    1  UNL1        0.1310
     18 C           1.1405   -5.3639   -0.6637 C.ar    1  UNL1        0.0060
     19 O          -1.1248   -4.8911   -1.0273 O.3     1  UNL1       -0.5059
     20 C          -0.6591   -2.0152   -0.5223 C.2     1  UNL1        0.2541
     21 O          -0.4890   -1.1007   -1.3303 O.2     1  UNL1       -0.2695
     22 N          -1.7144   -2.0900    0.4401 N.am    1  UNL1       -0.2703
     23 C          -2.6153   -0.9628    0.6750 C.ar    1  UNL1        0.0390
     24 C          -2.6927    0.1450   -0.1869 C.ar    1  UNL1       -0.0401
     25 C          -3.3685    1.3220    0.1749 C.ar    1  UNL1       -0.0573
     26 C          -4.0324    1.4026    1.3905 C.ar    1  UNL1       -0.0263
     27 C          -4.0776    0.2785    2.1958 C.ar    1  UNL1        0.1252
     28 C          -3.3961   -0.8908    1.8428 C.ar    1  UNL1       -0.0050
     29 F          -4.7484    0.3237    3.3535 F       1  UNL1       -0.2054
     30 C          -1.7433   -3.1384    1.4779 C.3     1  UNL1        0.0086
     31 H           5.1158   -0.5176   -5.9585 H       1  UNL1        0.0278
     32 H           4.0932    0.1240   -4.6641 H       1  UNL1        0.0278
     33 H           3.7663   -1.4923   -5.3361 H       1  UNL1        0.0278
     34 H           6.9361   -2.0890   -5.4459 H       1  UNL1        0.0620
     35 H           8.2279   -3.3653   -3.7733 H       1  UNL1        0.0618
     36 H           7.4293   -3.5347   -1.4429 H       1  UNL1        0.0620
     37 H           4.1203   -0.9431   -2.3961 H       1  UNL1        0.0623
     38 H           4.6843   -1.4681   -0.0128 H       1  UNL1        0.0377
     39 H           5.9991   -2.5785    0.3645 H       1  UNL1        0.0377
     40 H           1.9679   -1.5432   -0.4415 H       1  UNL1        0.0633
     41 H           0.9151   -6.4255   -0.7375 H       1  UNL1        0.0675
     42 H          -1.6914   -4.1645   -1.3266 H       1  UNL1        0.2922
     43 H          -2.2189    0.1488   -1.1635 H       1  UNL1        0.0636
     44 H          -3.3466    2.1795   -0.4948 H       1  UNL1        0.0619
     45 H          -4.5157    2.3193    1.7065 H       1  UNL1        0.0646
     46 H          -3.4807   -1.7053    2.5528 H       1  UNL1        0.0665
     47 H          -1.1461   -4.0173    1.2507 H       1  UNL1        0.0433
     48 H          -2.7678   -3.4903    1.6219 H       1  UNL1        0.0433
     49 H          -1.3380   -2.7189    2.4053 H       1  UNL1        0.0433
@<TRIPOS>BOND
     1     1     2    1
     2     2     3   ar
     3     3     4   ar
     4     4     5   ar
     5     5     6   ar
     6     6     7   ar
     7     2     7   ar
     8     6     8    1
     9     8     9    1
    10     9    10   ar
    11    10    11   ar
    12    11    12    1
    13    11    13   ar
    14    13    14   ar
    15     9    14   ar
    16    14    15   ar
    17    15    16   ar
    18    16    17   ar
    19    17    18   ar
    20    13    18   ar
    21    17    19    1
    22    16    20    1
    23    20    21    2
    24    20    22   am
    25    22    23    1
    26    23    24   ar
    27    24    25   ar
    28    25    26   ar
    29    26    27   ar
    30    27    28   ar
    31    23    28   ar
    32    27    29    1
    33    22    30    1
    34     1    31    1
    35     1    32    1
    36     1    33    1
    37     3    34    1
    38     4    35    1
    39     5    36    1
    40     7    37    1
    41     8    38    1
    42     8    39    1
    43    15    40    1
    44    18    41    1
    45    19    42    1
    46    24    43    1
    47    25    44    1
    48    26    45    1
    49    28    46    1
    50    30    47    1
    51    30    48    1
    52    30    49    1
@<TRIPOS>MOLECULE
*****
 54 57 0 0 0
SMALL
GASTEIGER

@<TRIPOS>ATOM
      1 C           4.9450    0.2356   -4.3577 C.3     1  UNL1       -0.0397
      2 C           5.5238   -0.9459   -3.6378 C.ar    1  UNL1       -0.0502
      3 C           6.2508   -1.9203   -4.3305 C.ar    1  UNL1       -0.0588
      4 C           6.6717   -3.0748   -3.6768 C.ar    1  UNL1       -0.0612
      5 C           6.3330   -3.2817   -2.3368 C.ar    1  UNL1       -0.0582
      6 C           5.5774   -2.3314   -1.6289 C.ar    1  UNL1       -0.0413
      7 C           5.2218   -1.1437   -2.2825 C.ar    1  UNL1       -0.0553
      8 C           5.1342   -2.5756   -0.2028 C.3     1  UNL1        0.0171
      9 C           4.1531   -3.7070   -0.2286 C.ar    1  UNL1        0.0748
     10 N           4.6136   -4.9658   -0.0989 N.ar    1  UNL1       -0.1774
     11 N           3.5190   -5.7252   -0.2133 N.ar    1  UNL1       -0.2766
     12 H           3.6275   -6.7334   -0.1636 H       1  UNL1        0.1889
     13 C           2.3564   -5.0233   -0.3650 C.ar    1  UNL1        0.0695
     14 C           2.7251   -3.6844   -0.3166 C.ar    1  UNL1        0.0239
     15 C           1.6946   -2.7182   -0.3606 C.ar    1  UNL1       -0.0351
     16 C           0.3413   -3.1381   -0.4535 C.ar    1  UNL1        0.0793
     17 C           0.0476   -4.4876   -0.6513 C.ar    1  UNL1        0.1310
     18 C           1.0396   -5.4602   -0.5528 C.ar    1  UNL1        0.0060
     19 O          -1.2131   -4.9519   -0.9272 O.3     1  UNL1       -0.5059
     20 C          -0.7106   -2.0871   -0.3718 C.2     1  UNL1        0.2541
     21 O          -0.5116   -1.1346   -1.1249 O.2     1  UNL1       -0.2695
     22 N          -1.7902   -2.2099    0.5529 N.am    1  UNL1       -0.2704
     23 C          -2.6983   -1.0883    0.7952 C.ar    1  UNL1        0.0363
     24 C          -2.7707    0.0279   -0.0487 C.ar    1  UNL1       -0.0396
     25 C          -3.3559    1.2295    0.3771 C.ar    1  UNL1       -0.0495
     26 C          -3.9250    1.3179    1.6452 C.ar    1  UNL1        0.0172
     27 C          -4.0794    0.1587    2.3963 C.ar    1  UNL1       -0.0495
     28 C          -3.4797   -1.0314    1.9677 C.ar    1  UNL1       -0.0396
     29 C          -4.2714    2.6549    2.1930 C.2     1  UNL1        0.1601
     30 O          -4.5963    3.5628    1.4321 O.2     1  UNL1       -0.2924
     31 C          -4.1177    2.8907    3.6781 C.3     1  UNL1       -0.0014
     32 C          -1.7968   -3.2510    1.5972 C.3     1  UNL1        0.0086
     33 H           5.4797    0.4427   -5.2895 H       1  UNL1        0.0278
     34 H           4.9907    1.1352   -3.7361 H       1  UNL1        0.0278
     35 H           3.8976    0.0235   -4.5978 H       1  UNL1        0.0278
     36 H           6.4761   -1.7935   -5.3866 H       1  UNL1        0.0620
     37 H           7.2339   -3.8326   -4.2158 H       1  UNL1        0.0618
     38 H           6.6372   -4.2083   -1.8529 H       1  UNL1        0.0620
     39 H           4.6739   -0.3744   -1.7437 H       1  UNL1        0.0623
     40 H           4.6747   -1.6743    0.2290 H       1  UNL1        0.0377
     41 H           6.0079   -2.8126    0.4213 H       1  UNL1        0.0377
     42 H           1.9332   -1.6551   -0.3195 H       1  UNL1        0.0633
     43 H           0.7929   -6.5155   -0.6277 H       1  UNL1        0.0675
     44 H          -1.7674   -4.2051   -1.2237 H       1  UNL1        0.2922
     45 H          -2.3292    0.0297   -1.0403 H       1  UNL1        0.0636
     46 H          -3.2966    2.1072   -0.2643 H       1  UNL1        0.0625
     47 H          -4.6146    0.1648    3.3419 H       1  UNL1        0.0625
     48 H          -3.5913   -1.8800    2.6352 H       1  UNL1        0.0636
     49 H          -3.7488    2.0131    4.2149 H       1  UNL1        0.0309
     50 H          -5.0813    3.1806    4.1013 H       1  UNL1        0.0309
     51 H          -3.3839    3.6876    3.8341 H       1  UNL1        0.0309
     52 H          -1.1859   -4.1188    1.3764 H       1  UNL1        0.0433
     53 H          -2.8158   -3.6232    1.7482 H       1  UNL1        0.0433
     54 H          -1.3958   -2.8192    2.5204 H       1  UNL1        0.0433
@<TRIPOS>BOND
     1     1     2    1
     2     2     3   ar
     3     3     4   ar
     4     4     5   ar
     5     5     6   ar
     6     6     7   ar
     7     2     7   ar
     8     6     8    1
     9     8     9    1
    10     9    10   ar
    11    10    11   ar
    12    11    12    1
    13    11    13   ar
    14    13    14   ar
    15     9    14   ar
    16    14    15   ar
    17    15    16   ar
    18    16    17   ar
    19    17    18   ar
    20    13    18   ar
    21    17    19    1
    22    16    20    1
    23    20    21    2
    24    20    22   am
    25    22    23    1
    26    23    24   ar
    27    24    25   ar
    28    25    26   ar
    29    26    27   ar
    30    27    28   ar
    31    23    28   ar
    32    26    29    1
    33    29    30    2
    34    29    31    1
    35    22    32    1
    36     1    33    1
    37     1    34    1
    38     1    35    1
    39     3    36    1
    40     4    37    1
    41     5    38    1
    42     7    39    1
    43     8    40    1
    44     8    41    1
    45    15    42    1
    46    18    43    1
    47    19    44    1
    48    24    45    1
    49    25    46    1
    50    27    47    1
    51    28    48    1
    52    31    49    1
    53    31    50    1
    54    31    51    1
    55    32    52    1
    56    32    53    1
    57    32    54    1
@<TRIPOS>MOLECULE
*****
 60 63 0 0 0
SMALL
GASTEIGER

@<TRIPOS>ATOM
      1 C           4.4952   -0.7922   -4.9657 C.3     1  UNL1       -0.0397
      2 C           5.4004   -1.4394   -3.9608 C.ar    1  UNL1       -0.0502
      3 C           6.5651   -2.0968   -4.3662 C.ar    1  UNL1       -0.0588
      4 C           7.3104   -2.8338   -3.4460 C.ar    1  UNL1       -0.0612
      5 C           6.8774   -2.9512   -2.1259 C.ar    1  UNL1       -0.0582
      6 C           5.7052   -2.2936   -1.6958 C.ar    1  UNL1       -0.0413
      7 C           4.9982   -1.5117   -2.6200 C.ar    1  UNL1       -0.0553
      8 C           5.1763   -2.4681   -0.2866 C.3     1  UNL1        0.0171
      9 C           4.2005   -3.6046   -0.3240 C.ar    1  UNL1        0.0748
     10 N           4.6708   -4.8608   -0.2106 N.ar    1  UNL1       -0.1774
     11 N           3.5831   -5.6311   -0.3266 N.ar    1  UNL1       -0.2766
     12 H           3.6995   -6.6363   -0.2758 H       1  UNL1        0.1889
     13 C           2.4113   -4.9418   -0.4495 C.ar    1  UNL1        0.0695
     14 C           2.7654   -3.5952   -0.4054 C.ar    1  UNL1        0.0239
     15 C           1.7249   -2.6374   -0.4405 C.ar    1  UNL1       -0.0351
     16 C           0.3750   -3.0693   -0.5164 C.ar    1  UNL1        0.0793
     17 C           0.0896   -4.4237   -0.6940 C.ar    1  UNL1        0.1310
     18 C           1.0945   -5.3887   -0.6104 C.ar    1  UNL1        0.0060
     19 O          -1.1667   -4.8999   -0.9657 O.3     1  UNL1       -0.5059
     20 C          -0.6910   -2.0340   -0.4529 C.2     1  UNL1        0.2541
     21 O          -0.5196   -1.0610   -1.1892 O.2     1  UNL1       -0.2695
     22 N          -1.7795   -2.1780    0.4536 N.am    1  UNL1       -0.2704
     23 C          -2.6348   -1.0284    0.6248 C.ar    1  UNL1        0.0363
     24 C          -3.1750   -0.3630   -0.4825 C.ar    1  UNL1       -0.0400
     25 C          -3.7284    0.9157   -0.3469 C.ar    1  UNL1       -0.0555
     26 C          -3.7320    1.5496    0.9011 C.ar    1  UNL1       -0.0318
     27 C          -3.3511    0.8154    2.0300 C.ar    1  UNL1       -0.0555
     28 C          -2.8291   -0.4718    1.8958 C.ar    1  UNL1       -0.0400
     29 C          -3.9087    3.0435    1.0209 C.3     1  UNL1        0.0421
     30 N          -5.1302    3.5590    0.3999 N.3     1  UNL1       -0.1905
     31 S          -5.2824    5.2388    0.4138 S.O2    1  UNL1        0.0268
     32 O          -6.6134    5.5240   -0.0702 O.2     1  UNL1       -0.1585
     33 O          -4.8301    5.7129    1.7011 O.2     1  UNL1       -0.1585
     34 C          -4.1064    5.7383   -0.8320 C.3     1  UNL1        0.0705
     35 C          -1.7606   -3.1257    1.5768 C.3     1  UNL1        0.0086
     36 H           5.0371   -0.5054   -5.8718 H       1  UNL1        0.0278
     37 H           4.0276    0.1070   -4.5527 H       1  UNL1        0.0278
     38 H           3.7092   -1.5043   -5.2402 H       1  UNL1        0.0278
     39 H           6.8871   -2.0604   -5.4049 H       1  UNL1        0.0620
     40 H           8.2079   -3.3537   -3.7677 H       1  UNL1        0.0618
     41 H           7.4341   -3.5760   -1.4350 H       1  UNL1        0.0620
     42 H           4.0983   -0.9896   -2.3041 H       1  UNL1        0.0623
     43 H           4.7079   -1.5455    0.0692 H       1  UNL1        0.0377
     44 H           6.0040   -2.6918    0.3998 H       1  UNL1        0.0377
     45 H           1.9559   -1.5760   -0.4011 H       1  UNL1        0.0633
     46 H           0.8553   -6.4436   -0.6886 H       1  UNL1        0.0675
     47 H          -1.7426   -4.1590   -1.2286 H       1  UNL1        0.2922
     48 H          -3.1053   -0.8023   -1.4750 H       1  UNL1        0.0636
     49 H          -4.0624    1.4454   -1.2369 H       1  UNL1        0.0621
     50 H          -3.3623    1.2745    3.0168 H       1  UNL1        0.0621
     51 H          -2.4574   -0.9544    2.7940 H       1  UNL1        0.0636
     52 H          -3.0311    3.4928    0.5421 H       1  UNL1        0.0490
     53 H          -3.8927    3.3276    2.0789 H       1  UNL1        0.0490
     54 H          -5.9867    3.1318    0.7561 H       1  UNL1        0.1480
     55 H          -4.3584    5.2531   -1.7753 H       1  UNL1        0.0479
     56 H          -3.0988    5.4712   -0.5073 H       1  UNL1        0.0479
     57 H          -4.1718    6.8235   -0.9380 H       1  UNL1        0.0479
     58 H          -1.4029   -4.1109    1.2907 H       1  UNL1        0.0433
     59 H          -2.7780   -3.2637    1.9614 H       1  UNL1        0.0433
     60 H          -1.0989   -2.7465    2.3607 H       1  UNL1        0.0433
@<TRIPOS>BOND
     1     1     2    1
     2     2     3   ar
     3     3     4   ar
     4     4     5   ar
     5     5     6   ar
     6     6     7   ar
     7     2     7   ar
     8     6     8    1
     9     8     9    1
    10     9    10   ar
    11    10    11   ar
    12    11    12    1
    13    11    13   ar
    14    13    14   ar
    15     9    14   ar
    16    14    15   ar
    17    15    16   ar
    18    16    17   ar
    19    17    18   ar
    20    13    18   ar
    21    17    19    1
    22    16    20    1
    23    20    21    2
    24    20    22   am
    25    22    23    1
    26    23    24   ar
    27    24    25   ar
    28    25    26   ar
    29    26    27   ar
    30    27    28   ar
    31    23    28   ar
    32    26    29    1
    33    29    30    1
    34    30    31    1
    35    31    32    2
    36    31    33    2
    37    31    34    1
    38    22    35    1
    39     1    36    1
    40     1    37    1
    41     1    38    1
    42     3    39    1
    43     4    40    1
    44     5    41    1
    45     7    42    1
    46     8    43    1
    47     8    44    1
    48    15    45    1
    49    18    46    1
    50    19    47    1
    51    24    48    1
    52    25    49    1
    53    27    50    1
    54    28    51    1
    55    29    52    1
    56    29    53    1
    57    30    54    1
    58    34    55    1
    59    34    56    1
    60    34    57    1
    61    35    58    1
    62    35    59    1
    63    35    60    1
@<TRIPOS>MOLECULE
*****
 55 59 0 0 0
SMALL
GASTEIGER

@<TRIPOS>ATOM
      1 C           5.0294    0.5835   -4.4445 C.3     1  UNL1       -0.0397
      2 C           5.5513   -0.6759   -3.8244 C.ar    1  UNL1       -0.0502
      3 C           6.2384   -1.6247   -4.5879 C.ar    1  UNL1       -0.0588
      4 C           6.6164   -2.8423   -4.0232 C.ar    1  UNL1       -0.0612
      5 C           6.2802   -3.1331   -2.7016 C.ar    1  UNL1       -0.0582
      6 C           5.5729   -2.2038   -1.9246 C.ar    1  UNL1       -0.0413
      7 C           5.2518   -0.9602   -2.4871 C.ar    1  UNL1       -0.0553
      8 C           5.1953   -2.4926   -0.4971 C.3     1  UNL1        0.0171
      9 C           4.2106   -3.6206   -0.4740 C.ar    1  UNL1        0.0748
     10 N           4.6577   -4.8824   -0.3510 N.ar    1  UNL1       -0.1774
     11 N           3.5563   -5.5918   -0.0730 N.ar    1  UNL1       -0.2766
     12 H           3.6506   -6.5909    0.0698 H       1  UNL1        0.1889
     13 C           2.4300   -4.8313    0.0721 C.ar    1  UNL1        0.0695
     14 C           2.7867   -3.5543   -0.3515 C.ar    1  UNL1        0.0239
     15 C           1.7810   -2.5648   -0.4443 C.ar    1  UNL1       -0.0351
     16 C           0.4696   -2.8924   -0.0442 C.ar    1  UNL1        0.0793
     17 C           0.2203   -4.1280    0.5723 C.ar    1  UNL1        0.1310
     18 C           1.1695   -5.1475    0.5799 C.ar    1  UNL1        0.0060
     19 O          -0.9492   -4.3975    1.2376 O.3     1  UNL1       -0.5059
     20 C          -0.6583   -1.9261   -0.1768 C.2     1  UNL1        0.2541
     21 O          -1.3503   -1.8347    0.8412 O.2     1  UNL1       -0.2695
     22 N          -0.9075   -1.2720   -1.4070 N.am    1  UNL1       -0.2703
     23 C          -1.8360   -0.1531   -1.5171 C.ar    1  UNL1        0.0400
     24 C          -2.3637    0.4972   -0.3920 C.ar    1  UNL1       -0.0366
     25 C          -3.1375    1.6632   -0.5029 C.ar    1  UNL1       -0.0145
     26 C          -3.4289    2.1865   -1.7507 C.ar    1  UNL1        0.1622
     27 C          -3.0185    1.5079   -2.8902 C.ar    1  UNL1        0.1638
     28 C          -2.1981    0.3708   -2.7754 C.ar    1  UNL1        0.0051
     29 O          -3.3611    1.8984   -4.1621 O.3     1  UNL1       -0.4849
     30 C          -4.4561    2.8333   -4.1139 C.3     1  UNL1        0.1237
     31 C          -4.1469    3.9238   -3.1072 C.3     1  UNL1        0.1237
     32 O          -4.1261    3.3676   -1.7849 O.3     1  UNL1       -0.4849
     33 C          -0.2829   -1.7275   -2.6564 C.3     1  UNL1        0.0086
     34 H           5.5515    0.8207   -5.3768 H       1  UNL1        0.0278
     35 H           5.1483    1.4355   -3.7668 H       1  UNL1        0.0278
     36 H           3.9646    0.4538   -4.6671 H       1  UNL1        0.0278
     37 H           6.4730   -1.4285   -5.6313 H       1  UNL1        0.0620
     38 H           7.1522   -3.5769   -4.6188 H       1  UNL1        0.0618
     39 H           6.5598   -4.0981   -2.2809 H       1  UNL1        0.0620
     40 H           4.7485   -0.2075   -1.8831 H       1  UNL1        0.0623
     41 H           4.7525   -1.6103   -0.0195 H       1  UNL1        0.0377
     42 H           6.0910   -2.7445    0.0835 H       1  UNL1        0.0377
     43 H           2.0170   -1.5718   -0.8143 H       1  UNL1        0.0633
     44 H           0.9515   -6.1142    1.0214 H       1  UNL1        0.0675
     45 H          -1.3684   -3.5307    1.4468 H       1  UNL1        0.2922
     46 H          -2.1692    0.1566    0.6175 H       1  UNL1        0.0637
     47 H          -3.4904    2.1637    0.3938 H       1  UNL1        0.0656
     48 H          -1.8841   -0.0802   -3.7072 H       1  UNL1        0.0674
     49 H          -5.3724    2.2903   -3.8498 H       1  UNL1        0.0731
     50 H          -4.5830    3.2536   -5.1177 H       1  UNL1        0.0731
     51 H          -4.9196    4.6961   -3.1282 H       1  UNL1        0.0731
     52 H          -3.1786    4.3981   -3.3088 H       1  UNL1        0.0731
     53 H           0.3434   -2.6109   -2.5334 H       1  UNL1        0.0433
     54 H           0.3321   -0.9160   -3.0572 H       1  UNL1        0.0433
     55 H          -1.0571   -2.0158   -3.3751 H       1  UNL1        0.0433
@<TRIPOS>BOND
     1     1     2    1
     2     2     3   ar
     3     3     4   ar
     4     4     5   ar
     5     5     6   ar
     6     6     7   ar
     7     2     7   ar
     8     6     8    1
     9     8     9    1
    10     9    10   ar
    11    10    11   ar
    12    11    12    1
    13    11    13   ar
    14    13    14   ar
    15     9    14   ar
    16    14    15   ar
    17    15    16   ar
    18    16    17   ar
    19    17    18   ar
    20    13    18   ar
    21    17    19    1
    22    16    20    1
    23    20    21    2
    24    20    22   am
    25    22    23    1
    26    23    24   ar
    27    24    25   ar
    28    25    26   ar
    29    26    27   ar
    30    27    28   ar
    31    23    28   ar
    32    27    29    1
    33    29    30    1
    34    30    31    1
    35    31    32    1
    36    26    32    1
    37    22    33    1
    38     1    34    1
    39     1    35    1
    40     1    36    1
    41     3    37    1
    42     4    38    1
    43     5    39    1
    44     7    40    1
    45     8    41    1
    46     8    42    1
    47    15    43    1
    48    18    44    1
    49    19    45    1
    50    24    46    1
    51    25    47    1
    52    28    48    1
    53    30    49    1
    54    30    50    1
    55    31    51    1
    56    31    52    1
    57    33    53    1
    58    33    54    1
    59    33    55    1
@<TRIPOS>MOLECULE
*****
 62 66 0 0 0
SMALL
GASTEIGER

@<TRIPOS>ATOM
      1 C          -1.7394  -10.2732   -8.6587 C.3     1  UNL1       -0.0397
      2 C          -1.8771   -8.8545   -8.1978 C.ar    1  UNL1       -0.0502
      3 C          -1.1928   -7.8128   -8.8308 C.ar    1  UNL1       -0.0588
      4 C          -1.2466   -6.5184   -8.3117 C.ar    1  UNL1       -0.0612
      5 C          -1.9487   -6.2670   -7.1333 C.ar    1  UNL1       -0.0582
      6 C          -2.6180   -7.3049   -6.4703 C.ar    1  UNL1       -0.0413
      7 C          -2.6159   -8.5840   -7.0425 C.ar    1  UNL1       -0.0553
      8 C          -3.3837   -7.0763   -5.2002 C.3     1  UNL1        0.0171
      9 C          -2.4436   -6.6809   -4.1048 C.ar    1  UNL1        0.0748
     10 N          -2.2152   -5.3752   -3.8820 N.ar    1  UNL1       -0.1774
     11 N          -1.7542   -5.3411   -2.6257 N.ar    1  UNL1       -0.2766
     12 H          -1.5376   -4.4389   -2.2172 H       1  UNL1        0.1889
     13 C          -1.7299   -6.5637   -2.0154 C.ar    1  UNL1        0.0695
     14 C          -1.9556   -7.4904   -3.0295 C.ar    1  UNL1        0.0239
     15 C          -1.8130   -8.8674   -2.7361 C.ar    1  UNL1       -0.0351
     16 C          -1.5082   -9.2467   -1.4132 C.ar    1  UNL1        0.0793
     17 C          -1.5268   -8.2822   -0.3932 C.ar    1  UNL1        0.1310
     18 C          -1.5841   -6.9191   -0.6750 C.ar    1  UNL1        0.0060
     19 O          -1.5085   -8.6137    0.9386 O.3     1  UNL1       -0.5059
     20 C          -1.2119  -10.6585   -1.0312 C.2     1  UNL1        0.2541
     21 O          -1.8434  -11.0391   -0.0406 O.2     1  UNL1       -0.2695
     22 N          -0.1915  -11.3850   -1.6924 N.am    1  UNL1       -0.2704
     23 C           0.1967  -12.7293   -1.2633 C.ar    1  UNL1        0.0380
     24 C          -0.5711  -13.5169   -0.3852 C.ar    1  UNL1       -0.0399
     25 C          -0.0923  -14.7233    0.1600 C.ar    1  UNL1       -0.0550
     26 C           1.1975  -15.1207   -0.1575 C.ar    1  UNL1       -0.0247
     27 C           1.9612  -14.3928   -1.0508 C.ar    1  UNL1        0.0366
     28 C           1.4370  -13.2658   -1.6700 C.ar    1  UNL1       -0.0189
     29 N           3.2720  -14.8967   -1.1914 N.pl3   1  UNL1       -0.3044
     30 C           3.4011  -15.8816   -0.0999 C.3     1  UNL1        0.0186
     31 C           1.9791  -16.2840    0.3464 C.3     1  UNL1       -0.0101
     32 C           4.3484  -13.9383   -1.4066 C.3     1  UNL1        0.1190
     33 H           4.2173  -13.4598   -2.3839 H       1  UNL1        0.0804
     34 O           5.5818  -14.6386   -1.4584 O.3     1  UNL1       -0.3746
     35 C           4.4475  -12.8650   -0.3193 C.3     1  UNL1       -0.0219
     36 C           0.7393  -10.7231   -2.6219 C.3     1  UNL1        0.0086
     37 H          -1.3396  -10.3327   -9.6749 H       1  UNL1        0.0278
     38 H          -2.7069  -10.7857   -8.6436 H       1  UNL1        0.0278
     39 H          -1.0522  -10.7952   -7.9841 H       1  UNL1        0.0278
     40 H          -0.6032   -8.0024   -9.7238 H       1  UNL1        0.0620
     41 H          -0.7183   -5.7104   -8.8113 H       1  UNL1        0.0618
     42 H          -1.9628   -5.2570   -6.7254 H       1  UNL1        0.0620
     43 H          -3.1826   -9.3866   -6.5737 H       1  UNL1        0.0623
     44 H          -3.9266   -7.9802   -4.8981 H       1  UNL1        0.0377
     45 H          -4.1420   -6.2987   -5.3541 H       1  UNL1        0.0377
     46 H          -1.9120   -9.6129   -3.5194 H       1  UNL1        0.0633
     47 H          -1.5715   -6.1794    0.1183 H       1  UNL1        0.0675
     48 H          -1.7538   -9.5651    1.0064 H       1  UNL1        0.2922
     49 H          -1.5685  -13.2160   -0.0824 H       1  UNL1        0.0636
     50 H          -0.7018  -15.2949    0.8459 H       1  UNL1        0.0621
     51 H           2.0447  -12.7877   -2.4206 H       1  UNL1        0.0655
     52 H           3.9349  -15.4460    0.7565 H       1  UNL1        0.0468
     53 H           3.9724  -16.7568   -0.4280 H       1  UNL1        0.0468
     54 H           1.9239  -16.3966    1.4316 H       1  UNL1        0.0329
     55 H           1.6593  -17.2053   -0.1453 H       1  UNL1        0.0329
     56 H           6.2489  -13.9912   -1.7307 H       1  UNL1        0.2117
     57 H           5.2735  -12.1808   -0.5382 H       1  UNL1        0.0271
     58 H           4.6552  -13.3032    0.6608 H       1  UNL1        0.0271
     59 H           3.5356  -12.2652   -0.2343 H       1  UNL1        0.0271
     60 H           0.4980   -9.6748   -2.8230 H       1  UNL1        0.0433
     61 H           0.7275  -11.2542   -3.5811 H       1  UNL1        0.0433
     62 H           1.7440  -10.7137   -2.1914 H       1  UNL1        0.0433
@<TRIPOS>BOND
     1     1     2    1
     2     2     3   ar
     3     3     4   ar
     4     4     5   ar
     5     5     6   ar
     6     6     7   ar
     7     2     7   ar
     8     6     8    1
     9     8     9    1
    10     9    10   ar
    11    10    11   ar
    12    11    12    1
    13    11    13   ar
    14    13    14   ar
    15     9    14   ar
    16    14    15   ar
    17    15    16   ar
    18    16    17   ar
    19    17    18   ar
    20    13    18   ar
    21    17    19    1
    22    16    20    1
    23    20    21    2
    24    20    22   am
    25    22    23    1
    26    23    24   ar
    27    24    25   ar
    28    25    26   ar
    29    26    27   ar
    30    27    28   ar
    31    23    28   ar
    32    27    29    1
    33    29    30    1
    34    30    31    1
    35    26    31    1
    36    32    34    1
    37    32    35    1
    38    22    36    1
    39    32    33    1
    40    32    29    1
    41     1    37    1
    42     1    38    1
    43     1    39    1
    44     3    40    1
    45     4    41    1
    46     5    42    1
    47     7    43    1
    48     8    44    1
    49     8    45    1
    50    15    46    1
    51    18    47    1
    52    19    48    1
    53    24    49    1
    54    25    50    1
    55    28    51    1
    56    30    52    1
    57    30    53    1
    58    31    54    1
    59    31    55    1
    60    34    56    1
    61    35    57    1
    62    35    58    1
    63    35    59    1
    64    36    60    1
    65    36    61    1
    66    36    62    1
@<TRIPOS>MOLECULE
*****
 57 60 0 0 0
SMALL
GASTEIGER

@<TRIPOS>ATOM
      1 C           5.0574    0.4379    0.1172 C.3     1  UNL1        0.0038
      2 N           4.5363   -0.5878    1.0143 N.am    1  UNL1       -0.2961
      3 C           3.1501   -0.6502    1.2158 C.2     1  UNL1        0.2502
      4 O           2.3535    0.0496    0.5927 O.2     1  UNL1       -0.2699
      5 C           2.5974   -1.5949    2.2226 C.ar    1  UNL1        0.0791
      6 C           2.7997   -2.9774    2.0918 C.ar    1  UNL1       -0.0319
      7 C           2.3534   -3.8872    3.0772 C.ar    1  UNL1        0.0619
      8 C           1.7839   -3.3526    4.2362 C.ar    1  UNL1        0.1310
      9 C           1.4508   -1.9968    4.3064 C.ar    1  UNL1        0.0228
     10 C           1.8274   -1.1278    3.2866 C.ar    1  UNL1        0.1325
     11 O           1.4647    0.1835    3.3830 O.3     1  UNL1       -0.5059
     12 O           1.5661   -4.0314    5.3988 O.3     1  UNL1       -0.5059
     13 C           2.5673   -5.3313    2.7697 C.ar    1  UNL1        0.1727
     14 N           3.5461   -5.6908    1.9733 N.ar    1  UNL1       -0.1507
     15 N           3.4832   -7.0465    1.9249 N.ar    1  UNL1       -0.2260
     16 H           4.0903   -7.6045    1.3386 H       1  UNL1        0.1937
     17 C           2.4479   -7.5269    2.7118 C.ar    1  UNL1        0.3489
     18 O           2.1523   -8.7043    2.8390 O.2     1  UNL1       -0.2446
     19 N           1.8477   -6.4024    3.2528 N.ar    1  UNL1       -0.2434
     20 C           0.7207   -6.4899    4.0944 C.ar    1  UNL1        0.0558
     21 C           0.8353   -7.2864    5.2515 C.ar    1  UNL1       -0.0374
     22 C          -0.1609   -7.2841    6.2269 C.ar    1  UNL1       -0.0598
     23 C          -1.2904   -6.4946    6.0528 C.ar    1  UNL1       -0.0614
     24 C          -1.4584   -5.7745    4.8698 C.ar    1  UNL1       -0.0569
     25 C          -0.4746   -5.7878    3.8627 C.ar    1  UNL1       -0.0264
     26 C          -0.8454   -5.2456    2.5096 C.3     1  UNL1       -0.0377
     27 C           5.5409   -1.3474    1.7673 C.3     1  UNL1        0.0400
     28 C           6.1440   -2.5364    1.0302 C.ar    1  UNL1       -0.0272
     29 C           5.7497   -2.8735   -0.2791 C.ar    1  UNL1       -0.0568
     30 C           6.3433   -3.9318   -0.9687 C.ar    1  UNL1       -0.0614
     31 C           7.3503   -4.6737   -0.3661 C.ar    1  UNL1       -0.0615
     32 C           7.7394   -4.3797    0.9388 C.ar    1  UNL1       -0.0585
     33 C           7.1382   -3.3279    1.6527 C.ar    1  UNL1       -0.0458
     34 C           7.5405   -3.1086    3.0869 C.3     1  UNL1       -0.0394
     35 H           4.2797    0.8605   -0.5228 H       1  UNL1        0.0429
     36 H           5.8406    0.0141   -0.5181 H       1  UNL1        0.0429
     37 H           5.4884    1.2412    0.7235 H       1  UNL1        0.0429
     38 H           3.3150   -3.3459    1.2068 H       1  UNL1        0.0634
     39 H           0.9412   -1.6205    5.1902 H       1  UNL1        0.0691
     40 H           0.5665    0.2201    3.7575 H       1  UNL1        0.2922
     41 H           2.0338   -4.8821    5.3820 H       1  UNL1        0.2922
     42 H           1.7243   -7.8913    5.4206 H       1  UNL1        0.0638
     43 H          -0.0489   -7.8878    7.1231 H       1  UNL1        0.0618
     44 H          -2.0609   -6.4687    6.8195 H       1  UNL1        0.0618
     45 H          -2.3809   -5.2149    4.7254 H       1  UNL1        0.0621
     46 H          -1.6120   -4.4679    2.5907 H       1  UNL1        0.0278
     47 H          -1.2551   -6.0664    1.9092 H       1  UNL1        0.0278
     48 H          -0.0015   -4.8169    1.9695 H       1  UNL1        0.0278
     49 H           5.1145   -1.6868    2.7150 H       1  UNL1        0.0514
     50 H           6.3492   -0.6472    2.0151 H       1  UNL1        0.0514
     51 H           4.9644   -2.3159   -0.7851 H       1  UNL1        0.0621
     52 H           6.0174   -4.1717   -1.9774 H       1  UNL1        0.0618
     53 H           7.8251   -5.4879   -0.9066 H       1  UNL1        0.0618
     54 H           8.5170   -4.9846    1.4009 H       1  UNL1        0.0620
     55 H           8.3792   -3.7527    3.3729 H       1  UNL1        0.0278
     56 H           6.7002   -3.3491    3.7467 H       1  UNL1        0.0278
     57 H           7.8528   -2.0737    3.2528 H       1  UNL1        0.0278
@<TRIPOS>BOND
     1     1     2    1
     2     2     3   am
     3     3     4    2
     4     3     5    1
     5     5     6   ar
     6     6     7   ar
     7     7     8   ar
     8     8     9   ar
     9     9    10   ar
    10     5    10   ar
    11    10    11    1
    12     8    12    1
    13     7    13    1
    14    13    14   ar
    15    14    15   ar
    16    15    16    1
    17    15    17   ar
    18    17    18    2
    19    17    19   ar
    20    13    19   ar
    21    19    20    1
    22    20    21   ar
    23    21    22   ar
    24    22    23   ar
    25    23    24   ar
    26    24    25   ar
    27    20    25   ar
    28    25    26    1
    29     2    27    1
    30    27    28    1
    31    28    29   ar
    32    29    30   ar
    33    30    31   ar
    34    31    32   ar
    35    32    33   ar
    36    28    33   ar
    37    33    34    1
    38     1    35    1
    39     1    36    1
    40     1    37    1
    41     6    38    1
    42     9    39    1
    43    11    40    1
    44    12    41    1
    45    21    42    1
    46    22    43    1
    47    23    44    1
    48    24    45    1
    49    26    46    1
    50    26    47    1
    51    26    48    1
    52    27    49    1
    53    27    50    1
    54    29    51    1
    55    30    52    1
    56    31    53    1
    57    32    54    1
    58    34    55    1
    59    34    56    1
    60    34    57    1
@<TRIPOS>MOLECULE
*****
 58 61 0 0 0
SMALL
GASTEIGER

@<TRIPOS>ATOM
      1 C          -1.0916   -4.7801    0.1843 C.3     1  UNL1        0.0788
      2 O           0.1447   -4.5107   -0.4757 O.3     1  UNL1       -0.4948
      3 C           1.2211   -4.1251    0.2802 C.ar    1  UNL1        0.1248
      4 C           1.2622   -4.1558    1.6761 C.ar    1  UNL1       -0.0196
      5 C           2.3704   -3.6432    2.3600 C.ar    1  UNL1       -0.0583
      6 C           3.5106   -3.2550    1.6651 C.ar    1  UNL1       -0.0612
      7 C           3.5129   -3.2906    0.2813 C.ar    1  UNL1       -0.0536
      8 C           2.3315   -3.5926   -0.4129 C.ar    1  UNL1        0.0115
      9 C           2.2047   -2.9776   -1.7994 C.3     1  UNL1        0.0432
     10 N           1.6755   -1.5858   -1.6664 N.am    1  UNL1       -0.2960
     11 C           2.5707   -0.5287   -1.3751 C.2     1  UNL1        0.2502
     12 O           3.7666   -0.6542   -1.6530 O.2     1  UNL1       -0.2699
     13 C           2.2081    0.7938   -0.6444 C.ar    1  UNL1        0.0791
     14 C           0.9725    1.1320   -0.0352 C.ar    1  UNL1       -0.0319
     15 C           0.7609    2.3269    0.7521 C.ar    1  UNL1        0.0619
     16 C           1.8859    3.0712    1.0767 C.ar    1  UNL1        0.1310
     17 C           3.0964    2.8018    0.4388 C.ar    1  UNL1        0.0228
     18 C           3.2347    1.7356   -0.4541 C.ar    1  UNL1        0.1325
     19 O           4.4332    1.7295   -1.1236 O.3     1  UNL1       -0.5059
     20 O           1.9700    4.0650    2.0061 O.3     1  UNL1       -0.5059
     21 C          -0.6602    2.6123    1.1836 C.ar    1  UNL1        0.1727
     22 N          -1.5245    1.6247    1.1216 N.ar    1  UNL1       -0.1507
     23 N          -2.6963    2.1368    1.5500 N.ar    1  UNL1       -0.2260
     24 H          -3.5882    1.6779    1.3907 H       1  UNL1        0.1937
     25 C          -2.5767    3.4866    1.8084 C.ar    1  UNL1        0.3489
     26 O          -3.5405    4.2225    1.9841 O.2     1  UNL1       -0.2446
     27 N          -1.2205    3.7874    1.6704 N.ar    1  UNL1       -0.2434
     28 C          -0.8599    5.1648    1.6215 C.ar    1  UNL1        0.0558
     29 C          -0.1917    5.6835    0.5048 C.ar    1  UNL1       -0.0374
     30 C          -0.0294    7.0668    0.3475 C.ar    1  UNL1       -0.0598
     31 C          -0.5540    7.9518    1.2825 C.ar    1  UNL1       -0.0614
     32 C          -1.1689    7.4581    2.4257 C.ar    1  UNL1       -0.0569
     33 C          -1.2730    6.0720    2.6411 C.ar    1  UNL1       -0.0264
     34 C          -1.8039    5.6320    3.9845 C.3     1  UNL1       -0.0377
     35 C           0.2255   -1.5130   -1.5688 C.3     1  UNL1        0.0038
     36 H          -1.8943   -4.6094   -0.5410 H       1  UNL1        0.0660
     37 H          -1.2869   -4.1080    1.0256 H       1  UNL1        0.0660
     38 H          -1.1451   -5.8271    0.5021 H       1  UNL1        0.0660
     39 H           0.4258   -4.5084    2.2699 H       1  UNL1        0.0654
     40 H           2.3406   -3.5342    3.4403 H       1  UNL1        0.0619
     41 H           4.3756   -2.8584    2.1878 H       1  UNL1        0.0618
     42 H           4.3881   -2.9424   -0.2652 H       1  UNL1        0.0622
     43 H           1.5622   -3.5805   -2.4451 H       1  UNL1        0.0515
     44 H           3.1969   -2.9707   -2.2905 H       1  UNL1        0.0515
     45 H           0.1282    0.4656   -0.1364 H       1  UNL1        0.0634
     46 H           3.9659    3.4155    0.6519 H       1  UNL1        0.0691
     47 H           4.5790    0.8288   -1.4871 H       1  UNL1        0.2922
     48 H           1.1186    4.2302    2.4346 H       1  UNL1        0.2922
     49 H           0.1622    5.0369   -0.2912 H       1  UNL1        0.0638
     50 H           0.4757    7.4566   -0.5334 H       1  UNL1        0.0618
     51 H          -0.4780    9.0276    1.1277 H       1  UNL1        0.0618
     52 H          -1.5679    8.1615    3.1580 H       1  UNL1        0.0621
     53 H          -1.6148    6.4032    4.7430 H       1  UNL1        0.0278
     54 H          -1.2832    4.7340    4.3309 H       1  UNL1        0.0278
     55 H          -2.8812    5.4568    3.9639 H       1  UNL1        0.0278
     56 H          -0.2075   -2.2839   -2.2112 H       1  UNL1        0.0429
     57 H          -0.1249   -0.5497   -1.8986 H       1  UNL1        0.0429
     58 H          -0.0462   -1.7257   -0.5307 H       1  UNL1        0.0429
@<TRIPOS>BOND
     1     1     2    1
     2     2     3    1
     3     3     4   ar
     4     4     5   ar
     5     5     6   ar
     6     6     7   ar
     7     7     8   ar
     8     3     8   ar
     9     8     9    1
    10     9    10    1
    11    10    11   am
    12    11    12    2
    13    11    13    1
    14    13    14   ar
    15    14    15   ar
    16    15    16   ar
    17    16    17   ar
    18    17    18   ar
    19    13    18   ar
    20    18    19    1
    21    16    20    1
    22    15    21    1
    23    21    22   ar
    24    22    23   ar
    25    23    24    1
    26    23    25   ar
    27    25    26    2
    28    25    27   ar
    29    21    27   ar
    30    27    28    1
    31    28    29   ar
    32    29    30   ar
    33    30    31   ar
    34    31    32   ar
    35    32    33   ar
    36    28    33   ar
    37    33    34    1
    38    10    35    1
    39     1    36    1
    40     1    37    1
    41     1    38    1
    42     4    39    1
    43     5    40    1
    44     6    41    1
    45     7    42    1
    46     9    43    1
    47     9    44    1
    48    14    45    1
    49    17    46    1
    50    19    47    1
    51    20    48    1
    52    29    49    1
    53    30    50    1
    54    31    51    1
    55    32    52    1
    56    34    53    1
    57    34    54    1
    58    34    55    1
    59    35    56    1
    60    35    57    1
    61    35    58    1
@<TRIPOS>MOLECULE
*****
 58 61 0 0 0
SMALL
GASTEIGER

@<TRIPOS>ATOM
      1 C           5.2219   -0.7271   -5.7495 C.3     1  UNL1       -0.0647
      2 C           4.9322    0.4949   -6.6137 C.3     1  UNL1       -0.0478
      3 C           3.5033    0.5057   -7.2059 C.3     1  UNL1        0.0006
      4 H           3.4079   -0.3818   -7.8460 H       1  UNL1        0.0362
      5 C           2.4476    0.4343   -6.1382 C.ar    1  UNL1        0.0733
      6 N           1.5428   -0.5550   -6.1411 N.ar    1  UNL1       -0.1775
      7 N           0.8813   -0.3990   -4.9809 N.ar    1  UNL1       -0.2766
      8 H           0.1407   -1.0535   -4.7571 H       1  UNL1        0.1889
      9 C           1.3238    0.6543   -4.2236 C.ar    1  UNL1        0.0695
     10 C           2.3062    1.2648   -4.9957 C.ar    1  UNL1        0.0239
     11 C           2.9176    2.4346   -4.5139 C.ar    1  UNL1       -0.0351
     12 C           2.4704    3.0079   -3.3210 C.ar    1  UNL1        0.0793
     13 C           1.6025    2.2720   -2.4992 C.ar    1  UNL1        0.1310
     14 C           0.9813    1.0987   -2.9424 C.ar    1  UNL1        0.0060
     15 O           1.3342    2.6437   -1.2059 O.3     1  UNL1       -0.5059
     16 C           2.9349    4.3681   -2.9071 C.2     1  UNL1        0.2541
     17 O           3.2097    4.4523   -1.7096 O.2     1  UNL1       -0.2695
     18 N           2.9946    5.4225   -3.8620 N.am    1  UNL1       -0.2704
     19 C           3.5964    6.7162   -3.5729 C.ar    1  UNL1        0.0364
     20 C           3.9751    7.1313   -2.2980 C.ar    1  UNL1       -0.0385
     21 C           4.6425    8.3597   -2.0865 C.ar    1  UNL1       -0.0389
     22 C           4.9900    9.2271   -3.1324 C.ar    1  UNL1        0.0299
     23 C           4.5111    8.8589   -4.3847 C.ar    1  UNL1       -0.0389
     24 C           3.8427    7.6393   -4.6019 C.ar    1  UNL1       -0.0385
     25 N           5.7067   10.4075   -2.9019 N.pl3   1  UNL1       -0.3255
     26 C           6.7867   10.3799   -1.8860 C.3     1  UNL1        0.0357
     27 C           8.1287    9.9992   -2.5336 C.3     1  UNL1        0.0634
     28 O           8.4782   10.9136   -3.5873 O.3     1  UNL1       -0.3767
     29 C           7.4582   10.9191   -4.6022 C.3     1  UNL1        0.0634
     30 C           6.0844   11.3075   -4.0211 C.3     1  UNL1        0.0357
     31 C           2.4743    5.2600   -5.2279 C.3     1  UNL1        0.0086
     32 C           3.3103    1.7339   -8.1058 C.3     1  UNL1       -0.0569
     33 H           6.2352   -0.6644   -5.3415 H       1  UNL1        0.0230
     34 H           5.1439   -1.6479   -6.3344 H       1  UNL1        0.0230
     35 H           4.5356   -0.8018   -4.8992 H       1  UNL1        0.0230
     36 H           5.6623    0.5221   -7.4313 H       1  UNL1        0.0269
     37 H           5.1150    1.3951   -6.0161 H       1  UNL1        0.0269
     38 H           3.6980    2.9147   -5.0998 H       1  UNL1        0.0633
     39 H           0.2866    0.5584   -2.3083 H       1  UNL1        0.0675
     40 H           2.0270    3.2914   -0.9398 H       1  UNL1        0.2922
     41 H           3.7597    6.5446   -1.4117 H       1  UNL1        0.0637
     42 H           4.8623    8.6170   -1.0549 H       1  UNL1        0.0637
     43 H           4.6538    9.4848   -5.2583 H       1  UNL1        0.0637
     44 H           3.5557    7.4486   -5.6311 H       1  UNL1        0.0637
     45 H           6.5856    9.7210   -1.0365 H       1  UNL1        0.0486
     46 H           6.8704   11.3938   -1.4688 H       1  UNL1        0.0486
     47 H           8.1039    8.9806   -2.9397 H       1  UNL1        0.0575
     48 H           8.9274   10.0425   -1.7858 H       1  UNL1        0.0575
     49 H           7.4325    9.9338   -5.0816 H       1  UNL1        0.0575
     50 H           7.7607   11.6497   -5.3597 H       1  UNL1        0.0575
     51 H           5.3259   11.3649   -4.8077 H       1  UNL1        0.0486
     52 H           6.1581   12.3205   -3.6090 H       1  UNL1        0.0486
     53 H           1.7601    4.4431   -5.3135 H       1  UNL1        0.0433
     54 H           3.3163    5.0809   -5.9091 H       1  UNL1        0.0433
     55 H           1.9193    6.1473   -5.5435 H       1  UNL1        0.0433
     56 H           4.0744    1.7625   -8.8902 H       1  UNL1        0.0236
     57 H           3.3767    2.6694   -7.5419 H       1  UNL1        0.0236
     58 H           2.3303    1.7102   -8.5941 H       1  UNL1        0.0236
@<TRIPOS>BOND
     1     1     2    1
     2     2     3    1
     3     3     4    1
     4     3     5    1
     5     5     6   ar
     6     6     7   ar
     7     7     8    1
     8     7     9   ar
     9     9    10   ar
    10     5    10   ar
    11    10    11   ar
    12    11    12   ar
    13    12    13   ar
    14    13    14   ar
    15     9    14   ar
    16    13    15    1
    17    12    16    1
    18    16    17    2
    19    16    18   am
    20    18    19    1
    21    19    20   ar
    22    20    21   ar
    23    21    22   ar
    24    22    23   ar
    25    23    24   ar
    26    19    24   ar
    27    22    25    1
    28    25    26    1
    29    26    27    1
    30    27    28    1
    31    28    29    1
    32    29    30    1
    33    25    30    1
    34    18    31    1
    35     3    32    1
    36     1    33    1
    37     1    34    1
    38     1    35    1
    39     2    36    1
    40     2    37    1
    41    11    38    1
    42    14    39    1
    43    15    40    1
    44    20    41    1
    45    21    42    1
    46    23    43    1
    47    24    44    1
    48    26    45    1
    49    26    46    1
    50    27    47    1
    51    27    48    1
    52    29    49    1
    53    29    50    1
    54    30    51    1
    55    30    52    1
    56    31    53    1
    57    31    54    1
    58    31    55    1
    59    32    56    1
    60    32    57    1
    61    32    58    1
@<TRIPOS>MOLECULE
*****
 65 69 0 0 0
SMALL
GASTEIGER

@<TRIPOS>ATOM
      1 O           1.3534   -0.2609   -1.5616 O.3     1  UNL1       -0.5059
      2 C           2.5837   -0.1663   -0.9673 C.ar    1  UNL1        0.1310
      3 C           3.3512   -1.3325   -0.8421 C.ar    1  UNL1        0.0060
      4 C           4.6762   -1.1734   -0.4299 C.ar    1  UNL1        0.0695
      5 N           5.6753   -2.0806   -0.2089 N.ar    1  UNL1       -0.2766
      6 H           5.6038   -3.0911   -0.1925 H       1  UNL1        0.1889
      7 N           6.8860   -1.5295   -0.0453 N.ar    1  UNL1       -0.1777
      8 C           6.6469   -0.2109   -0.0776 C.ar    1  UNL1        0.0708
      9 C           5.2514    0.0663   -0.1858 C.ar    1  UNL1        0.0236
     10 C           4.4130    1.1990   -0.1591 C.ar    1  UNL1       -0.0351
     11 C           3.0436    1.0704   -0.5043 C.ar    1  UNL1        0.0793
     12 C           2.2004    2.3045   -0.3911 C.2     1  UNL1        0.2541
     13 O           2.7997    3.3287   -0.7315 O.2     1  UNL1       -0.2695
     14 N           0.8917    2.2808    0.1737 N.am    1  UNL1       -0.2704
     15 C           0.1679    3.5133    0.4773 C.ar    1  UNL1        0.0364
     16 C           0.5682    4.7779    0.0353 C.ar    1  UNL1       -0.0385
     17 C           0.0285    5.9591    0.5816 C.ar    1  UNL1       -0.0389
     18 C          -0.9402    5.9131    1.5796 C.ar    1  UNL1        0.0299
     19 C          -1.4862    4.6602    1.8623 C.ar    1  UNL1       -0.0389
     20 C          -0.9566    3.4898    1.3174 C.ar    1  UNL1       -0.0385
     21 N          -1.3793    7.0078    2.3223 N.pl3   1  UNL1       -0.3255
     22 C          -1.1079    8.3727    1.8362 C.3     1  UNL1        0.0357
     23 C          -1.9371    9.3609    2.6838 C.3     1  UNL1        0.0634
     24 O          -1.6238    9.2550    4.0855 O.3     1  UNL1       -0.3767
     25 C          -1.8713    7.9189    4.5546 C.3     1  UNL1        0.0634
     26 C          -1.0515    6.8890    3.7661 C.3     1  UNL1        0.0357
     27 C           0.2750    1.0686    0.7248 C.3     1  UNL1        0.0086
     28 C           7.7894    0.7447   -0.0055 C.3     1  UNL1       -0.0052
     29 C           8.3954    1.1991   -1.3583 C.3     1  UNL1       -0.0356
     30 C           7.3892    1.8810   -2.2983 C.3     1  UNL1       -0.0499
     31 C           8.0944    2.4933   -3.5038 C.3     1  UNL1       -0.0528
     32 C           8.9177    1.4594   -4.2673 C.3     1  UNL1       -0.0530
     33 C           9.8591    0.6801   -3.3512 C.3     1  UNL1       -0.0528
     34 C           9.1332    0.0933   -2.1322 C.3     1  UNL1       -0.0499
     35 H           1.2068   -1.1697   -1.8685 H       1  UNL1        0.2922
     36 H           2.9596   -2.3091   -1.0977 H       1  UNL1        0.0675
     37 H           4.8206    2.1730    0.1029 H       1  UNL1        0.0633
     38 H           1.3308    4.9040   -0.7253 H       1  UNL1        0.0637
     39 H           0.4431    6.9042    0.2451 H       1  UNL1        0.0637
     40 H          -2.3194    4.5837    2.5554 H       1  UNL1        0.0637
     41 H          -1.4305    2.5713    1.6405 H       1  UNL1        0.0637
     42 H          -1.3951    8.4822    0.7843 H       1  UNL1        0.0486
     43 H          -0.0433    8.6071    1.9434 H       1  UNL1        0.0486
     44 H          -3.0119    9.1827    2.5498 H       1  UNL1        0.0575
     45 H          -1.7247   10.3880    2.3753 H       1  UNL1        0.0575
     46 H          -2.9435    7.7024    4.4758 H       1  UNL1        0.0575
     47 H          -1.5983    7.8788    5.6138 H       1  UNL1        0.0575
     48 H          -1.2663    5.8922    4.1681 H       1  UNL1        0.0486
     49 H           0.0202    7.0842    3.9074 H       1  UNL1        0.0486
     50 H           0.8595    0.1598    0.6277 H       1  UNL1        0.0433
     51 H          -0.6935    0.9081    0.2354 H       1  UNL1        0.0433
     52 H           0.1492    1.1784    1.8067 H       1  UNL1        0.0433
     53 H           8.5956    0.3018    0.5971 H       1  UNL1        0.0332
     54 H           7.4688    1.6388    0.5431 H       1  UNL1        0.0332
     55 H           9.1518    1.9538   -1.0940 H       1  UNL1        0.0304
     56 H           6.8513    2.6717   -1.7581 H       1  UNL1        0.0268
     57 H           6.6408    1.1598   -2.6476 H       1  UNL1        0.0268
     58 H           8.7535    3.3039   -3.1662 H       1  UNL1        0.0265
     59 H           7.3564    2.9464   -4.1756 H       1  UNL1        0.0265
     60 H           9.4982    1.9613   -5.0510 H       1  UNL1        0.0265
     61 H           8.2421    0.7597   -4.7736 H       1  UNL1        0.0265
     62 H          10.6597    1.3480   -3.0076 H       1  UNL1        0.0265
     63 H          10.3431   -0.1216   -3.9211 H       1  UNL1        0.0265
     64 H           9.8691   -0.3991   -1.4861 H       1  UNL1        0.0268
     65 H           8.4316   -0.6772   -2.4718 H       1  UNL1        0.0268
@<TRIPOS>BOND
     1     1     2    1
     2     2     3   ar
     3     3     4   ar
     4     4     5   ar
     5     5     6    1
     6     5     7   ar
     7     7     8   ar
     8     8     9   ar
     9     4     9   ar
    10     9    10   ar
    11    10    11   ar
    12     2    11   ar
    13    11    12    1
    14    12    13    2
    15    12    14   am
    16    14    15    1
    17    15    16   ar
    18    16    17   ar
    19    17    18   ar
    20    18    19   ar
    21    19    20   ar
    22    15    20   ar
    23    18    21    1
    24    21    22    1
    25    22    23    1
    26    23    24    1
    27    24    25    1
    28    25    26    1
    29    21    26    1
    30    14    27    1
    31     8    28    1
    32    28    29    1
    33    29    30    1
    34    30    31    1
    35    31    32    1
    36    32    33    1
    37    33    34    1
    38    29    34    1
    39     1    35    1
    40     3    36    1
    41    10    37    1
    42    16    38    1
    43    17    39    1
    44    19    40    1
    45    20    41    1
    46    22    42    1
    47    22    43    1
    48    23    44    1
    49    23    45    1
    50    25    46    1
    51    25    47    1
    52    26    48    1
    53    26    49    1
    54    27    50    1
    55    27    51    1
    56    27    52    1
    57    28    53    1
    58    28    54    1
    59    29    55    1
    60    30    56    1
    61    30    57    1
    62    31    58    1
    63    31    59    1
    64    32    60    1
    65    32    61    1
    66    33    62    1
    67    33    63    1
    68    34    64    1
    69    34    65    1
@<TRIPOS>MOLECULE
*****
 63 67 0 0 0
SMALL
GASTEIGER

@<TRIPOS>ATOM
      1 C           1.0643    1.0540   -0.6203 C.3     1  UNL1        0.0086
      2 N           2.4383    0.5986   -0.4251 N.am    1  UNL1       -0.2704
      3 C           3.1029   -0.4143   -1.1404 C.2     1  UNL1        0.2541
      4 O           4.2776   -0.7241   -0.9124 O.2     1  UNL1       -0.2695
      5 C           2.4268   -1.2290   -2.1974 C.ar    1  UNL1        0.0793
      6 C           2.7516   -2.6088   -2.1989 C.ar    1  UNL1       -0.0347
      7 C           2.1431   -3.4907   -3.1179 C.ar    1  UNL1        0.0328
      8 C           1.2366   -2.9574   -4.0237 C.ar    1  UNL1        0.0700
      9 C           0.9425   -1.5928   -4.1104 C.ar    1  UNL1        0.0060
     10 C           1.5802   -0.7367   -3.1998 C.ar    1  UNL1        0.1310
     11 O           1.3730    0.6095   -3.3470 O.3     1  UNL1       -0.5059
     12 N           0.7820   -4.0255   -4.7412 N.ar    1  UNL1       -0.2761
     13 H           0.1020   -4.0196   -5.4930 H       1  UNL1        0.1889
     14 N           1.3079   -5.2008   -4.3801 N.ar    1  UNL1       -0.1681
     15 C           2.2037   -4.8986   -3.4177 C.ar    1  UNL1        0.1547
     16 C           3.0540   -5.9043   -2.7248 C.2     1  UNL1        0.2673
     17 O           3.4773   -5.6528   -1.5933 O.2     1  UNL1       -0.2682
     18 N           3.3875   -7.1227   -3.3461 N.am    1  UNL1       -0.2962
     19 C           4.1123   -8.1404   -2.5847 C.3     1  UNL1        0.0150
     20 C           3.2731   -9.4150   -2.4369 C.3     1  UNL1       -0.0371
     21 C           2.6883   -9.8897   -3.7722 C.3     1  UNL1       -0.0502
     22 C           2.0122   -8.7433   -4.5299 C.3     1  UNL1       -0.0371
     23 C           2.9857   -7.5768   -4.6762 C.3     1  UNL1        0.0150
     24 C           3.1370    1.2616    0.6269 C.ar    1  UNL1        0.0364
     25 C           3.3101    2.6432    0.6044 C.ar    1  UNL1       -0.0385
     26 C           4.0132    3.2822    1.6348 C.ar    1  UNL1       -0.0389
     27 C           4.5207    2.5915    2.7466 C.ar    1  UNL1        0.0299
     28 C           4.2856    1.2057    2.7617 C.ar    1  UNL1       -0.0389
     29 C           3.6258    0.5443    1.7158 C.ar    1  UNL1       -0.0385
     30 N           5.2208    3.2347    3.7452 N.pl3   1  UNL1       -0.3255
     31 C           5.0427    4.6643    4.0611 C.3     1  UNL1        0.0357
     32 C           4.5819    4.8083    5.5234 C.3     1  UNL1        0.0634
     33 O           5.4842    4.1649    6.4397 O.3     1  UNL1       -0.3767
     34 C           5.5972    2.7642    6.1281 C.3     1  UNL1        0.0634
     35 C           6.1119    2.5511    4.6967 C.3     1  UNL1        0.0357
     36 H           0.4414    0.2798   -1.0678 H       1  UNL1        0.0433
     37 H           1.0678    1.9525   -1.2475 H       1  UNL1        0.0433
     38 H           0.6128    1.3035    0.3465 H       1  UNL1        0.0433
     39 H           3.4756   -2.9973   -1.4835 H       1  UNL1        0.0633
     40 H           0.2558   -1.2219   -4.8635 H       1  UNL1        0.0675
     41 H           0.7546    0.7681   -4.0791 H       1  UNL1        0.2922
     42 H           4.4048   -7.7772   -1.5946 H       1  UNL1        0.0465
     43 H           5.0390   -8.3592   -3.1330 H       1  UNL1        0.0465
     44 H           2.4493   -9.2202   -1.7417 H       1  UNL1        0.0280
     45 H           3.8871  -10.2117   -1.9992 H       1  UNL1        0.0280
     46 H           1.9708  -10.6977   -3.5957 H       1  UNL1        0.0266
     47 H           3.4925  -10.3053   -4.3923 H       1  UNL1        0.0266
     48 H           1.1199   -8.4200   -3.9788 H       1  UNL1        0.0280
     49 H           1.6833   -9.0913   -5.5149 H       1  UNL1        0.0280
     50 H           2.5773   -6.7910   -5.3044 H       1  UNL1        0.0465
     51 H           3.8938   -7.9145   -5.1926 H       1  UNL1        0.0465
     52 H           2.9624    3.2250   -0.2449 H       1  UNL1        0.0637
     53 H           4.1962    4.3463    1.5107 H       1  UNL1        0.0637
     54 H           4.5963    0.5973    3.6044 H       1  UNL1        0.0637
     55 H           3.4758   -0.5299    1.7774 H       1  UNL1        0.0637
     56 H           4.3152    5.1712    3.4236 H       1  UNL1        0.0486
     57 H           6.0084    5.1660    3.9298 H       1  UNL1        0.0486
     58 H           3.5792    4.3852    5.6583 H       1  UNL1        0.0575
     59 H           4.5369    5.8682    5.7929 H       1  UNL1        0.0575
     60 H           4.6206    2.2871    6.2737 H       1  UNL1        0.0575
     61 H           6.2970    2.3247    6.8455 H       1  UNL1        0.0575
     62 H           6.2457    1.4860    4.4949 H       1  UNL1        0.0486
     63 H           7.1074    3.0052    4.6066 H       1  UNL1        0.0486
@<TRIPOS>BOND
     1     1     2    1
     2     2     3   am
     3     3     4    2
     4     3     5    1
     5     5     6   ar
     6     6     7   ar
     7     7     8   ar
     8     8     9   ar
     9     9    10   ar
    10     5    10   ar
    11    10    11    1
    12     8    12   ar
    13    12    13    1
    14    12    14   ar
    15    14    15   ar
    16     7    15   ar
    17    15    16    1
    18    16    17    2
    19    16    18   am
    20    18    19    1
    21    19    20    1
    22    20    21    1
    23    21    22    1
    24    22    23    1
    25    18    23    1
    26     2    24    1
    27    24    25   ar
    28    25    26   ar
    29    26    27   ar
    30    27    28   ar
    31    28    29   ar
    32    24    29   ar
    33    27    30    1
    34    30    31    1
    35    31    32    1
    36    32    33    1
    37    33    34    1
    38    34    35    1
    39    30    35    1
    40     1    36    1
    41     1    37    1
    42     1    38    1
    43     6    39    1
    44     9    40    1
    45    11    41    1
    46    19    42    1
    47    19    43    1
    48    20    44    1
    49    20    45    1
    50    21    46    1
    51    21    47    1
    52    22    48    1
    53    22    49    1
    54    23    50    1
    55    23    51    1
    56    25    52    1
    57    26    53    1
    58    28    54    1
    59    29    55    1
    60    31    56    1
    61    31    57    1
    62    32    58    1
    63    32    59    1
    64    34    60    1
    65    34    61    1
    66    35    62    1
    67    35    63    1
@<TRIPOS>MOLECULE
*****
 63 67 0 0 0
SMALL
GASTEIGER

@<TRIPOS>ATOM
      1 C           5.1511    0.3098    0.0334 C.3     1  UNL1        0.0038
      2 N           4.6228   -0.6231   -0.9573 N.am    1  UNL1       -0.2961
      3 C           3.2749   -0.5018   -1.3354 C.2     1  UNL1        0.2502
      4 O           2.5053    0.2869   -0.7993 O.2     1  UNL1       -0.2699
      5 C           2.7264   -1.3630   -2.4266 C.ar    1  UNL1        0.0791
      6 C           2.7662   -2.7676   -2.3211 C.ar    1  UNL1       -0.0319
      7 C           2.2780   -3.5762   -3.3517 C.ar    1  UNL1        0.0619
      8 C           1.7497   -2.9528   -4.4987 C.ar    1  UNL1        0.1310
      9 C           1.6219   -1.5669   -4.5786 C.ar    1  UNL1        0.0228
     10 C           2.1073   -0.7760   -3.5413 C.ar    1  UNL1        0.1325
     11 O           1.9988    0.5826   -3.6539 O.3     1  UNL1       -0.5059
     12 O           1.3402   -3.6421   -5.6114 O.3     1  UNL1       -0.5059
     13 C           2.3694   -5.0580   -3.3193 C.ar    1  UNL1        0.1727
     14 N           2.5113   -5.6989   -4.4557 N.ar    1  UNL1       -0.1507
     15 N           2.6601   -6.9974   -4.1075 N.ar    1  UNL1       -0.2260
     16 H           2.7925   -7.7492   -4.7721 H       1  UNL1        0.1937
     17 C           2.6034   -7.1534   -2.7308 C.ar    1  UNL1        0.3489
     18 O           2.6898   -8.2321   -2.1646 O.2     1  UNL1       -0.2446
     19 N           2.3972   -5.8795   -2.2172 N.ar    1  UNL1       -0.2434
     20 C           2.2112   -5.6786   -0.8299 C.ar    1  UNL1        0.0558
     21 C           3.1067   -6.3497    0.0344 C.ar    1  UNL1       -0.0374
     22 C           2.9669   -6.3193    1.4184 C.ar    1  UNL1       -0.0598
     23 C           1.9461   -5.5754    1.9843 C.ar    1  UNL1       -0.0614
     24 C           1.0534   -4.8996    1.1600 C.ar    1  UNL1       -0.0569
     25 C           1.1463   -4.9585   -0.2486 C.ar    1  UNL1       -0.0264
     26 C          -0.0147   -4.4037   -1.0269 C.3     1  UNL1       -0.0377
     27 C           5.5523   -1.6703   -1.4037 C.3     1  UNL1        0.0403
     28 C           5.6446   -2.8704   -0.4557 C.ar    1  UNL1       -0.0224
     29 C           4.8359   -2.8824    0.7074 C.ar    1  UNL1       -0.0565
     30 C           5.0068   -3.8159    1.7173 C.ar    1  UNL1       -0.0614
     31 C           5.9330   -4.8297    1.5543 C.ar    1  UNL1       -0.0612
     32 C           6.6617   -4.9141    0.3670 C.ar    1  UNL1       -0.0537
     33 C           6.5653   -3.9376   -0.6558 C.ar    1  UNL1       -0.0118
     34 C           7.4922   -4.0407   -1.8126 C.ar    1  UNL1        0.0005
     35 C           8.8345   -4.4147   -1.6291 C.ar    1  UNL1       -0.0511
     36 C           9.7379   -4.4084   -2.6901 C.ar    1  UNL1       -0.0430
     37 C           9.2804   -4.0185   -3.9324 C.ar    1  UNL1        0.0276
     38 N           7.9914   -3.7210   -4.1853 N.ar    1  UNL1       -0.2627
     39 C           7.1337   -3.7714   -3.1338 C.ar    1  UNL1        0.0353
     40 H           4.3902    1.0045    0.3982 H       1  UNL1        0.0429
     41 H           5.9634    0.8809   -0.4254 H       1  UNL1        0.0429
     42 H           5.5510   -0.2414    0.8877 H       1  UNL1        0.0429
     43 H           3.1866   -3.2220   -1.4347 H       1  UNL1        0.0634
     44 H           1.1832   -1.1260   -5.4720 H       1  UNL1        0.0691
     45 H           1.3453    0.8002   -4.3391 H       1  UNL1        0.2922
     46 H           1.7245   -4.5472   -5.5647 H       1  UNL1        0.2922
     47 H           3.9500   -6.9068   -0.3772 H       1  UNL1        0.0638
     48 H           3.6750   -6.8550    2.0450 H       1  UNL1        0.0618
     49 H           1.8424   -5.5294    3.0683 H       1  UNL1        0.0618
     50 H           0.2345   -4.3560    1.6306 H       1  UNL1        0.0621
     51 H          -0.7311   -3.9071   -0.3616 H       1  UNL1        0.0278
     52 H          -0.5449   -5.2165   -1.5301 H       1  UNL1        0.0278
     53 H           0.2838   -3.6528   -1.7518 H       1  UNL1        0.0278
     54 H           6.5445   -1.2132   -1.4905 H       1  UNL1        0.0514
     55 H           5.2467   -1.9883   -2.3978 H       1  UNL1        0.0514
     56 H           4.0646   -2.1312    0.8659 H       1  UNL1        0.0621
     57 H           4.3940   -3.7623    2.6126 H       1  UNL1        0.0618
     58 H           6.0638   -5.5751    2.3337 H       1  UNL1        0.0618
     59 H           7.3382   -5.7609    0.2604 H       1  UNL1        0.0624
     60 H           9.2020   -4.6985   -0.6454 H       1  UNL1        0.0625
     61 H          10.7757   -4.6817   -2.5386 H       1  UNL1        0.0633
     62 H           9.9554   -3.9371   -4.7792 H       1  UNL1        0.0829
     63 H           6.1047   -3.5793   -3.4201 H       1  UNL1        0.0836
@<TRIPOS>BOND
     1     1     2    1
     2     2     3   am
     3     3     4    2
     4     3     5    1
     5     5     6   ar
     6     6     7   ar
     7     7     8   ar
     8     8     9   ar
     9     9    10   ar
    10     5    10   ar
    11    10    11    1
    12     8    12    1
    13     7    13    1
    14    13    14   ar
    15    14    15   ar
    16    15    16    1
    17    15    17   ar
    18    17    18    2
    19    17    19   ar
    20    13    19   ar
    21    19    20    1
    22    20    21   ar
    23    21    22   ar
    24    22    23   ar
    25    23    24   ar
    26    24    25   ar
    27    20    25   ar
    28    25    26    1
    29     2    27    1
    30    27    28    1
    31    28    29   ar
    32    29    30   ar
    33    30    31   ar
    34    31    32   ar
    35    32    33   ar
    36    28    33   ar
    37    33    34    1
    38    34    35   ar
    39    35    36   ar
    40    36    37   ar
    41    37    38   ar
    42    38    39   ar
    43    34    39   ar
    44     1    40    1
    45     1    41    1
    46     1    42    1
    47     6    43    1
    48     9    44    1
    49    11    45    1
    50    12    46    1
    51    21    47    1
    52    22    48    1
    53    23    49    1
    54    24    50    1
    55    26    51    1
    56    26    52    1
    57    26    53    1
    58    27    54    1
    59    27    55    1
    60    29    56    1
    61    30    57    1
    62    31    58    1
    63    32    59    1
    64    35    60    1
    65    36    61    1
    66    37    62    1
    67    39    63    1
@<TRIPOS>MOLECULE
*****
 62 66 0 0 0
SMALL
GASTEIGER

@<TRIPOS>ATOM
      1 C           3.3741   -1.8440   -0.3944 C.3     1  UNL1        0.0038
      2 N           2.6273   -0.8254   -1.1239 N.am    1  UNL1       -0.2962
      3 C           3.2190    0.4359   -1.2908 C.2     1  UNL1        0.2502
      4 O           4.3351    0.7077   -0.8537 O.2     1  UNL1       -0.2699
      5 C           2.5036    1.4842   -2.0740 C.ar    1  UNL1        0.0791
      6 C           1.9795    1.1328   -3.3172 C.ar    1  UNL1       -0.0319
      7 C           1.1571    1.9975   -4.0537 C.ar    1  UNL1        0.0619
      8 C           0.8742    3.2496   -3.5087 C.ar    1  UNL1        0.1310
      9 C           1.5572    3.6869   -2.3683 C.ar    1  UNL1        0.0228
     10 C           2.3826    2.8095   -1.6608 C.ar    1  UNL1        0.1325
     11 O           3.0279    3.2727   -0.5524 O.3     1  UNL1       -0.5059
     12 O          -0.0727    4.1153   -3.9683 O.3     1  UNL1       -0.5059
     13 C           0.7068    1.4284   -5.3470 C.ar    1  UNL1        0.1727
     14 N           0.4914    0.1412   -5.4569 N.ar    1  UNL1       -0.1507
     15 N           0.1024   -0.0428   -6.7416 N.ar    1  UNL1       -0.2260
     16 H          -0.0835   -0.9566   -7.1350 H       1  UNL1        0.1937
     17 C           0.0760    1.1633   -7.4241 C.ar    1  UNL1        0.3489
     18 O          -0.2385    1.2955   -8.5956 O.2     1  UNL1       -0.2446
     19 N           0.4943    2.1114   -6.5128 N.ar    1  UNL1       -0.2434
     20 C           0.5831    3.4813   -6.8065 C.ar    1  UNL1        0.0558
     21 C          -0.5715    4.0928   -7.3291 C.ar    1  UNL1       -0.0374
     22 C          -0.6535    5.4767   -7.4494 C.ar    1  UNL1       -0.0598
     23 C           0.4280    6.2628   -7.0736 C.ar    1  UNL1       -0.0614
     24 C           1.6100    5.6612   -6.6371 C.ar    1  UNL1       -0.0569
     25 C           1.7139    4.2657   -6.5123 C.ar    1  UNL1       -0.0264
     26 C           3.0771    3.6867   -6.2400 C.3     1  UNL1       -0.0377
     27 C           1.2276   -1.1692   -1.4288 C.3     1  UNL1        0.0397
     28 C           1.0146   -2.0147   -2.6787 C.ar    1  UNL1       -0.0295
     29 C          -0.2936   -2.3173   -3.0791 C.ar    1  UNL1       -0.0570
     30 C          -0.5269   -3.1266   -4.1911 C.ar    1  UNL1       -0.0609
     31 C           0.5445   -3.6471   -4.9214 C.ar    1  UNL1       -0.0539
     32 C           1.8718   -3.3541   -4.5711 C.ar    1  UNL1       -0.0147
     33 C           2.0766   -2.5261   -3.4497 C.ar    1  UNL1       -0.0492
     34 C           3.0137   -3.9139   -5.3163 C.ar    1  UNL1        0.0183
     35 C           4.1903   -3.2220   -5.5611 C.ar    1  UNL1        0.0385
     36 N           5.2695   -3.7300   -6.1994 N.ar    1  UNL1       -0.2431
     37 C           5.1526   -4.9968   -6.6182 C.ar    1  UNL1        0.1159
     38 N           4.0737   -5.7752   -6.4649 N.ar    1  UNL1       -0.2431
     39 C           3.0327   -5.2090   -5.8129 C.ar    1  UNL1        0.0385
     40 H           4.4318   -1.5885   -0.3093 H       1  UNL1        0.0429
     41 H           3.2923   -2.8052   -0.9107 H       1  UNL1        0.0429
     42 H           2.9456   -1.9437    0.6059 H       1  UNL1        0.0429
     43 H           2.2185    0.1551   -3.7226 H       1  UNL1        0.0634
     44 H           1.3969    4.7023   -2.0131 H       1  UNL1        0.0691
     45 H           3.2781    4.2007   -0.7071 H       1  UNL1        0.2922
     46 H          -0.6559    3.6681   -4.6061 H       1  UNL1        0.2922
     47 H          -1.4409    3.4960   -7.6018 H       1  UNL1        0.0638
     48 H          -1.5653    5.9375   -7.8195 H       1  UNL1        0.0618
     49 H           0.3628    7.3457   -7.1436 H       1  UNL1        0.0618
     50 H           2.4607    6.2970   -6.3973 H       1  UNL1        0.0621
     51 H           3.6941    4.3892   -5.6692 H       1  UNL1        0.0278
     52 H           3.5770    3.4827   -7.1921 H       1  UNL1        0.0278
     53 H           3.0531    2.7572   -5.6734 H       1  UNL1        0.0278
     54 H           0.6261   -0.2538   -1.5062 H       1  UNL1        0.0514
     55 H           0.8273   -1.7251   -0.5723 H       1  UNL1        0.0514
     56 H          -1.1448   -1.9186   -2.5305 H       1  UNL1        0.0621
     57 H          -1.5470   -3.3550   -4.4907 H       1  UNL1        0.0618
     58 H           0.3227   -4.2795   -5.7787 H       1  UNL1        0.0624
     59 H           3.0972   -2.2781   -3.1646 H       1  UNL1        0.0627
     60 H           4.3179   -2.1908   -5.2402 H       1  UNL1        0.0837
     61 H           6.0078   -5.4319   -7.1233 H       1  UNL1        0.1047
     62 H           2.1837   -5.8750   -5.6822 H       1  UNL1        0.0837
@<TRIPOS>BOND
     1     1     2    1
     2     2     3   am
     3     3     4    2
     4     3     5    1
     5     5     6   ar
     6     6     7   ar
     7     7     8   ar
     8     8     9   ar
     9     9    10   ar
    10     5    10   ar
    11    10    11    1
    12     8    12    1
    13     7    13    1
    14    13    14   ar
    15    14    15   ar
    16    15    16    1
    17    15    17   ar
    18    17    18    2
    19    17    19   ar
    20    13    19   ar
    21    19    20    1
    22    20    21   ar
    23    21    22   ar
    24    22    23   ar
    25    23    24   ar
    26    24    25   ar
    27    20    25   ar
    28    25    26    1
    29     2    27    1
    30    27    28    1
    31    28    29   ar
    32    29    30   ar
    33    30    31   ar
    34    31    32   ar
    35    32    33   ar
    36    28    33   ar
    37    32    34    1
    38    34    35   ar
    39    35    36   ar
    40    36    37   ar
    41    37    38   ar
    42    38    39   ar
    43    34    39   ar
    44     1    40    1
    45     1    41    1
    46     1    42    1
    47     6    43    1
    48     9    44    1
    49    11    45    1
    50    12    46    1
    51    21    47    1
    52    22    48    1
    53    23    49    1
    54    24    50    1
    55    26    51    1
    56    26    52    1
    57    26    53    1
    58    27    54    1
    59    27    55    1
    60    29    56    1
    61    30    57    1
    62    31    58    1
    63    33    59    1
    64    35    60    1
    65    37    61    1
    66    39    62    1
@<TRIPOS>MOLECULE
*****
 52 55 0 0 0
SMALL
GASTEIGER

@<TRIPOS>ATOM
      1 C          11.4696   -4.0557   -1.0752 C.3     1  UNL1       -0.0397
      2 C          10.8588   -2.7018   -0.8764 C.ar    1  UNL1       -0.0503
      3 C           9.5879   -2.5407   -0.3224 C.ar    1  UNL1       -0.0571
      4 C           8.9705   -1.2709   -0.2727 C.ar    1  UNL1       -0.0400
      5 C           9.5909   -0.1215   -0.7839 C.ar    1  UNL1        0.0363
      6 C          10.9244   -0.2985   -1.2058 C.ar    1  UNL1       -0.0400
      7 C          11.5368   -1.5634   -1.2744 C.ar    1  UNL1       -0.0571
      8 N           8.9159    1.1727   -0.9471 N.am    1  UNL1       -0.2704
      9 C           7.6023    1.4401   -0.4613 C.2     1  UNL1        0.2541
     10 O           6.9065    0.6083    0.1305 O.2     1  UNL1       -0.2695
     11 C           6.8923    2.7707   -0.6509 C.ar    1  UNL1        0.0793
     12 C           5.4843    2.7002   -0.8646 C.ar    1  UNL1       -0.0351
     13 C           4.6943    3.8747   -0.9248 C.ar    1  UNL1        0.0239
     14 C           3.3066    4.2135   -1.0376 C.ar    1  UNL1        0.0748
     15 N           3.1184    5.5452   -0.9953 N.ar    1  UNL1       -0.1774
     16 N           4.3533    6.0460   -0.8901 N.ar    1  UNL1       -0.2766
     17 H           4.4548    7.0531   -0.8251 H       1  UNL1        0.1889
     18 C           5.3376    5.1002   -0.8154 C.ar    1  UNL1        0.0695
     19 C           6.7135    5.2289   -0.6304 C.ar    1  UNL1        0.0060
     20 C           7.4637    4.0456   -0.5123 C.ar    1  UNL1        0.1310
     21 O           8.7868    4.2113   -0.1980 O.3     1  UNL1       -0.5059
     22 C           2.1078    3.3124   -1.0984 C.3     1  UNL1        0.0171
     23 C           1.8416    2.9992   -2.5548 C.ar    1  UNL1       -0.0413
     24 C           1.5646    4.0143   -3.4851 C.ar    1  UNL1       -0.0582
     25 C           1.3730    3.7136   -4.8329 C.ar    1  UNL1       -0.0612
     26 C           1.4128    2.3896   -5.2644 C.ar    1  UNL1       -0.0588
     27 C           1.6056    1.3528   -4.3458 C.ar    1  UNL1       -0.0502
     28 C           1.8173    1.6656   -2.9945 C.ar    1  UNL1       -0.0553
     29 C           1.5889   -0.0790   -4.7927 C.3     1  UNL1       -0.0397
     30 C           9.6367    2.1584   -1.7522 C.3     1  UNL1        0.0086
     31 H          10.8052   -4.8547   -0.7331 H       1  UNL1        0.0278
     32 H          12.4163   -4.1397   -0.5325 H       1  UNL1        0.0278
     33 H          11.6575   -4.2190   -2.1429 H       1  UNL1        0.0278
     34 H           9.0402   -3.4007    0.0540 H       1  UNL1        0.0621
     35 H           7.9730   -1.2484    0.1510 H       1  UNL1        0.0636
     36 H          11.5412    0.5400   -1.5202 H       1  UNL1        0.0636
     37 H          12.5550   -1.6340   -1.6639 H       1  UNL1        0.0621
     38 H           4.9995    1.7294   -0.9446 H       1  UNL1        0.0633
     39 H           7.1695    6.2068   -0.5159 H       1  UNL1        0.0675
     40 H           9.0854    5.0609   -0.5673 H       1  UNL1        0.2922
     41 H           1.2233    3.7928   -0.6615 H       1  UNL1        0.0377
     42 H           2.2971    2.4002   -0.5213 H       1  UNL1        0.0377
     43 H           1.5146    5.0536   -3.1640 H       1  UNL1        0.0620
     44 H           1.1973    4.5140   -5.5466 H       1  UNL1        0.0618
     45 H           1.2827    2.1725   -6.3216 H       1  UNL1        0.0620
     46 H           1.9634    0.8587   -2.2782 H       1  UNL1        0.0623
     47 H           1.4151   -0.1599   -5.8716 H       1  UNL1        0.0278
     48 H           0.7889   -0.6250   -4.2816 H       1  UNL1        0.0278
     49 H           2.5493   -0.5530   -4.5693 H       1  UNL1        0.0278
     50 H          10.2064    1.6940   -2.5611 H       1  UNL1        0.0433
     51 H          10.3291    2.6985   -1.0982 H       1  UNL1        0.0433
     52 H           8.9546    2.8422   -2.2575 H       1  UNL1        0.0433
@<TRIPOS>BOND
     1     1     2    1
     2     2     3   ar
     3     3     4   ar
     4     4     5   ar
     5     5     6   ar
     6     6     7   ar
     7     2     7   ar
     8     5     8    1
     9     8     9   am
    10     9    10    2
    11     9    11    1
    12    11    12   ar
    13    12    13   ar
    14    13    14   ar
    15    14    15   ar
    16    15    16   ar
    17    16    17    1
    18    16    18   ar
    19    13    18   ar
    20    18    19   ar
    21    19    20   ar
    22    11    20   ar
    23    20    21    1
    24    14    22    1
    25    22    23    1
    26    23    24   ar
    27    24    25   ar
    28    25    26   ar
    29    26    27   ar
    30    27    28   ar
    31    23    28   ar
    32    27    29    1
    33     8    30    1
    34     1    31    1
    35     1    32    1
    36     1    33    1
    37     3    34    1
    38     4    35    1
    39     6    36    1
    40     7    37    1
    41    12    38    1
    42    19    39    1
    43    21    40    1
    44    22    41    1
    45    22    42    1
    46    24    43    1
    47    25    44    1
    48    26    45    1
    49    28    46    1
    50    29    47    1
    51    29    48    1
    52    29    49    1
    53    30    50    1
    54    30    51    1
    55    30    52    1
@<TRIPOS>MOLECULE
*****
 49 52 0 0 0
SMALL
GASTEIGER

@<TRIPOS>ATOM
      1 BR         12.3836   -4.1664   -1.2595 Br      1  UNL1       -0.0503
      2 C          11.4453   -2.5314   -1.1340 C.ar    1  UNL1        0.0180
      3 C          10.0619   -2.5207   -0.9880 C.ar    1  UNL1       -0.0460
      4 C           9.3591   -1.3030   -0.9470 C.ar    1  UNL1       -0.0392
      5 C          10.0208   -0.0736   -1.0604 C.ar    1  UNL1        0.0363
      6 C          11.4323   -0.1252   -1.1546 C.ar    1  UNL1       -0.0392
      7 C          12.1393   -1.3329   -1.1981 C.ar    1  UNL1       -0.0460
      8 N           9.3308    1.2059   -1.1617 N.am    1  UNL1       -0.2704
      9 C           8.0136    1.4188   -0.6663 C.2     1  UNL1        0.2541
     10 O           7.3362    0.5246   -0.1462 O.2     1  UNL1       -0.2695
     11 C           7.2987    2.7634   -0.7346 C.ar    1  UNL1        0.0793
     12 C           5.8864    2.7197   -0.8901 C.ar    1  UNL1       -0.0351
     13 C           5.1048    3.9056   -0.8472 C.ar    1  UNL1        0.0239
     14 C           3.7156    4.2712   -0.8613 C.ar    1  UNL1        0.0748
     15 N           3.5528    5.5929   -0.7387 N.ar    1  UNL1       -0.1774
     16 N           4.7959    6.0770   -0.6811 N.ar    1  UNL1       -0.2766
     17 H           4.9212    7.0784   -0.5771 H       1  UNL1        0.1889
     18 C           5.7702    5.1152   -0.7072 C.ar    1  UNL1        0.0695
     19 C           7.1527    5.2171   -0.5715 C.ar    1  UNL1        0.0060
     20 C           7.8883    4.0211   -0.5350 C.ar    1  UNL1        0.1310
     21 O           9.2137    4.1608   -0.2246 O.3     1  UNL1       -0.5059
     22 C           2.4971    3.3973   -0.8804 C.3     1  UNL1        0.0171
     23 C           2.0913    3.1772   -2.3210 C.ar    1  UNL1       -0.0413
     24 C           1.8210    4.2482   -3.1887 C.ar    1  UNL1       -0.0582
     25 C           1.4611    4.0193   -4.5168 C.ar    1  UNL1       -0.0612
     26 C           1.3220    2.7155   -4.9872 C.ar    1  UNL1       -0.0588
     27 C           1.5160    1.6309   -4.1262 C.ar    1  UNL1       -0.0502
     28 C           1.8944    1.8704   -2.7968 C.ar    1  UNL1       -0.0553
     29 C           1.2735    0.2286   -4.5985 C.3     1  UNL1       -0.0397
     30 C          10.0831    2.2431   -1.8691 C.3     1  UNL1        0.0086
     31 H           9.5091   -3.4565   -0.9312 H       1  UNL1        0.0629
     32 H           8.2771   -1.3613   -0.8799 H       1  UNL1        0.0636
     33 H          12.0275    0.7838   -1.1856 H       1  UNL1        0.0636
     34 H          13.2219   -1.3188   -1.2920 H       1  UNL1        0.0629
     35 H           5.3774    1.7609   -0.9978 H       1  UNL1        0.0633
     36 H           7.6213    6.1826   -0.4208 H       1  UNL1        0.0675
     37 H           9.5072    5.0452   -0.5045 H       1  UNL1        0.2922
     38 H           1.6668    3.8676   -0.3393 H       1  UNL1        0.0377
     39 H           2.7149    2.4489   -0.3807 H       1  UNL1        0.0377
     40 H           1.8948    5.2747   -2.8346 H       1  UNL1        0.0620
     41 H           1.2851    4.8600   -5.1824 H       1  UNL1        0.0618
     42 H           1.0470    2.5530   -6.0264 H       1  UNL1        0.0620
     43 H           2.0277    1.0252   -2.1228 H       1  UNL1        0.0623
     44 H           1.1891    0.1842   -5.6897 H       1  UNL1        0.0278
     45 H           0.3424   -0.1542   -4.1680 H       1  UNL1        0.0278
     46 H           2.1016   -0.4237   -4.3040 H       1  UNL1        0.0278
     47 H          10.6851    1.8124   -2.6749 H       1  UNL1        0.0433
     48 H          10.7568    2.7314   -1.1571 H       1  UNL1        0.0433
     49 H           9.4216    2.9614   -2.3522 H       1  UNL1        0.0433
@<TRIPOS>BOND
     1     1     2    1
     2     2     3   ar
     3     3     4   ar
     4     4     5   ar
     5     5     6   ar
     6     6     7   ar
     7     2     7   ar
     8     5     8    1
     9     8     9   am
    10     9    10    2
    11     9    11    1
    12    11    12   ar
    13    12    13   ar
    14    13    14   ar
    15    14    15   ar
    16    15    16   ar
    17    16    17    1
    18    16    18   ar
    19    13    18   ar
    20    18    19   ar
    21    19    20   ar
    22    11    20   ar
    23    20    21    1
    24    14    22    1
    25    22    23    1
    26    23    24   ar
    27    24    25   ar
    28    25    26   ar
    29    26    27   ar
    30    27    28   ar
    31    23    28   ar
    32    27    29    1
    33     8    30    1
    34     3    31    1
    35     4    32    1
    36     6    33    1
    37     7    34    1
    38    12    35    1
    39    19    36    1
    40    21    37    1
    41    22    38    1
    42    22    39    1
    43    24    40    1
    44    25    41    1
    45    26    42    1
    46    28    43    1
    47    29    44    1
    48    29    45    1
    49    29    46    1
    50    30    47    1
    51    30    48    1
    52    30    49    1
@<TRIPOS>MOLECULE
*****
 60 64 0 0 0
SMALL
GASTEIGER

@<TRIPOS>ATOM
      1 C           5.1688    0.7108   -4.2309 C.3     1  UNL1       -0.0397
      2 C           5.7308   -0.5458   -3.6390 C.ar    1  UNL1       -0.0502
      3 C           6.4418   -1.4613   -4.4215 C.ar    1  UNL1       -0.0588
      4 C           6.8429   -2.6838   -3.8839 C.ar    1  UNL1       -0.0612
      5 C           6.4989   -3.0161   -2.5745 C.ar    1  UNL1       -0.0582
      6 C           5.7641   -2.1220   -1.7829 C.ar    1  UNL1       -0.0413
      7 C           5.4332   -0.8670   -2.3106 C.ar    1  UNL1       -0.0553
      8 C           5.3495   -2.4655   -0.3799 C.3     1  UNL1        0.0171
      9 C           4.3662   -3.5941   -0.4269 C.ar    1  UNL1        0.0748
     10 N           4.8107   -4.8609   -0.3599 N.ar    1  UNL1       -0.1774
     11 N           3.7138   -5.5737   -0.0721 N.ar    1  UNL1       -0.2766
     12 H           3.8112   -6.5753    0.0517 H       1  UNL1        0.1889
     13 C           2.5954   -4.8113    0.1228 C.ar    1  UNL1        0.0695
     14 C           2.9446   -3.5274   -0.2851 C.ar    1  UNL1        0.0239
     15 C           1.9430   -2.5296   -0.3296 C.ar    1  UNL1       -0.0351
     16 C           0.6465   -2.8492    0.1195 C.ar    1  UNL1        0.0793
     17 C           0.4107   -4.0974    0.7175 C.ar    1  UNL1        0.1310
     18 C           1.3509   -5.1265    0.6691 C.ar    1  UNL1        0.0060
     19 O          -0.7380   -4.3737    1.4158 O.3     1  UNL1       -0.5059
     20 C          -0.4876   -1.8800    0.0328 C.2     1  UNL1        0.2541
     21 O          -1.1186   -1.7588    1.0852 O.2     1  UNL1       -0.2695
     22 N          -0.8358   -1.2996   -1.2115 N.am    1  UNL1       -0.2704
     23 C          -2.0357   -0.4781   -1.3608 C.ar    1  UNL1        0.0366
     24 C          -2.7165    0.1351   -0.2830 C.ar    1  UNL1       -0.0385
     25 C          -3.9865    0.7457   -0.4433 C.ar    1  UNL1       -0.0382
     26 C          -4.6049    0.6770   -1.6760 C.ar    1  UNL1        0.0396
     27 C          -3.9263    0.1076   -2.7433 C.ar    1  UNL1       -0.0227
     28 C          -2.6332   -0.3652   -2.6251 C.ar    1  UNL1       -0.0353
     29 C          -4.8126   -0.0841   -3.9257 C.3     1  UNL1       -0.0096
     30 C          -6.0717    0.6571   -3.5000 C.3     1  UNL1        0.0238
     31 N          -5.8871    1.0884   -2.1033 N.am    1  UNL1       -0.2711
     32 C          -6.8168    1.7827   -1.3402 C.2     1  UNL1        0.2167
     33 O          -6.6495    2.1189   -0.1801 O.2     1  UNL1       -0.2756
     34 C          -8.0885    2.2005   -2.0585 C.3     1  UNL1        0.0127
     35 C          -0.2324   -1.7724   -2.4689 C.3     1  UNL1        0.0086
     36 H           5.6519    0.9630   -5.1789 H       1  UNL1        0.0278
     37 H           5.2948    1.5574   -3.5487 H       1  UNL1        0.0278
     38 H           4.0994    0.5615   -4.4160 H       1  UNL1        0.0278
     39 H           6.6728   -1.2372   -5.4598 H       1  UNL1        0.0620
     40 H           7.3956   -3.3936   -4.4938 H       1  UNL1        0.0618
     41 H           6.7874   -3.9885   -2.1774 H       1  UNL1        0.0620
     42 H           4.9139   -0.1389   -1.6903 H       1  UNL1        0.0623
     43 H           4.8889   -1.6033    0.1175 H       1  UNL1        0.0377
     44 H           6.2263   -2.7389    0.2187 H       1  UNL1        0.0377
     45 H           2.1693   -1.5385   -0.7103 H       1  UNL1        0.0633
     46 H           1.1441   -6.0991    1.1042 H       1  UNL1        0.0675
     47 H          -1.1444   -3.5102    1.6591 H       1  UNL1        0.2922
     48 H          -2.2851    0.1514    0.7162 H       1  UNL1        0.0637
     49 H          -4.4761    1.1956    0.4186 H       1  UNL1        0.0637
     50 H          -2.1732   -0.7299   -3.5352 H       1  UNL1        0.0639
     51 H          -5.0233   -1.1537   -4.0360 H       1  UNL1        0.0329
     52 H          -4.3854    0.3065   -4.8518 H       1  UNL1        0.0329
     53 H          -6.9481    0.0045   -3.5623 H       1  UNL1        0.0472
     54 H          -6.2468    1.5453   -4.1218 H       1  UNL1        0.0472
     55 H          -8.2873    1.6406   -2.9707 H       1  UNL1        0.0323
     56 H          -8.0225    3.2628   -2.3074 H       1  UNL1        0.0323
     57 H          -8.9347    2.0341   -1.3873 H       1  UNL1        0.0323
     58 H           0.5673   -2.4966   -2.3404 H       1  UNL1        0.0433
     59 H           0.1642   -0.9128   -3.0179 H       1  UNL1        0.0433
     60 H          -0.9835   -2.3027   -3.0635 H       1  UNL1        0.0433
@<TRIPOS>BOND
     1     1     2    1
     2     2     3   ar
     3     3     4   ar
     4     4     5   ar
     5     5     6   ar
     6     6     7   ar
     7     2     7   ar
     8     6     8    1
     9     8     9    1
    10     9    10   ar
    11    10    11   ar
    12    11    12    1
    13    11    13   ar
    14    13    14   ar
    15     9    14   ar
    16    14    15   ar
    17    15    16   ar
    18    16    17   ar
    19    17    18   ar
    20    13    18   ar
    21    17    19    1
    22    16    20    1
    23    20    21    2
    24    20    22   am
    25    22    23    1
    26    23    24   ar
    27    24    25   ar
    28    25    26   ar
    29    26    27   ar
    30    27    28   ar
    31    23    28   ar
    32    27    29    1
    33    29    30    1
    34    30    31    1
    35    26    31    1
    36    31    32   am
    37    32    33    2
    38    32    34    1
    39    22    35    1
    40     1    36    1
    41     1    37    1
    42     1    38    1
    43     3    39    1
    44     4    40    1
    45     5    41    1
    46     7    42    1
    47     8    43    1
    48     8    44    1
    49    15    45    1
    50    18    46    1
    51    19    47    1
    52    24    48    1
    53    25    49    1
    54    28    50    1
    55    29    51    1
    56    29    52    1
    57    30    53    1
    58    30    54    1
    59    34    55    1
    60    34    56    1
    61    34    57    1
    62    35    58    1
    63    35    59    1
    64    35    60    1
@<TRIPOS>MOLECULE
*****
 55 59 0 0 0
SMALL
GASTEIGER

@<TRIPOS>ATOM
      1 C           4.9941    0.6235   -4.2793 C.3     1  UNL1       -0.0397
      2 C           5.5335   -0.6337   -3.6675 C.ar    1  UNL1       -0.0502
      3 C           6.2347   -1.5685   -4.4360 C.ar    1  UNL1       -0.0588
      4 C           6.6287   -2.7840   -3.8779 C.ar    1  UNL1       -0.0612
      5 C           6.2970   -3.0870   -2.5571 C.ar    1  UNL1       -0.0582
      6 C           5.5763   -2.1713   -1.7754 C.ar    1  UNL1       -0.0413
      7 C           5.2396   -0.9293   -2.3313 C.ar    1  UNL1       -0.0553
      8 C           5.2059   -2.4734   -0.3481 C.3     1  UNL1        0.0171
      9 C           4.2183   -3.5983   -0.3352 C.ar    1  UNL1        0.0748
     10 N           4.6592   -4.8632   -0.2258 N.ar    1  UNL1       -0.1774
     11 N           3.5529   -5.5720    0.0366 N.ar    1  UNL1       -0.2766
     12 H           3.6417   -6.5739    0.1630 H       1  UNL1        0.1889
     13 C           2.4285   -4.8093    0.1847 C.ar    1  UNL1        0.0695
     14 C           2.7949   -3.5282   -0.2172 C.ar    1  UNL1        0.0239
     15 C           1.7983   -2.5326   -0.3010 C.ar    1  UNL1       -0.0351
     16 C           0.4878   -2.8565    0.0941 C.ar    1  UNL1        0.0793
     17 C           0.2197   -4.1013    0.6777 C.ar    1  UNL1        0.1310
     18 C           1.1616   -5.1288    0.6755 C.ar    1  UNL1        0.0060
     19 O          -0.9572   -4.3732    1.3319 O.3     1  UNL1       -0.5059
     20 C          -0.6231   -1.8651   -0.0072 C.2     1  UNL1        0.2541
     21 O          -1.2846   -1.7769    1.0261 O.2     1  UNL1       -0.2695
     22 N          -0.8919   -1.2102   -1.2310 N.am    1  UNL1       -0.2703
     23 C          -1.8083   -0.0800   -1.3260 C.ar    1  UNL1        0.0400
     24 C          -2.3511    0.5440   -0.1920 C.ar    1  UNL1       -0.0366
     25 C          -3.1164    1.7176   -0.2759 C.ar    1  UNL1       -0.0145
     26 C          -3.3843    2.2858   -1.5104 C.ar    1  UNL1        0.1622
     27 C          -2.9595    1.6311   -2.6647 C.ar    1  UNL1        0.1638
     28 C          -2.1602    0.4866   -2.5766 C.ar    1  UNL1        0.0051
     29 O          -3.2867    2.0686   -3.9259 O.3     1  UNL1       -0.4849
     30 C          -4.3641    3.0204   -3.8717 C.3     1  UNL1        0.1237
     31 C          -4.0569    4.0745   -2.8201 C.3     1  UNL1        0.1237
     32 O          -4.0710    3.4717   -1.5191 O.3     1  UNL1       -0.4849
     33 C          -0.2916   -1.6647   -2.4985 C.3     1  UNL1        0.0086
     34 H           5.5099    0.8694   -5.2132 H       1  UNL1        0.0278
     35 H           5.1101    1.4741   -3.5994 H       1  UNL1        0.0278
     36 H           3.9300    0.4836   -4.4964 H       1  UNL1        0.0278
     37 H           6.4682   -1.3619   -5.4769 H       1  UNL1        0.0620
     38 H           7.1776   -3.5068   -4.4766 H       1  UNL1        0.0618
     39 H           6.5913   -4.0498   -2.1411 H       1  UNL1        0.0620
     40 H           4.7269   -0.1863   -1.7226 H       1  UNL1        0.0623
     41 H           4.7688   -1.5934    0.1409 H       1  UNL1        0.0377
     42 H           6.1028   -2.7338    0.2262 H       1  UNL1        0.0377
     43 H           2.0407   -1.5335   -0.6539 H       1  UNL1        0.0633
     44 H           0.9335   -6.1014    1.0975 H       1  UNL1        0.0675
     45 H          -1.3610   -3.5058    1.5683 H       1  UNL1        0.2922
     46 H          -2.1814    0.1699    0.8114 H       1  UNL1        0.0637
     47 H          -3.4814    2.1903    0.6333 H       1  UNL1        0.0656
     48 H          -1.8331    0.0537   -3.5143 H       1  UNL1        0.0674
     49 H          -5.2955    2.4871   -3.6412 H       1  UNL1        0.0731
     50 H          -4.4647    3.4765   -4.8606 H       1  UNL1        0.0731
     51 H          -4.8123    4.8643   -2.8299 H       1  UNL1        0.0731
     52 H          -3.0751    4.5346   -2.9888 H       1  UNL1        0.0731
     53 H           0.3077   -2.5679   -2.3912 H       1  UNL1        0.0433
     54 H           0.3444   -0.8642   -2.8924 H       1  UNL1        0.0433
     55 H          -1.0793   -1.9174   -3.2175 H       1  UNL1        0.0433
@<TRIPOS>BOND
     1     1     2    1
     2     2     3   ar
     3     3     4   ar
     4     4     5   ar
     5     5     6   ar
     6     6     7   ar
     7     2     7   ar
     8     6     8    1
     9     8     9    1
    10     9    10   ar
    11    10    11   ar
    12    11    12    1
    13    11    13   ar
    14    13    14   ar
    15     9    14   ar
    16    14    15   ar
    17    15    16   ar
    18    16    17   ar
    19    17    18   ar
    20    13    18   ar
    21    17    19    1
    22    16    20    1
    23    20    21    2
    24    20    22   am
    25    22    23    1
    26    23    24   ar
    27    24    25   ar
    28    25    26   ar
    29    26    27   ar
    30    27    28   ar
    31    23    28   ar
    32    27    29    1
    33    29    30    1
    34    30    31    1
    35    31    32    1
    36    26    32    1
    37    22    33    1
    38     1    34    1
    39     1    35    1
    40     1    36    1
    41     3    37    1
    42     4    38    1
    43     5    39    1
    44     7    40    1
    45     8    41    1
    46     8    42    1
    47    15    43    1
    48    18    44    1
    49    19    45    1
    50    24    46    1
    51    25    47    1
    52    28    48    1
    53    30    49    1
    54    30    50    1
    55    31    51    1
    56    31    52    1
    57    33    53    1
    58    33    54    1
    59    33    55    1
@<TRIPOS>MOLECULE
*****
 48 50 0 0 0
SMALL
GASTEIGER

@<TRIPOS>ATOM
      1 C           1.3774   -0.7490    0.7278 C.3     1  UNL1       -0.0481
      2 C           2.8955   -0.5778    0.5531 C.3     1  UNL1        0.0259
      3 N           3.2209   -0.0328   -0.8317 N.3     1  UNL1       -0.1770
      4 S           4.9185    0.1637   -1.2068 S.O2    1  UNL1        0.0643
      5 O           5.5700   -1.0463   -0.7552 O.2     1  UNL1       -0.1527
      6 O           5.0045    0.5677   -2.5970 O.2     1  UNL1       -0.1527
      7 C           5.4484    1.5875   -0.2853 C.ar    1  UNL1        0.1472
      8 C           4.8346    2.8201   -0.5851 C.ar    1  UNL1       -0.0214
      9 C           5.2388    4.0164    0.0465 C.ar    1  UNL1        0.0401
     10 C           6.2873    3.9281    0.9781 C.ar    1  UNL1        0.1273
     11 C           6.9036    2.7099    1.2660 C.ar    1  UNL1        0.0237
     12 C           6.4965    1.5403    0.6288 C.ar    1  UNL1        0.1466
     13 O           7.1301    0.3754    0.9321 O.3     1  UNL1       -0.5047
     14 O           6.8108    4.9875    1.6634 O.3     1  UNL1       -0.5062
     15 C           4.6283    5.3519   -0.3478 C.3     1  UNL1        0.1717
     16 N           5.4154    5.9519   -1.4446 N.2     1  UNL1       -0.1654
     17 N           4.6566    6.3001   -2.3842 N.am    1  UNL1       -0.0648
     18 C           3.3457    6.0136   -2.0593 C.2     1  UNL1        0.3496
     19 O           2.3941    6.3525   -2.7503 O.2     1  UNL1       -0.2485
     20 N           3.2906    5.3559   -0.8424 N.am    1  UNL1       -0.2215
     21 C           2.1295    4.9606   -0.1232 C.ar    1  UNL1        0.0754
     22 C           0.8752    4.8972   -0.7502 C.ar    1  UNL1       -0.0373
     23 C          -0.2667    4.4634   -0.0607 C.ar    1  UNL1       -0.0598
     24 C          -0.1780    4.0743    1.2712 C.ar    1  UNL1       -0.0589
     25 C           1.0512    4.1415    1.9179 C.ar    1  UNL1       -0.0246
     26 C           2.1806    4.5895    1.2300 C.ar    1  UNL1        0.1448
     27 F           3.3208    4.6848    1.9315 F       1  UNL1       -0.2035
     28 C           2.6078   -0.8894   -1.9030 C.3     1  UNL1        0.0092
     29 C           3.3617    0.3428    1.6780 C.3     1  UNL1       -0.0481
     30 H           0.9858   -1.5588    0.1042 H       1  UNL1        0.0245
     31 H           0.8423    0.1721    0.4713 H       1  UNL1        0.0245
     32 H           1.1255   -1.0130    1.7613 H       1  UNL1        0.0245
     33 H           3.3649   -1.5619    0.6711 H       1  UNL1        0.0474
     34 H           4.0463    2.8367   -1.3383 H       1  UNL1        0.0643
     35 H           7.7135    2.6925    1.9928 H       1  UNL1        0.0691
     36 H           7.8839    0.5421    1.5213 H       1  UNL1        0.2922
     37 H           6.2728    5.7874    1.5830 H       1  UNL1        0.2921
     38 H           4.6518    6.0536    0.4925 H       1  UNL1        0.0828
     39 H           0.7405    5.1631   -1.7952 H       1  UNL1        0.0637
     40 H          -1.2234    4.4286   -0.5776 H       1  UNL1        0.0618
     41 H          -1.0635    3.7299    1.8005 H       1  UNL1        0.0618
     42 H           1.1379    3.8523    2.9615 H       1  UNL1        0.0647
     43 H           1.5171   -0.8596   -1.8496 H       1  UNL1        0.0408
     44 H           2.9478   -1.9262   -1.8099 H       1  UNL1        0.0408
     45 H           2.8541   -0.5168   -2.9010 H       1  UNL1        0.0408
     46 H           3.0557    1.3793    1.5061 H       1  UNL1        0.0245
     47 H           4.4430    0.3017    1.8030 H       1  UNL1        0.0245
     48 H           2.9474    0.0285    2.6430 H       1  UNL1        0.0245
@<TRIPOS>BOND
     1     1     2    1
     2     2     3    1
     3     3     4    1
     4     4     5    2
     5     4     6    2
     6     4     7    1
     7     7     8   ar
     8     8     9   ar
     9     9    10   ar
    10    10    11   ar
    11    11    12   ar
    12     7    12   ar
    13    12    13    1
    14    10    14    1
    15     9    15    1
    16    15    16    1
    17    16    17    2
    18    17    18    1
    19    18    19    2
    20    18    20   am
    21    15    20    1
    22    20    21    1
    23    21    22   ar
    24    22    23   ar
    25    23    24   ar
    26    24    25   ar
    27    25    26   ar
    28    21    26   ar
    29    26    27    1
    30     3    28    1
    31     2    29    1
    32     1    30    1
    33     1    31    1
    34     1    32    1
    35     2    33    1
    36     8    34    1
    37    11    35    1
    38    13    36    1
    39    14    37    1
    40    15    38    1
    41    22    39    1
    42    23    40    1
    43    24    41    1
    44    25    42    1
    45    28    43    1
    46    28    44    1
    47    28    45    1
    48    29    46    1
    49    29    47    1
    50    29    48    1
@<TRIPOS>MOLECULE
*****
 56 60 0 0 0
SMALL
GASTEIGER

@<TRIPOS>ATOM
      1 C           1.6149   -4.7186    3.5544 C.3     1  UNL1       -0.0495
      2 C           3.0867   -4.4785    3.8481 C.3     1  UNL1        0.0088
      3 N           3.8575   -4.2553    2.6394 N.am    1  UNL1       -0.3148
      4 C           3.9577   -2.9906    2.0827 C.2     1  UNL1        0.2235
      5 O           3.3875   -2.0266    2.6048 O.2     1  UNL1       -0.2748
      6 C           4.8073   -2.8722    0.7502 C.3     1  UNL1        0.0718
      7 C           4.8469   -4.0804   -0.2633 C.3     1  UNL1       -0.0350
      8 C           4.5895   -3.0858   -1.4086 C.3     1  UNL1       -0.0506
      9 C           3.9817   -2.1327   -0.3797 C.3     1  UNL1       -0.0350
     10 C           6.2508   -2.2548    1.1651 C.ar    1  UNL1       -0.0317
     11 C           6.4870   -0.8790    1.2578 C.ar    1  UNL1       -0.0555
     12 C           7.7471   -0.3693    1.5971 C.ar    1  UNL1       -0.0353
     13 C           8.8373   -1.1901    1.8480 C.ar    1  UNL1        0.0768
     14 C           8.6608   -2.5693    1.8014 C.ar    1  UNL1        0.0313
     15 C           7.3594   -3.0736    1.4737 C.ar    1  UNL1       -0.0462
     16 C           9.8440   -3.2959    2.0679 C.ar    1  UNL1        0.1383
     17 N          11.0477   -2.7238    2.3114 N.ar    1  UNL1       -0.2094
     18 C          11.0731   -1.3967    2.2993 C.ar    1  UNL1        0.2138
     19 N          10.0153   -0.6132    2.1060 N.ar    1  UNL1       -0.2146
     20 N          12.2810   -0.7689    2.5081 N.pl3   1  UNL1       -0.3274
     21 C           9.8201   -4.8006    2.1349 C.2     1  UNL1        0.2663
     22 O           8.7831   -5.3613    2.5006 O.2     1  UNL1       -0.2683
     23 N          10.9277   -5.5598    1.7860 N.am    1  UNL1       -0.2876
     24 C          10.7905   -7.0150    1.7680 C.3     1  UNL1        0.0407
     25 C          12.1352   -7.5066    1.3521 C.ar    1  UNL1       -0.0254
     26 C          12.9895   -6.4221    1.1152 C.ar    1  UNL1       -0.0254
     27 C          12.2677   -5.1275    1.3623 C.3     1  UNL1        0.0407
     28 C          14.3033   -6.6360    0.7283 C.ar    1  UNL1       -0.0568
     29 C          14.7471   -7.9559    0.5790 C.ar    1  UNL1       -0.0614
     30 C          13.8821   -9.0372    0.8124 C.ar    1  UNL1       -0.0614
     31 C          12.5628   -8.8126    1.2033 C.ar    1  UNL1       -0.0568
     32 H           1.0540   -4.8282    4.4884 H       1  UNL1        0.0245
     33 H           1.4778   -5.6313    2.9656 H       1  UNL1        0.0245
     34 H           1.1766   -3.8885    2.9904 H       1  UNL1        0.0245
     35 H           3.5162   -5.3448    4.3600 H       1  UNL1        0.0459
     36 H           3.1917   -3.6097    4.5073 H       1  UNL1        0.0459
     37 H           4.3413   -5.0365    2.2166 H       1  UNL1        0.1487
     38 H           4.0485   -4.8189   -0.1359 H       1  UNL1        0.0278
     39 H           5.7952   -4.6172   -0.3634 H       1  UNL1        0.0278
     40 H           3.9061   -3.4310   -2.1894 H       1  UNL1        0.0266
     41 H           5.4961   -2.6923   -1.8811 H       1  UNL1        0.0266
     42 H           2.8945   -2.2527   -0.2763 H       1  UNL1        0.0278
     43 H           4.1868   -1.0719   -0.5409 H       1  UNL1        0.0278
     44 H           5.6761   -0.1776    1.0662 H       1  UNL1        0.0621
     45 H           7.8783    0.7102    1.6504 H       1  UNL1        0.0639
     46 H           7.2013   -4.1501    1.4434 H       1  UNL1        0.0628
     47 H          12.9083   -1.3458    3.0522 H       1  UNL1        0.1452
     48 H          12.1273    0.1778    2.8283 H       1  UNL1        0.1452
     49 H          10.0216   -7.2929    1.0383 H       1  UNL1        0.0514
     50 H          10.5178   -7.3679    2.7672 H       1  UNL1        0.0514
     51 H          12.1835   -4.5268    0.4547 H       1  UNL1        0.0514
     52 H          12.7432   -4.5709    2.1735 H       1  UNL1        0.0514
     53 H          14.9819   -5.8083    0.5492 H       1  UNL1        0.0621
     54 H          15.7751   -8.1523    0.2813 H       1  UNL1        0.0618
     55 H          14.2447  -10.0558    0.6921 H       1  UNL1        0.0618
     56 H          11.8905   -9.6475    1.3862 H       1  UNL1        0.0621
@<TRIPOS>BOND
     1     1     2    1
     2     2     3    1
     3     3     4   am
     4     4     5    2
     5     4     6    1
     6     6     7    1
     7     7     8    1
     8     8     9    1
     9     6     9    1
    10     6    10    1
    11    10    11   ar
    12    11    12   ar
    13    12    13   ar
    14    13    14   ar
    15    14    15   ar
    16    10    15   ar
    17    14    16   ar
    18    16    17   ar
    19    17    18   ar
    20    18    19   ar
    21    13    19   ar
    22    18    20    1
    23    16    21    1
    24    21    22    2
    25    21    23   am
    26    23    24    1
    27    24    25    1
    28    25    26   ar
    29    26    27    1
    30    23    27    1
    31    26    28   ar
    32    28    29   ar
    33    29    30   ar
    34    30    31   ar
    35    25    31   ar
    36     1    32    1
    37     1    33    1
    38     1    34    1
    39     2    35    1
    40     2    36    1
    41     3    37    1
    42     7    38    1
    43     7    39    1
    44     8    40    1
    45     8    41    1
    46     9    42    1
    47     9    43    1
    48    11    44    1
    49    12    45    1
    50    15    46    1
    51    20    47    1
    52    20    48    1
    53    24    49    1
    54    24    50    1
    55    27    51    1
    56    27    52    1
    57    28    53    1
    58    29    54    1
    59    30    55    1
    60    31    56    1
@<TRIPOS>MOLECULE
*****
 92 93 0 0 0
SMALL
GASTEIGER

@<TRIPOS>ATOM
      1 C           1.7827   -0.1850    5.7830 C.3     1  UNL1        0.0369
      2 O           3.1085   -0.0705    5.2903 O.3     1  UNL1       -0.3772
      3 C           3.7126   -1.2788    4.8147 C.3     1  UNL1        0.0849
      4 H           2.9068   -1.9511    4.4776 H       1  UNL1        0.0622
      5 C           4.3484   -0.9154    3.4221 C.3     1  UNL1       -0.0213
      6 C           5.6006   -0.0896    3.6180 C.3     1  UNL1       -0.0373
      7 H           5.9337   -0.4519    4.5937 H       1  UNL1        0.0302
      8 C           5.3559    1.3978    3.8768 C.3     1  UNL1       -0.0620
      9 C           6.7369   -0.3830    2.6038 C.3     1  UNL1       -0.0194
     10 C           7.8192   -0.9471    3.4977 C.2     1  UNL1        0.0259
     11 C           8.4869   -0.1142    4.3178 C.2     1  UNL1        0.0815
     12 N           8.3857    1.2749    4.2400 N.pl3   1  UNL1       -0.3394
     13 C           9.2599    2.0825    3.3994 C.3     1  UNL1        0.0220
     14 C           8.7961    3.5588    3.4337 C.3     1  UNL1        0.0138
     15 N           8.5895    4.1208    4.7904 N.3     1  UNL1       -0.3069
     16 C           9.8172    4.1073    5.5859 C.3     1  UNL1       -0.0130
     17 C           8.0761    5.4899    4.6863 C.3     1  UNL1       -0.0130
     18 C           9.0060   -0.6672    5.6102 C.2     1  UNL1        0.2019
     19 O           9.4636    0.0664    6.4761 O.2     1  UNL1       -0.2859
     20 C           8.8224   -2.1072    5.8606 C.2     1  UNL1        0.0119
     21 C           8.1420   -2.9385    5.0734 C.2     1  UNL1        0.0849
     22 C           7.6849   -2.4204    3.7522 C.2     1  UNL1        0.2051
     23 O           7.1469   -3.1093    2.8901 O.2     1  UNL1       -0.2856
     24 N           7.8845   -4.2339    5.5399 N.am    1  UNL1       -0.2786
     25 C           7.2579   -5.3158    4.9956 C.2     1  UNL1        0.2441
     26 O           6.5008   -5.2813    4.0218 O.2     1  UNL1       -0.2702
     27 C           7.4718   -6.6577    5.6950 C.2     1  UNL1        0.0115
     28 C           8.3834   -7.0006    6.6347 C.2     1  UNL1       -0.0541
     29 C           9.3252   -6.1305    7.3121 C.2     1  UNL1       -0.0627
     30 C           9.2176   -6.0635    8.6303 C.2     1  UNL1       -0.0518
     31 C           9.3384   -4.7221    9.3466 C.3     1  UNL1        0.1175
     32 H          10.0640   -4.0772    8.8383 H       1  UNL1        0.0681
     33 C           7.8085   -4.0477    9.2472 C.3     1  UNL1        0.1550
     34 H           7.3073   -4.4726    8.3705 H       1  UNL1        0.0812
     35 C           7.6612   -2.5099    9.0287 C.2     1  UNL1       -0.0334
     36 C           6.8377   -1.6821    8.2560 C.2     1  UNL1       -0.0761
     37 C           5.4234   -1.4750    7.3615 C.3     1  UNL1        0.0031
     38 H           5.5169   -0.4179    7.0648 H       1  UNL1        0.0366
     39 C           4.6207   -2.1381    5.9915 C.3     1  UNL1        0.0872
     40 H           5.3221   -2.7557    5.4332 H       1  UNL1        0.0625
     41 O           3.6448   -3.0701    6.5439 O.3     1  UNL1       -0.3887
     42 C           4.4567   -1.5671    8.5566 C.3     1  UNL1       -0.0565
     43 C           8.5636   -1.8232   10.0761 C.3     1  UNL1       -0.0402
     44 O           7.0692   -4.4034   10.4419 O.3     1  UNL1       -0.4398
     45 C           6.4180   -5.5731   10.3815 C.2     1  UNL1        0.3983
     46 O           6.3020   -6.3203    9.4172 O.2     1  UNL1       -0.2267
     47 N           5.8727   -5.8679   11.5801 N.am    1  UNL1       -0.2950
     48 O           9.8256   -4.9861   10.6808 O.3     1  UNL1       -0.3717
     49 C          11.1108   -5.6363   10.7548 C.3     1  UNL1        0.0374
     50 C           6.5376   -7.7533    5.2624 C.3     1  UNL1       -0.0348
     51 H           1.1419    0.5752    5.3161 H       1  UNL1        0.0524
     52 H           1.8258    0.0277    6.8506 H       1  UNL1        0.0524
     53 H           1.3237   -1.1631    5.6129 H       1  UNL1        0.0524
     54 H           3.6412   -0.3331    2.8025 H       1  UNL1        0.0294
     55 H           4.5443   -1.8308    2.8483 H       1  UNL1        0.0294
     56 H           5.8140    2.0431    3.1245 H       1  UNL1        0.0233
     57 H           5.7982    1.6528    4.8485 H       1  UNL1        0.0233
     58 H           4.2970    1.6535    3.9423 H       1  UNL1        0.0233
     59 H           7.0796    0.5110    2.0692 H       1  UNL1        0.0318
     60 H           6.4484   -1.0909    1.8193 H       1  UNL1        0.0318
     61 H           8.3650    1.6938    5.1765 H       1  UNL1        0.1462
     62 H           9.2417    1.7222    2.3650 H       1  UNL1        0.0474
     63 H          10.2885    1.9973    3.7649 H       1  UNL1        0.0474
     64 H           7.8384    3.6101    2.8976 H       1  UNL1        0.0442
     65 H           9.5121    4.1665    2.8663 H       1  UNL1        0.0442
     66 H          10.1326    3.0827    5.8061 H       1  UNL1        0.0391
     67 H           9.6521    4.5845    6.5586 H       1  UNL1        0.0391
     68 H          10.6396    4.6254    5.0813 H       1  UNL1        0.0391
     69 H           7.1186    5.5065    4.1535 H       1  UNL1        0.0391
     70 H           8.7748    6.1524    4.1620 H       1  UNL1        0.0391
     71 H           7.8859    5.9098    5.6807 H       1  UNL1        0.0391
     72 H           9.2107   -2.3995    6.8295 H       1  UNL1        0.0676
     73 H           8.1314   -4.3673    6.5128 H       1  UNL1        0.1552
     74 H           8.3412   -8.0112    7.0496 H       1  UNL1        0.0622
     75 H           9.7996   -5.3450    6.7464 H       1  UNL1        0.0615
     76 H           8.7463   -6.8393    9.2178 H       1  UNL1        0.0599
     77 H           7.1282   -0.6320    8.4498 H       1  UNL1        0.0576
     78 H           2.7967   -2.9586    6.0783 H       1  UNL1        0.2099
     79 H           4.3923   -2.6115    8.8931 H       1  UNL1        0.0236
     80 H           3.4512   -1.2076    8.3038 H       1  UNL1        0.0236
     81 H           4.8022   -0.9784    9.4169 H       1  UNL1        0.0236
     82 H           8.7039   -2.4628   10.9622 H       1  UNL1        0.0276
     83 H           8.1098   -0.9074   10.4750 H       1  UNL1        0.0276
     84 H           9.5587   -1.5968    9.6829 H       1  UNL1        0.0276
     85 H           6.0689   -5.2667   12.3512 H       1  UNL1        0.1482
     86 H           5.4072   -6.7509   11.7015 H       1  UNL1        0.1482
     87 H          11.2848   -5.9698   11.7868 H       1  UNL1        0.0524
     88 H          11.9186   -4.9520   10.4801 H       1  UNL1        0.0524
     89 H          11.1739   -6.5371   10.1307 H       1  UNL1        0.0524
     90 H           5.8649   -7.4659    4.4522 H       1  UNL1        0.0279
     91 H           5.9114   -8.0804    6.0985 H       1  UNL1        0.0279
     92 H           7.1174   -8.6127    4.9042 H       1  UNL1        0.0279
@<TRIPOS>BOND
     1     1     2    1
     2     3     5    1
     3     5     6    1
     4     6     9    1
     5     9    10    1
     6    10    11    2
     7    11    12    1
     8    12    13    1
     9    13    14    1
    10    14    15    1
    11    15    16    1
    12    15    17    1
    13    11    18    1
    14    18    19    2
    15    18    20    1
    16    20    21    2
    17    21    22    1
    18    10    22    1
    19    22    23    2
    20    21    24    1
    21    24    25   am
    22    25    26    2
    23    25    27    1
    24    27    28    2
    25    28    29    1
    26    29    30    2
    27    30    31    1
    28    31    32    1
    29    31    33    1
    30    33    35    1
    31    35    36    2
    32    36    37    1
    33    37    39    1
    34    39    40    1
    35     3    39    1
    36    39    41    1
    37    35    43    1
    38    44    45    1
    39    45    46    2
    40    45    47   am
    41    31    48    1
    42    48    49    1
    43    27    50    1
    44     3     4    1
    45     3     2    1
    46     6     8    1
    47     6     7    1
    48    33    44    1
    49    33    34    1
    50    37    42    1
    51    37    38    1
    52     1    51    1
    53     1    52    1
    54     1    53    1
    55     5    54    1
    56     5    55    1
    57     8    56    1
    58     8    57    1
    59     8    58    1
    60     9    59    1
    61     9    60    1
    62    12    61    1
    63    13    62    1
    64    13    63    1
    65    14    64    1
    66    14    65    1
    67    16    66    1
    68    16    67    1
    69    16    68    1
    70    17    69    1
    71    17    70    1
    72    17    71    1
    73    20    72    1
    74    24    73    1
    75    28    74    1
    76    29    75    1
    77    30    76    1
    78    36    77    1
    79    41    78    1
    80    42    79    1
    81    42    80    1
    82    42    81    1
    83    43    82    1
    84    43    83    1
    85    43    84    1
    86    47    85    1
    87    47    86    1
    88    49    87    1
    89    49    88    1
    90    49    89    1
    91    50    90    1
    92    50    91    1
    93    50    92    1
@<TRIPOS>MOLECULE
*****
 47 50 0 0 0
SMALL
GASTEIGER

@<TRIPOS>ATOM
      1 O           1.2755    0.3475    0.9612 O.3     1  UNL1       -0.5059
      2 C           2.5212    0.2679    0.4137 C.ar    1  UNL1        0.1310
      3 C           3.2736    1.4380    0.3018 C.ar    1  UNL1        0.0223
      4 C           4.6213    1.3649   -0.0513 C.ar    1  UNL1        0.1238
      5 O           5.3353    2.5191   -0.2073 O.3     1  UNL1       -0.5064
      6 C           5.2596    0.1344   -0.2276 C.ar    1  UNL1       -0.0025
      7 C           4.4565   -1.0228   -0.1981 C.ar    1  UNL1       -0.0406
      8 C           3.0701   -0.9636    0.0616 C.ar    1  UNL1        0.0615
      9 C           2.3196   -2.2410   -0.0220 C.ar    1  UNL1        0.1727
     10 N           2.9190   -3.3862    0.2038 N.ar    1  UNL1       -0.1507
     11 N           1.9495   -4.3315    0.0190 N.ar    1  UNL1       -0.2260
     12 H           2.1228   -5.3238    0.0683 H       1  UNL1        0.1937
     13 C           0.7506   -3.7462   -0.3647 C.ar    1  UNL1        0.3489
     14 O          -0.2602   -4.3567   -0.6659 O.2     1  UNL1       -0.2446
     15 N           0.9991   -2.3850   -0.3658 N.ar    1  UNL1       -0.2436
     16 C           0.0027   -1.4754   -0.7508 C.ar    1  UNL1        0.0536
     17 C          -0.0803   -0.9859   -2.0564 C.ar    1  UNL1       -0.0357
     18 C          -1.2170   -0.2825   -2.4924 C.ar    1  UNL1       -0.0357
     19 C          -2.2765   -0.1003   -1.5847 C.ar    1  UNL1        0.0489
     20 C          -2.2036   -0.5685   -0.2694 C.ar    1  UNL1        0.0018
     21 C          -1.0509   -1.2539    0.1488 C.ar    1  UNL1       -0.0285
     22 C          -3.4302   -0.2593    0.3731 C.ar    1  UNL1       -0.0364
     23 C          -4.2409    0.3458   -0.5564 C.ar    1  UNL1        0.0054
     24 N          -3.5278    0.4734   -1.7210 N.ar    1  UNL1       -0.3497
     25 C          -4.0405    1.1033   -2.9170 C.3     1  UNL1        0.0119
     26 C           6.7711    0.0447   -0.3980 C.3     1  UNL1       -0.0180
     27 C           7.4217   -0.6451    0.8086 C.3     1  UNL1       -0.0585
     28 C           7.1819   -0.6470   -1.6971 C.3     1  UNL1       -0.0585
     29 H           0.9803    1.2704    1.0059 H       1  UNL1        0.2922
     30 H           2.8272    2.3987    0.5350 H       1  UNL1        0.0691
     31 H           4.7163    3.2569   -0.3319 H       1  UNL1        0.2921
     32 H           4.9221   -1.9935   -0.3666 H       1  UNL1        0.0630
     33 H           0.7067   -1.2124   -2.7725 H       1  UNL1        0.0639
     34 H          -1.2950    0.0505   -3.5214 H       1  UNL1        0.0639
     35 H          -0.9889   -1.6377    1.1629 H       1  UNL1        0.0645
     36 H          -3.7048   -0.5032    1.3910 H       1  UNL1        0.0639
     37 H          -5.2668    0.6805   -0.4823 H       1  UNL1        0.0809
     38 H          -5.0745    1.4188   -2.7487 H       1  UNL1        0.0456
     39 H          -4.0056    0.3837   -3.7376 H       1  UNL1        0.0456
     40 H          -3.4223    1.9769   -3.1358 H       1  UNL1        0.0456
     41 H           7.1920    1.0555   -0.4395 H       1  UNL1        0.0345
     42 H           7.0857   -1.6817    0.9217 H       1  UNL1        0.0235
     43 H           7.1850   -0.1144    1.7378 H       1  UNL1        0.0235
     44 H           8.5125   -0.6592    0.7031 H       1  UNL1        0.0235
     45 H           6.8701   -1.6959   -1.7236 H       1  UNL1        0.0235
     46 H           8.2714   -0.6229   -1.8150 H       1  UNL1        0.0235
     47 H           6.7409   -0.1433   -2.5639 H       1  UNL1        0.0235
@<TRIPOS>BOND
     1     1     2    1
     2     2     3   ar
     3     3     4   ar
     4     4     5    1
     5     4     6   ar
     6     6     7   ar
     7     7     8   ar
     8     2     8   ar
     9     8     9    1
    10     9    10   ar
    11    10    11   ar
    12    11    12    1
    13    11    13   ar
    14    13    14    2
    15    13    15   ar
    16     9    15   ar
    17    15    16    1
    18    16    17   ar
    19    17    18   ar
    20    18    19   ar
    21    19    20   ar
    22    20    21   ar
    23    16    21   ar
    24    20    22   ar
    25    22    23   ar
    26    23    24   ar
    27    19    24   ar
    28    24    25    1
    29     6    26    1
    30    26    27    1
    31    26    28    1
    32     1    29    1
    33     3    30    1
    34     5    31    1
    35     7    32    1
    36    17    33    1
    37    18    34    1
    38    21    35    1
    39    22    36    1
    40    23    37    1
    41    25    38    1
    42    25    39    1
    43    25    40    1
    44    26    41    1
    45    27    42    1
    46    27    43    1
    47    27    44    1
    48    28    45    1
    49    28    46    1
    50    28    47    1
@<TRIPOS>MOLECULE
*****
 48 53 0 0 0
SMALL
GASTEIGER

@<TRIPOS>ATOM
      1 O           3.1212    1.0902   -1.3171 O.2     1  UNL1       -0.2702
      2 C           4.1961    1.6527   -1.1406 C.2     1  UNL1        0.2449
      3 C           4.7185    2.5773   -2.1850 C.ar    1  UNL1        0.0396
      4 C           5.6224    3.5993   -1.8928 C.ar    1  UNL1       -0.0315
      5 C           5.9646    4.4723   -2.9126 C.ar    1  UNL1        0.0283
      6 N           5.4819    4.3884   -4.1702 N.ar    1  UNL1       -0.2632
      7 C           4.6098    3.3904   -4.4264 C.ar    1  UNL1        0.0283
      8 C           4.2025    2.4698   -3.4788 C.ar    1  UNL1       -0.0315
      9 N           4.9580    1.4844   -0.0053 N.am    1  UNL1       -0.3005
     10 C           4.5075    0.6274    1.0738 C.3     1  UNL1        0.0751
     11 H           3.4151    0.6314    1.1578 H       1  UNL1        0.0599
     12 C           5.0123   -0.7917    0.9313 C.ar    1  UNL1       -0.0151
     13 C           4.7048   -1.6977   -0.0780 C.ar    1  UNL1       -0.0559
     14 C           5.2943   -2.9587   -0.0408 C.ar    1  UNL1       -0.0614
     15 C           6.2016   -3.2794    0.9732 C.ar    1  UNL1       -0.0612
     16 C           6.4979   -2.3598    1.9848 C.ar    1  UNL1       -0.0537
     17 C           5.8598   -1.1288    2.0090 C.ar    1  UNL1       -0.0116
     18 C           5.8848   -0.0231    2.9708 C.ar    1  UNL1       -0.0017
     19 C           5.1318    1.0449    2.3988 C.ar    1  UNL1       -0.0144
     20 C           4.9608    2.2673    3.0344 C.ar    1  UNL1       -0.0559
     21 C           5.5361    2.4371    4.2877 C.ar    1  UNL1       -0.0607
     22 C           6.2443    1.3853    4.8940 C.ar    1  UNL1       -0.0505
     23 C           6.4270    0.1326    4.2596 C.ar    1  UNL1        0.0253
     24 C           7.1110   -0.9445    4.9942 C.ar    1  UNL1        0.1399
     25 N           6.8711   -2.2372    4.8995 N.ar    1  UNL1       -0.2276
     26 C           7.8428   -2.8770    5.6210 C.ar    1  UNL1        0.0924
     27 C           8.6230   -1.9576    6.2992 C.ar    1  UNL1        0.0848
     28 N           8.1209   -0.7388    5.9166 N.ar    1  UNL1       -0.3367
     29 H           8.4833    0.1591    6.1941 H       1  UNL1        0.1674
     30 C           9.6624   -2.3441    7.1274 C.ar    1  UNL1        0.0530
     31 N           9.9498   -3.6649    7.2246 N.ar    1  UNL1       -0.2611
     32 C           9.2067   -4.5597    6.5267 C.ar    1  UNL1        0.0297
     33 C           8.1308   -4.2365    5.7171 C.ar    1  UNL1       -0.0161
     34 H           6.0242    3.7557   -0.9002 H       1  UNL1        0.0640
     35 H           6.6456    5.3011   -2.7376 H       1  UNL1        0.0830
     36 H           4.2262    3.3581   -5.4425 H       1  UNL1        0.0830
     37 H           3.4850    1.6980   -3.7389 H       1  UNL1        0.0640
     38 H           5.9384    1.7225   -0.0161 H       1  UNL1        0.1499
     39 H           4.0091   -1.4351   -0.8697 H       1  UNL1        0.0621
     40 H           5.0559   -3.6939   -0.8045 H       1  UNL1        0.0618
     41 H           6.6758   -4.2572    0.9868 H       1  UNL1        0.0618
     42 H           7.2265   -2.6450    2.7317 H       1  UNL1        0.0624
     43 H           4.3745    3.0580    2.5780 H       1  UNL1        0.0621
     44 H           5.4053    3.3775    4.8193 H       1  UNL1        0.0618
     45 H           6.6156    1.5545    5.9021 H       1  UNL1        0.0625
     46 H          10.2819   -1.6593    7.6919 H       1  UNL1        0.0851
     47 H           9.5172   -5.5958    6.6362 H       1  UNL1        0.0830
     48 H           7.5667   -4.9793    5.1698 H       1  UNL1        0.0655
@<TRIPOS>BOND
     1     1     2    2
     2     2     3    1
     3     3     4   ar
     4     4     5   ar
     5     5     6   ar
     6     6     7   ar
     7     7     8   ar
     8     3     8   ar
     9     2     9   am
    10    10    12    1
    11    12    13   ar
    12    13    14   ar
    13    14    15   ar
    14    15    16   ar
    15    16    17   ar
    16    12    17   ar
    17    17    18    1
    18    18    19   ar
    19    10    19    1
    20    19    20   ar
    21    20    21   ar
    22    21    22   ar
    23    22    23   ar
    24    18    23   ar
    25    23    24    1
    26    24    25   ar
    27    25    26   ar
    28    26    27   ar
    29    27    28   ar
    30    28    29    1
    31    24    28   ar
    32    27    30   ar
    33    30    31   ar
    34    31    32   ar
    35    32    33   ar
    36    26    33   ar
    37    10    11    1
    38    10     9    1
    39     4    34    1
    40     5    35    1
    41     7    36    1
    42     8    37    1
    43     9    38    1
    44    13    39    1
    45    14    40    1
    46    15    41    1
    47    16    42    1
    48    20    43    1
    49    21    44    1
    50    22    45    1
    51    30    46    1
    52    32    47    1
    53    33    48    1
@<TRIPOS>MOLECULE
*****
 49 54 0 0 0
SMALL
GASTEIGER

@<TRIPOS>ATOM
      1 N           1.5939    0.0681    0.0655 N.pl3   1  UNL1       -0.3275
      2 C           2.4593   -0.3498   -0.9189 C.ar    1  UNL1        0.2133
      3 N           2.4817    0.4077   -2.0208 N.ar    1  UNL1       -0.2216
      4 C           3.3400    0.0413   -2.9890 C.ar    1  UNL1        0.0517
      5 C           4.1697   -1.0515   -2.9106 C.ar    1  UNL1        0.0896
      6 C           4.0382   -1.7926   -1.7452 C.ar    1  UNL1        0.1486
      7 N           3.1853   -1.4589   -0.7294 N.ar    1  UNL1       -0.2085
      8 C           4.8563   -3.0372   -1.5234 C.2     1  UNL1        0.2647
      9 O           5.6217   -3.4328   -2.3950 O.2     1  UNL1       -0.2685
     10 N           4.7521   -3.7246   -0.3209 N.am    1  UNL1       -0.2992
     11 C           5.6708   -4.8209   -0.0779 C.3     1  UNL1        0.0751
     12 H           6.6226   -4.5941   -0.5788 H       1  UNL1        0.0599
     13 C           5.2422   -6.1942   -0.5615 C.ar    1  UNL1       -0.0151
     14 C           4.7376   -6.5406   -1.8121 C.ar    1  UNL1       -0.0559
     15 C           4.6107   -7.8903   -2.1327 C.ar    1  UNL1       -0.0614
     16 C           5.0165   -8.8690   -1.2232 C.ar    1  UNL1       -0.0612
     17 C           5.5215   -8.5108    0.0337 C.ar    1  UNL1       -0.0537
     18 C           5.6035   -7.1739    0.3972 C.ar    1  UNL1       -0.0116
     19 C           6.0624   -6.5084    1.6262 C.ar    1  UNL1       -0.0017
     20 C           6.0260   -5.0985    1.3734 C.ar    1  UNL1       -0.0144
     21 C           6.4183   -4.1592    2.3155 C.ar    1  UNL1       -0.0559
     22 C           6.8507   -4.6192    3.5518 C.ar    1  UNL1       -0.0607
     23 C           6.8913   -5.9975    3.8270 C.ar    1  UNL1       -0.0505
     24 C           6.4989   -6.9751    2.8804 C.ar    1  UNL1        0.0253
     25 C           6.5525   -8.3950    3.2757 C.ar    1  UNL1        0.1399
     26 N           5.7355   -9.3542    2.8857 N.ar    1  UNL1       -0.2262
     27 C           6.1933  -10.5236    3.4374 C.ar    1  UNL1        0.1075
     28 C           7.2642  -10.2749    4.2834 C.ar    1  UNL1        0.0694
     29 N           7.4754   -8.9232    4.1641 N.ar    1  UNL1       -0.3378
     30 H           8.2102   -8.4023    4.6185 H       1  UNL1        0.1674
     31 C           7.8887  -11.2822    5.0149 C.ar    1  UNL1       -0.0181
     32 C           7.3689  -12.5550    4.7964 C.ar    1  UNL1        0.0296
     33 N           6.3524  -12.8519    3.9505 N.ar    1  UNL1       -0.2610
     34 C           5.7564  -11.8397    3.2669 C.ar    1  UNL1        0.0550
     35 CL          5.2391   -1.3275   -4.2243 Cl      1  UNL1       -0.0796
     36 H           0.8831    0.6759   -0.3279 H       1  UNL1        0.1452
     37 H           1.2802   -0.6950    0.6429 H       1  UNL1        0.1452
     38 H           3.3444    0.6881   -3.8653 H       1  UNL1        0.0846
     39 H           4.1297   -3.3882    0.4031 H       1  UNL1        0.1500
     40 H           4.4855   -5.7819   -2.5457 H       1  UNL1        0.0621
     41 H           4.2317   -8.1855   -3.1084 H       1  UNL1        0.0618
     42 H           4.9544   -9.9204   -1.4938 H       1  UNL1        0.0618
     43 H           5.8613   -9.3082    0.6787 H       1  UNL1        0.0624
     44 H           6.4114   -3.0984    2.0864 H       1  UNL1        0.0621
     45 H           7.1658   -3.9079    4.3121 H       1  UNL1        0.0618
     46 H           7.2206   -6.2922    4.8216 H       1  UNL1        0.0625
     47 H           8.7077  -11.1066    5.6974 H       1  UNL1        0.0654
     48 H           7.7794  -13.4151    5.3204 H       1  UNL1        0.0830
     49 H           4.9507  -12.1014    2.5930 H       1  UNL1        0.0852
@<TRIPOS>BOND
     1     1     2    1
     2     2     3   ar
     3     3     4   ar
     4     4     5   ar
     5     5     6   ar
     6     6     7   ar
     7     2     7   ar
     8     6     8    1
     9     8     9    2
    10     8    10   am
    11    10    11    1
    12    11    12    1
    13    11    13    1
    14    13    14   ar
    15    14    15   ar
    16    15    16   ar
    17    16    17   ar
    18    17    18   ar
    19    13    18   ar
    20    18    19    1
    21    19    20   ar
    22    11    20    1
    23    20    21   ar
    24    21    22   ar
    25    22    23   ar
    26    23    24   ar
    27    19    24   ar
    28    24    25    1
    29    25    26   ar
    30    26    27   ar
    31    27    28   ar
    32    28    29   ar
    33    29    30    1
    34    25    29   ar
    35    28    31   ar
    36    31    32   ar
    37    32    33   ar
    38    33    34   ar
    39    27    34   ar
    40     5    35    1
    41     1    36    1
    42     1    37    1
    43     4    38    1
    44    10    39    1
    45    14    40    1
    46    15    41    1
    47    16    42    1
    48    17    43    1
    49    21    44    1
    50    22    45    1
    51    23    46    1
    52    31    47    1
    53    32    48    1
    54    34    49    1
@<TRIPOS>MOLECULE
*****
 48 50 0 0 0
SMALL
GASTEIGER

@<TRIPOS>ATOM
      1 C           0.7310    0.7322   -0.6450 C.3     1  UNL1       -0.0481
      2 C           2.1766    0.2135   -0.5707 C.3     1  UNL1        0.0259
      3 N           3.1436    1.2244   -1.1730 N.3     1  UNL1       -0.1770
      4 S           4.8377    0.7900   -1.1193 S.O2    1  UNL1        0.0643
      5 O           4.8949   -0.6499   -1.2620 O.2     1  UNL1       -0.1527
      6 O           5.5458    1.6532   -2.0405 O.2     1  UNL1       -0.1527
      7 C           5.3711    1.3209    0.4974 C.ar    1  UNL1        0.1472
      8 C           5.2114    2.6865    0.8116 C.ar    1  UNL1       -0.0214
      9 C           5.6396    3.2090    2.0497 C.ar    1  UNL1        0.0401
     10 C           6.2983    2.3339    2.9243 C.ar    1  UNL1        0.1273
     11 C           6.4711    0.9862    2.6158 C.ar    1  UNL1        0.0237
     12 C           6.0128    0.4765    1.4005 C.ar    1  UNL1        0.1466
     13 O           6.2286   -0.8399    1.1243 O.3     1  UNL1       -0.5047
     14 O           6.8062    2.7344    4.1297 O.3     1  UNL1       -0.5062
     15 C           5.4047    4.6567    2.4403 C.3     1  UNL1        0.1717
     16 N           6.5912    5.4750    2.1107 N.2     1  UNL1       -0.1654
     17 N           6.2465    6.4876    1.4485 N.am    1  UNL1       -0.0648
     18 C           4.8765    6.4841    1.2612 C.2     1  UNL1        0.3496
     19 O           4.2658    7.4069    0.7403 O.2     1  UNL1       -0.2485
     20 N           4.3304    5.3303    1.7951 N.am    1  UNL1       -0.2215
     21 C           2.9510    5.0274    1.9445 C.ar    1  UNL1        0.0754
     22 C           1.9864    5.6566    1.1454 C.ar    1  UNL1       -0.0373
     23 C           0.6204    5.4091    1.3262 C.ar    1  UNL1       -0.0598
     24 C           0.1904    4.5168    2.3033 C.ar    1  UNL1       -0.0589
     25 C           1.1300    3.8495    3.0801 C.ar    1  UNL1       -0.0246
     26 C           2.4891    4.1000    2.8945 C.ar    1  UNL1        0.1448
     27 F           3.3413    3.4548    3.7034 F       1  UNL1       -0.2035
     28 C           2.7586    1.5836   -2.5718 C.3     1  UNL1        0.0092
     29 C           2.4805   -0.1040    0.8917 C.3     1  UNL1       -0.0481
     30 H           0.3609    0.7374   -1.6756 H       1  UNL1        0.0245
     31 H           0.6496    1.7496   -0.2476 H       1  UNL1        0.0245
     32 H           0.0467    0.0879   -0.0816 H       1  UNL1        0.0245
     33 H           2.2269   -0.7136   -1.1557 H       1  UNL1        0.0474
     34 H           4.7462    3.3394    0.0731 H       1  UNL1        0.0643
     35 H           6.9740    0.3458    3.3361 H       1  UNL1        0.0691
     36 H           6.7540   -1.2526    1.8281 H       1  UNL1        0.2922
     37 H           7.1639    3.6356    4.0536 H       1  UNL1        0.2921
     38 H           5.2459    4.7400    3.5227 H       1  UNL1        0.0828
     39 H           2.2660    6.3473    0.3538 H       1  UNL1        0.0637
     40 H          -0.1055    5.9259    0.7022 H       1  UNL1        0.0618
     41 H          -0.8716    4.3450    2.4583 H       1  UNL1        0.0618
     42 H           0.8166    3.1466    3.8462 H       1  UNL1        0.0647
     43 H           1.7845    2.0777   -2.5883 H       1  UNL1        0.0408
     44 H           2.7249    0.6924   -3.2054 H       1  UNL1        0.0408
     45 H           3.4508    2.3135   -3.0001 H       1  UNL1        0.0408
     46 H           2.6090    0.8055    1.4857 H       1  UNL1        0.0245
     47 H           3.3773   -0.7198    0.9881 H       1  UNL1        0.0245
     48 H           1.6671   -0.6860    1.3422 H       1  UNL1        0.0245
@<TRIPOS>BOND
     1     1     2    1
     2     2     3    1
     3     3     4    1
     4     4     5    2
     5     4     6    2
     6     4     7    1
     7     7     8   ar
     8     8     9   ar
     9     9    10   ar
    10    10    11   ar
    11    11    12   ar
    12     7    12   ar
    13    12    13    1
    14    10    14    1
    15     9    15    1
    16    15    16    1
    17    16    17    2
    18    17    18    1
    19    18    19    2
    20    18    20   am
    21    15    20    1
    22    20    21    1
    23    21    22   ar
    24    22    23   ar
    25    23    24   ar
    26    24    25   ar
    27    25    26   ar
    28    21    26   ar
    29    26    27    1
    30     3    28    1
    31     2    29    1
    32     1    30    1
    33     1    31    1
    34     1    32    1
    35     2    33    1
    36     8    34    1
    37    11    35    1
    38    13    36    1
    39    14    37    1
    40    15    38    1
    41    22    39    1
    42    23    40    1
    43    24    41    1
    44    25    42    1
    45    28    43    1
    46    28    44    1
    47    28    45    1
    48    29    46    1
    49    29    47    1
    50    29    48    1
@<TRIPOS>MOLECULE
*****
 31 33 0 0 0
SMALL
GASTEIGER

@<TRIPOS>ATOM
      1 O           1.1002    0.2166    0.2703 O.3     1  UNL1       -0.5066
      2 C           2.4595    0.1646    0.1748 C.ar    1  UNL1        0.1204
      3 C           3.1766    1.1827   -0.4357 C.ar    1  UNL1       -0.0193
      4 C           4.5556    1.0434   -0.5875 C.ar    1  UNL1       -0.0441
      5 C           5.2322   -0.1028   -0.1170 C.ar    1  UNL1        0.0611
      6 C           4.5104   -1.0393    0.6207 C.ar    1  UNL1        0.1310
      7 C           3.1157   -0.9376    0.7180 C.ar    1  UNL1        0.0220
      8 O           5.0669   -2.0873    1.2986 O.3     1  UNL1       -0.5059
      9 C           6.6755   -0.1680   -0.4770 C.ar    1  UNL1        0.1707
     10 N           7.3768    0.9362   -0.4265 N.ar    1  UNL1       -0.1528
     11 N           8.6231    0.5928   -0.8187 N.ar    1  UNL1       -0.2537
     12 H           9.3497    1.2777   -0.9785 H       1  UNL1        0.1911
     13 C           8.6704   -0.7483   -1.1754 C.ar    1  UNL1        0.1805
     14 S          10.0349   -1.3769   -1.8889 S.2     1  UNL1       -0.0111
     15 N           7.4079   -1.2700   -0.8917 N.ar    1  UNL1       -0.2685
     16 C           7.0179   -2.6338   -1.0457 C.ar    1  UNL1        0.0856
     17 C           7.9147   -3.6696   -0.7163 C.ar    1  UNL1       -0.0349
     18 C           7.5203   -5.0133   -0.7169 C.ar    1  UNL1       -0.0596
     19 C           6.2085   -5.3556   -1.0169 C.ar    1  UNL1       -0.0589
     20 C           5.3158   -4.3570   -1.3943 C.ar    1  UNL1       -0.0244
     21 C           5.7383   -3.0240   -1.4501 C.ar    1  UNL1        0.1472
     22 F           4.8734   -2.1243   -1.9421 F       1  UNL1       -0.2033
     23 H           0.7819    0.9819   -0.2379 H       1  UNL1        0.2921
     24 H           2.6848    2.0783   -0.8073 H       1  UNL1        0.0654
     25 H           5.1041    1.8388   -1.0913 H       1  UNL1        0.0627
     26 H           2.5461   -1.7132    1.2166 H       1  UNL1        0.0691
     27 H           6.0200   -1.9187    1.4187 H       1  UNL1        0.2922
     28 H           8.9317   -3.4629   -0.3976 H       1  UNL1        0.0639
     29 H           8.2407   -5.7878   -0.4578 H       1  UNL1        0.0618
     30 H           5.8848   -6.3902   -0.9633 H       1  UNL1        0.0618
     31 H           4.2866   -4.6005   -1.6380 H       1  UNL1        0.0647
@<TRIPOS>BOND
     1     1     2    1
     2     2     3   ar
     3     3     4   ar
     4     4     5   ar
     5     5     6   ar
     6     6     7   ar
     7     2     7   ar
     8     6     8    1
     9     5     9    1
    10     9    10   ar
    11    10    11   ar
    12    11    12    1
    13    11    13   ar
    14    13    14    2
    15    13    15   ar
    16     9    15   ar
    17    15    16    1
    18    16    17   ar
    19    17    18   ar
    20    18    19   ar
    21    19    20   ar
    22    20    21   ar
    23    16    21   ar
    24    21    22    1
    25     1    23    1
    26     3    24    1
    27     4    25    1
    28     7    26    1
    29     8    27    1
    30    17    28    1
    31    18    29    1
    32    19    30    1
    33    20    31    1
@<TRIPOS>MOLECULE
*****
 31 33 0 0 0
SMALL
GASTEIGER

@<TRIPOS>ATOM
      1 O           1.2755    0.2891    0.9997 O.3     1  UNL1       -0.5059
      2 C           2.5298    0.1854    0.4694 C.ar    1  UNL1        0.1311
      3 C           3.3110    1.3425    0.3869 C.ar    1  UNL1        0.0230
      4 C           4.6508    1.2449    0.0173 C.ar    1  UNL1        0.1334
      5 O           5.3995    2.3818   -0.0961 O.3     1  UNL1       -0.5056
      6 C           5.2227   -0.0056   -0.2163 C.ar    1  UNL1        0.0556
      7 C           4.4184   -1.1483   -0.2024 C.ar    1  UNL1       -0.0309
      8 C           3.0441   -1.0574    0.0785 C.ar    1  UNL1        0.0622
      9 C           2.2613   -2.3211   -0.0301 C.ar    1  UNL1        0.1728
     10 N           2.8358   -3.4819    0.1808 N.ar    1  UNL1       -0.1507
     11 N           1.8361   -4.3946    0.0340 N.ar    1  UNL1       -0.2260
     12 H           1.9880   -5.3915    0.0951 H       1  UNL1        0.1937
     13 C           0.6384   -3.7732   -0.2948 C.ar    1  UNL1        0.3490
     14 O          -0.4095   -4.3546   -0.5342 O.2     1  UNL1       -0.2446
     15 N           0.9288   -2.4249   -0.3420 N.ar    1  UNL1       -0.2408
     16 C          -0.0127   -1.4599   -0.7408 C.ar    1  UNL1        0.0881
     17 C          -1.2507   -1.4050   -0.0834 C.ar    1  UNL1       -0.0348
     18 C          -2.1334   -0.3487   -0.3251 C.ar    1  UNL1       -0.0596
     19 C          -1.8132    0.6298   -1.2656 C.ar    1  UNL1       -0.0589
     20 C          -0.6206    0.5393   -1.9834 C.ar    1  UNL1       -0.0244
     21 C           0.2716   -0.4986   -1.7178 C.ar    1  UNL1        0.1473
     22 F           1.4091   -0.5612   -2.4253 F       1  UNL1       -0.2033
     23 I           7.2650   -0.2333   -0.5923 I       1  UNL1       -0.0400
     24 H           1.0170    1.2226    1.0759 H       1  UNL1        0.2922
     25 H           2.8880    2.3092    0.6396 H       1  UNL1        0.0691
     26 H           4.8108    3.1441   -0.2207 H       1  UNL1        0.2922
     27 H           4.8606   -2.1213   -0.4113 H       1  UNL1        0.0637
     28 H          -1.5043   -2.1422    0.6768 H       1  UNL1        0.0639
     29 H          -3.0600   -0.2838    0.2400 H       1  UNL1        0.0618
     30 H          -2.4974    1.4566   -1.4417 H       1  UNL1        0.0618
     31 H          -0.3734    1.2750   -2.7417 H       1  UNL1        0.0647
@<TRIPOS>BOND
     1     1     2    1
     2     2     3   ar
     3     3     4   ar
     4     4     5    1
     5     4     6   ar
     6     6     7   ar
     7     7     8   ar
     8     2     8   ar
     9     8     9    1
    10     9    10   ar
    11    10    11   ar
    12    11    12    1
    13    11    13   ar
    14    13    14    2
    15    13    15   ar
    16     9    15   ar
    17    15    16    1
    18    16    17   ar
    19    17    18   ar
    20    18    19   ar
    21    19    20   ar
    22    20    21   ar
    23    16    21   ar
    24    21    22    1
    25     6    23    1
    26     1    24    1
    27     3    25    1
    28     5    26    1
    29     7    27    1
    30    17    28    1
    31    18    29    1
    32    19    30    1
    33    20    31    1
@<TRIPOS>MOLECULE
*****
 42 44 0 0 0
SMALL
GASTEIGER

@<TRIPOS>ATOM
      1 C           4.2264    3.2183   -0.8511 C.3     1  UNL1       -0.0276
      2 C           5.3344    2.3111   -1.4480 C.3     1  UNL1        0.1031
      3 C           4.8243    0.8544   -0.8380 C.3     1  UNL1        0.0132
      4 C           5.7151   -0.2406   -0.3889 C.3     1  UNL1        0.0925
      5 O           5.2118   -1.4358    0.1868 O.3     1  UNL1       -0.3638
      6 C           5.6076   -1.6339   -1.1621 C.3     1  UNL1        0.1038
      7 C           6.8552   -1.5779   -1.9081 C.2     1  UNL1       -0.0532
      8 C           6.8231   -0.7488   -2.9597 C.2     1  UNL1       -0.0631
      9 C           7.9298    0.0410   -3.3380 C.2     1  UNL1       -0.0587
     10 C           7.7552    0.9882   -4.2597 C.2     1  UNL1       -0.0189
     11 C           8.9463    1.7833   -4.4814 C.2     1  UNL1        0.1604
     12 O          10.0553    1.2614   -4.4026 O.2     1  UNL1       -0.2923
     13 C           8.7173    3.2417   -4.6543 C.3     1  UNL1        0.0374
     14 C           9.4793    3.9751   -3.5844 C.ar    1  UNL1       -0.0006
     15 C           8.7634    4.5498   -2.4862 C.ar    1  UNL1        0.1054
     16 C           7.1916    4.1282   -2.1189 C.2     1  UNL1        0.3433
     17 O           6.3097    4.8721   -2.5472 O.2     1  UNL1       -0.2448
     18 O           6.8138    2.8832   -1.4521 O.3     1  UNL1       -0.4580
     19 C           9.4345    5.7770   -2.1034 C.ar    1  UNL1        0.1346
     20 O           8.7368    6.8481   -1.6663 O.3     1  UNL1       -0.5058
     21 C          10.8151    6.0776   -2.4391 C.ar    1  UNL1        0.0236
     22 C          11.5478    5.2784   -3.2888 C.ar    1  UNL1        0.1389
     23 C          10.8629    4.2744   -3.9185 C.ar    1  UNL1        0.0869
     24 CL         11.7180    3.4947   -5.2391 Cl      1  UNL1       -0.0794
     25 O          12.7932    5.6880   -3.6668 O.3     1  UNL1       -0.5052
     26 H           3.2434    2.8300   -1.1817 H       1  UNL1        0.0265
     27 H           4.2724    4.2657   -1.1263 H       1  UNL1        0.0265
     28 H           4.1963    3.1461    0.2462 H       1  UNL1        0.0265
     29 H           5.1370    2.2303   -2.5235 H       1  UNL1        0.0732
     30 H           4.1439    0.4468   -1.6076 H       1  UNL1        0.0327
     31 H           4.1402    1.0103    0.0101 H       1  UNL1        0.0327
     32 H           6.6000    0.1081    0.1191 H       1  UNL1        0.0626
     33 H           4.7669   -1.8899   -1.8061 H       1  UNL1        0.0667
     34 H           7.7816   -1.8626   -1.4164 H       1  UNL1        0.0598
     35 H           5.8569   -0.4225   -3.3488 H       1  UNL1        0.0615
     36 H           8.8609   -0.0493   -2.7766 H       1  UNL1        0.0619
     37 H           6.8269    1.2484   -4.7495 H       1  UNL1        0.0652
     38 H           7.6596    3.5188   -4.6257 H       1  UNL1        0.0394
     39 H           9.0436    3.5391   -5.6591 H       1  UNL1        0.0394
     40 H           9.1037    7.6391   -2.1068 H       1  UNL1        0.2922
     41 H          11.2566    7.0139   -2.1281 H       1  UNL1        0.0691
     42 H          13.4459    5.3862   -3.0090 H       1  UNL1        0.2922
@<TRIPOS>BOND
     1     1     2    1
     2     2     3    1
     3     3     4    1
     4     4     5    1
     5     5     6    1
     6     4     6    1
     7     6     7    1
     8     7     8    2
     9     8     9    1
    10     9    10    2
    11    10    11    1
    12    11    12    2
    13    11    13    1
    14    13    14    1
    15    14    15   ar
    16    15    16    1
    17    16    17    2
    18    16    18    1
    19     2    18    1
    20    15    19   ar
    21    19    20    1
    22    19    21   ar
    23    21    22   ar
    24    22    23   ar
    25    14    23   ar
    26    23    24    1
    27    22    25    1
    28     1    26    1
    29     1    27    1
    30     1    28    1
    31     2    29    1
    32     3    30    1
    33     3    31    1
    34     4    32    1
    35     6    33    1
    36     7    34    1
    37     8    35    1
    38     9    36    1
    39    10    37    1
    40    13    38    1
    41    13    39    1
    42    20    40    1
    43    21    41    1
    44    25    42    1
@<TRIPOS>MOLECULE
*****
 52 58 0 0 0
SMALL
GASTEIGER

@<TRIPOS>ATOM
      1 O           2.5078   -2.6711   -1.0678 O.2     1  UNL1       -0.2702
      2 C           2.2458   -1.4794   -0.9350 C.2     1  UNL1        0.2455
      3 C           0.8289   -1.0361   -0.8385 C.ar    1  UNL1        0.0488
      4 C          -0.1741   -1.8410   -1.3980 C.ar    1  UNL1       -0.0308
      5 C          -1.4989   -1.4466   -1.2847 C.ar    1  UNL1        0.0306
      6 N          -1.9343   -0.3319   -0.6608 N.ar    1  UNL1       -0.2375
      7 C          -0.9406    0.3975   -0.1246 C.ar    1  UNL1        0.1388
      8 C           0.4280    0.1373   -0.1615 C.ar    1  UNL1        0.0307
      9 C           1.0452    1.1945    0.5743 C.ar    1  UNL1       -0.0344
     10 C           0.0570    2.0524    1.0062 C.ar    1  UNL1        0.0041
     11 N          -1.1460    1.5553    0.5795 N.ar    1  UNL1       -0.3458
     12 H          -2.0561    1.9457    0.7576 H       1  UNL1        0.1668
     13 N           3.2031   -0.4988   -0.8996 N.am    1  UNL1       -0.3005
     14 C           4.6263   -0.7572   -1.0114 C.3     1  UNL1        0.0751
     15 C           5.3914    0.3252   -0.2737 C.ar    1  UNL1       -0.0151
     16 C           5.5229    0.4794    1.1026 C.ar    1  UNL1       -0.0559
     17 C           6.1837    1.6091    1.5815 C.ar    1  UNL1       -0.0614
     18 C           6.6701    2.5700    0.6902 C.ar    1  UNL1       -0.0612
     19 C           6.5801    2.3733   -0.6924 C.ar    1  UNL1       -0.0537
     20 C           5.9794    1.2278   -1.1899 C.ar    1  UNL1       -0.0116
     21 C           5.8501    0.6816   -2.5447 C.ar    1  UNL1       -0.0017
     22 C           5.0930   -0.5234   -2.4388 C.ar    1  UNL1       -0.0144
     23 C           4.8651   -1.3684   -3.5160 C.ar    1  UNL1       -0.0559
     24 C           5.4145   -1.0214   -4.7409 C.ar    1  UNL1       -0.0607
     25 C           6.1582    0.1626   -4.8734 C.ar    1  UNL1       -0.0505
     26 C           6.3907    1.0410   -3.7865 C.ar    1  UNL1        0.0253
     27 C           7.1754    2.2578   -4.0315 C.ar    1  UNL1        0.1399
     28 N           6.9736    3.4531   -3.5112 N.ar    1  UNL1       -0.2262
     29 C           7.9367    4.2811   -4.0319 C.ar    1  UNL1        0.1075
     30 C           8.7110    3.6004   -4.9603 C.ar    1  UNL1        0.0694
     31 N           8.2349    2.3157   -4.9165 N.ar    1  UNL1       -0.3378
     32 H           8.5951    1.5345   -5.4432 H       1  UNL1        0.1674
     33 C           9.7158    4.2181   -5.6973 C.ar    1  UNL1       -0.0181
     34 C           9.8928    5.5653   -5.4029 C.ar    1  UNL1        0.0296
     35 N           9.1972    6.2623   -4.4725 N.ar    1  UNL1       -0.2610
     36 C           8.2153    5.6263   -3.7786 C.ar    1  UNL1        0.0550
     37 H           0.0745   -2.7642   -1.9124 H       1  UNL1        0.0640
     38 H          -2.2904   -2.0572   -1.7154 H       1  UNL1        0.0830
     39 H           2.1000    1.3211    0.7848 H       1  UNL1        0.0639
     40 H           0.1066    2.9638    1.5862 H       1  UNL1        0.0807
     41 H           2.9197    0.4559   -1.0691 H       1  UNL1        0.1499
     42 H           4.9012   -1.7577   -0.6610 H       1  UNL1        0.0599
     43 H           5.1317   -0.2639    1.7898 H       1  UNL1        0.0621
     44 H           6.3163    1.7554    2.6504 H       1  UNL1        0.0618
     45 H           7.1433    3.4740    1.0677 H       1  UNL1        0.0618
     46 H           6.9918    3.1379   -1.3335 H       1  UNL1        0.0624
     47 H           4.2882   -2.2816   -3.3959 H       1  UNL1        0.0621
     48 H           5.2674   -1.6681   -5.6027 H       1  UNL1        0.0618
     49 H           6.5478    0.3952   -5.8627 H       1  UNL1        0.0625
     50 H          10.3058    3.7075   -6.4457 H       1  UNL1        0.0654
     51 H          10.6388    6.1498   -5.9367 H       1  UNL1        0.0830
     52 H           7.6729    6.2054   -3.0424 H       1  UNL1        0.0852
@<TRIPOS>BOND
     1     1     2    2
     2     2     3    1
     3     3     4   ar
     4     4     5   ar
     5     5     6   ar
     6     6     7   ar
     7     7     8   ar
     8     3     8   ar
     9     8     9   ar
    10     9    10   ar
    11    10    11   ar
    12    11    12    1
    13     7    11   ar
    14     2    13   am
    15    13    14    1
    16    14    15    1
    17    15    16   ar
    18    16    17   ar
    19    17    18   ar
    20    18    19   ar
    21    19    20   ar
    22    15    20   ar
    23    20    21    1
    24    21    22   ar
    25    14    22    1
    26    22    23   ar
    27    23    24   ar
    28    24    25   ar
    29    25    26   ar
    30    21    26   ar
    31    26    27    1
    32    27    28   ar
    33    28    29   ar
    34    29    30   ar
    35    30    31   ar
    36    31    32    1
    37    27    31   ar
    38    30    33   ar
    39    33    34   ar
    40    34    35   ar
    41    35    36   ar
    42    29    36   ar
    43     4    37    1
    44     5    38    1
    45     9    39    1
    46    10    40    1
    47    13    41    1
    48    14    42    1
    49    16    43    1
    50    17    44    1
    51    18    45    1
    52    19    46    1
    53    23    47    1
    54    24    48    1
    55    25    49    1
    56    33    50    1
    57    34    51    1
    58    36    52    1
@<TRIPOS>MOLECULE
*****
 51 54 0 0 0
SMALL
GASTEIGER

@<TRIPOS>ATOM
      1 N           1.1963    0.2642    0.5144 N.1     1  UNL1       -0.1907
      2 C           2.3528    0.1729    0.4311 C.1     1  UNL1        0.1032
      3 C           3.7761    0.1183    0.2439 C.ar    1  UNL1        0.0995
      4 C           4.4268    1.3519    0.2147 C.ar    1  UNL1        0.1356
      5 N           3.7601    2.5708    0.3394 N.pl3   1  UNL1       -0.3421
      6 N           5.7421    1.4808    0.1323 N.ar    1  UNL1       -0.2239
      7 C           6.4427    0.3406    0.0830 C.ar    1  UNL1        0.1135
      8 C           5.9574   -0.9709    0.0484 C.ar    1  UNL1        0.0381
      9 C           4.5086   -1.1164    0.1132 C.ar    1  UNL1        0.0144
     10 C           3.7894   -2.4472    0.0905 C.ar    1  UNL1       -0.0122
     11 C           2.5324   -2.6016   -0.5389 C.ar    1  UNL1       -0.0503
     12 C           1.7559   -3.7702   -0.4361 C.ar    1  UNL1       -0.0157
     13 C           2.2624   -4.8939    0.1997 C.ar    1  UNL1        0.1615
     14 C           3.5555   -4.8229    0.7453 C.ar    1  UNL1        0.1621
     15 C           4.2595   -3.5962    0.7515 C.ar    1  UNL1       -0.0085
     16 O           4.0366   -5.9921    1.2844 O.3     1  UNL1       -0.4914
     17 C           5.4334   -6.0698    1.5295 C.3     1  UNL1        0.0790
     18 O           1.5992   -6.0873    0.3283 O.3     1  UNL1       -0.4915
     19 C           0.2222   -6.1271   -0.0271 C.3     1  UNL1        0.0790
     20 C           7.1342   -1.8447   -0.0412 C.ar    1  UNL1        0.0540
     21 N           7.1032   -3.1940   -0.1562 N.pl3   1  UNL1       -0.3564
     22 C           8.3577   -1.1759    0.0202 C.ar    1  UNL1        0.0973
     23 S           8.1288    0.4987    0.0746 S.2     1  UNL1       -0.0621
     24 C           9.7133   -1.7484    0.0074 C.2     1  UNL1        0.2567
     25 O           9.8782   -2.9610   -0.0469 O.2     1  UNL1       -0.2692
     26 N          10.7663   -0.8320    0.0648 N.am    1  UNL1       -0.2810
     27 C          12.1580   -1.0976    0.0776 C.ar    1  UNL1        0.0339
     28 C          12.7098   -2.3804    0.0587 C.ar    1  UNL1       -0.0378
     29 C          14.0982   -2.5638    0.0823 C.ar    1  UNL1       -0.0247
     30 C          14.9395   -1.4623    0.1244 C.ar    1  UNL1        0.1235
     31 C          14.4185   -0.1770    0.1445 C.ar    1  UNL1       -0.0247
     32 C          13.0282    0.0060    0.1198 C.ar    1  UNL1       -0.0378
     33 F          16.2669   -1.6416    0.1467 F       1  UNL1       -0.2055
     34 H           2.9821    2.6886   -0.3019 H       1  UNL1        0.1437
     35 H           4.4463    3.3171    0.2446 H       1  UNL1        0.1437
     36 H           2.0811   -1.7916   -1.1091 H       1  UNL1        0.0625
     37 H           0.7602   -3.7609   -0.8700 H       1  UNL1        0.0655
     38 H           5.1881   -3.5335    1.3080 H       1  UNL1        0.0661
     39 H           5.6698   -7.1049    1.7956 H       1  UNL1        0.0660
     40 H           5.7078   -5.4375    2.3781 H       1  UNL1        0.0660
     41 H           6.0176   -5.8185    0.6378 H       1  UNL1        0.0660
     42 H          -0.1678   -7.1132    0.2484 H       1  UNL1        0.0660
     43 H           0.0933   -6.0117   -1.1079 H       1  UNL1        0.0660
     44 H          -0.3601   -5.3796    0.5225 H       1  UNL1        0.0660
     45 H           6.3653   -3.6637   -0.6748 H       1  UNL1        0.1424
     46 H           7.9943   -3.7013   -0.2302 H       1  UNL1        0.1424
     47 H          10.4939    0.1413    0.0955 H       1  UNL1        0.1551
     48 H          12.0932   -3.2732    0.0300 H       1  UNL1        0.0637
     49 H          14.5207   -3.5635    0.0686 H       1  UNL1        0.0647
     50 H          15.0938    0.6734    0.1789 H       1  UNL1        0.0647
     51 H          12.6468    1.0213    0.1389 H       1  UNL1        0.0637
@<TRIPOS>BOND
     1     1     2    3
     2     2     3    1
     3     3     4   ar
     4     4     5    1
     5     4     6   ar
     6     6     7   ar
     7     7     8   ar
     8     8     9   ar
     9     3     9   ar
    10     9    10    1
    11    10    11   ar
    12    11    12   ar
    13    12    13   ar
    14    13    14   ar
    15    14    15   ar
    16    10    15   ar
    17    14    16    1
    18    16    17    1
    19    13    18    1
    20    18    19    1
    21     8    20   ar
    22    20    21    1
    23    20    22   ar
    24    22    23   ar
    25     7    23   ar
    26    22    24    1
    27    24    25    2
    28    24    26   am
    29    26    27    1
    30    27    28   ar
    31    28    29   ar
    32    29    30   ar
    33    30    31   ar
    34    31    32   ar
    35    27    32   ar
    36    30    33    1
    37     5    34    1
    38     5    35    1
    39    11    36    1
    40    12    37    1
    41    15    38    1
    42    17    39    1
    43    17    40    1
    44    17    41    1
    45    19    42    1
    46    19    43    1
    47    19    44    1
    48    21    45    1
    49    21    46    1
    50    26    47    1
    51    28    48    1
    52    29    49    1
    53    31    50    1
    54    32    51    1
@<TRIPOS>MOLECULE
*****
 52 56 0 0 0
SMALL
GASTEIGER

@<TRIPOS>ATOM
      1 N           1.3646    0.1099    0.8474 N.1     1  UNL1       -0.1907
      2 C           2.5128    0.0216    0.6687 C.1     1  UNL1        0.1032
      3 C           3.9182   -0.0242    0.3737 C.ar    1  UNL1        0.0995
      4 C           4.5571    1.2111    0.2621 C.ar    1  UNL1        0.1356
      5 N           3.8836    2.4297    0.3619 N.pl3   1  UNL1       -0.3421
      6 N           5.8676    1.3435    0.1162 N.ar    1  UNL1       -0.2239
      7 C           6.5767    0.2072    0.0893 C.ar    1  UNL1        0.1135
      8 C           6.1015   -1.1087    0.0987 C.ar    1  UNL1        0.0381
      9 C           4.6494   -1.2546    0.2090 C.ar    1  UNL1        0.0143
     10 C           3.9221   -2.5786    0.1303 C.ar    1  UNL1       -0.0158
     11 C           4.4051   -3.7771    0.6729 C.ar    1  UNL1       -0.0537
     12 C           3.7547   -5.0161    0.4719 C.ar    1  UNL1       -0.0580
     13 C           2.5206   -5.0891   -0.1782 C.ar    1  UNL1       -0.0476
     14 C           1.9443   -3.8965   -0.5970 C.ar    1  UNL1       -0.0580
     15 C           2.6570   -2.6901   -0.4980 C.ar    1  UNL1       -0.0537
     16 C           1.8409   -6.4044   -0.4702 C.3     1  UNL1       -0.0305
     17 C           1.0604   -6.9792    0.7001 C.3     1  UNL1       -0.0613
     18 C           7.2906   -1.9763   -0.0128 C.ar    1  UNL1        0.0540
     19 N           7.2685   -3.3264   -0.1089 N.pl3   1  UNL1       -0.3564
     20 C           8.5128   -1.3022    0.0203 C.ar    1  UNL1        0.0973
     21 S           8.2616    0.3774    0.0358 S.2     1  UNL1       -0.0621
     22 C           9.8837   -1.8547    0.0011 C.2     1  UNL1        0.2567
     23 O          10.0815   -3.0685   -0.0465 O.2     1  UNL1       -0.2692
     24 N          10.9150   -0.9082    0.0548 N.am    1  UNL1       -0.2809
     25 C          12.3202   -1.1137    0.0555 C.ar    1  UNL1        0.0374
     26 C          12.9295   -2.3831    0.0242 C.ar    1  UNL1       -0.0368
     27 C          14.3273   -2.5248    0.0253 C.ar    1  UNL1       -0.0144
     28 C          15.0938   -1.3836    0.0564 C.ar    1  UNL1        0.1663
     29 C          14.5165   -0.1393    0.0876 C.ar    1  UNL1        0.1680
     30 C          13.1415    0.0287    0.0890 C.ar    1  UNL1        0.0051
     31 O          15.4452    0.8571    0.1142 O.3     1  UNL1       -0.4525
     32 C          16.6710    0.0915    0.0977 C.3     1  UNL1        0.2332
     33 O          16.4517   -1.3333    0.0581 O.3     1  UNL1       -0.4526
     34 H           3.0680    2.5060   -0.2375 H       1  UNL1        0.1437
     35 H           4.5538    3.1762    0.1875 H       1  UNL1        0.1437
     36 H           5.3223   -3.7866    1.2566 H       1  UNL1        0.0624
     37 H           4.2350   -5.9271    0.8245 H       1  UNL1        0.0620
     38 H           0.9496   -3.8896   -1.0404 H       1  UNL1        0.0620
     39 H           2.1629   -1.8309   -0.9459 H       1  UNL1        0.0624
     40 H           2.5940   -7.1293   -0.8032 H       1  UNL1        0.0311
     41 H           1.1583   -6.2807   -1.3220 H       1  UNL1        0.0311
     42 H           1.7105   -7.1717    1.5589 H       1  UNL1        0.0233
     43 H           0.5976   -7.9291    0.4084 H       1  UNL1        0.0233
     44 H           0.2617   -6.3018    1.0193 H       1  UNL1        0.0233
     45 H           6.5246   -3.8038   -0.6116 H       1  UNL1        0.1424
     46 H           8.1589   -3.8323   -0.1938 H       1  UNL1        0.1424
     47 H          10.6133    0.0588    0.0878 H       1  UNL1        0.1552
     48 H          12.3402   -3.2936    0.0068 H       1  UNL1        0.0637
     49 H          14.7900   -3.5062    0.0001 H       1  UNL1        0.0656
     50 H          12.7322    1.0328    0.1127 H       1  UNL1        0.0674
     51 H          17.2507    0.3323    0.9971 H       1  UNL1        0.1166
     52 H          17.2580    0.3810   -0.7821 H       1  UNL1        0.1166
@<TRIPOS>BOND
     1     1     2    3
     2     2     3    1
     3     3     4   ar
     4     4     5    1
     5     4     6   ar
     6     6     7   ar
     7     7     8   ar
     8     8     9   ar
     9     3     9   ar
    10     9    10    1
    11    10    11   ar
    12    11    12   ar
    13    12    13   ar
    14    13    14   ar
    15    14    15   ar
    16    10    15   ar
    17    13    16    1
    18    16    17    1
    19     8    18   ar
    20    18    19    1
    21    18    20   ar
    22    20    21   ar
    23     7    21   ar
    24    20    22    1
    25    22    23    2
    26    22    24   am
    27    24    25    1
    28    25    26   ar
    29    26    27   ar
    30    27    28   ar
    31    28    29   ar
    32    29    30   ar
    33    25    30   ar
    34    29    31    1
    35    31    32    1
    36    32    33    1
    37    28    33    1
    38     5    34    1
    39     5    35    1
    40    11    36    1
    41    12    37    1
    42    14    38    1
    43    15    39    1
    44    16    40    1
    45    16    41    1
    46    17    42    1
    47    17    43    1
    48    17    44    1
    49    19    45    1
    50    19    46    1
    51    24    47    1
    52    26    48    1
    53    27    49    1
    54    30    50    1
    55    32    51    1
    56    32    52    1
@<TRIPOS>MOLECULE
*****
 51 54 0 0 0
SMALL
GASTEIGER

@<TRIPOS>ATOM
      1 N           1.2042    0.1856    0.5982 N.1     1  UNL1       -0.1907
      2 C           2.3585    0.1071    0.4888 C.1     1  UNL1        0.1032
      3 C           3.7790    0.0634    0.2712 C.ar    1  UNL1        0.0995
      4 C           4.4235    1.2998    0.2141 C.ar    1  UNL1        0.1356
      5 N           3.7542    2.5172    0.3358 N.pl3   1  UNL1       -0.3421
      6 N           5.7374    1.4313    0.1130 N.ar    1  UNL1       -0.2239
      7 C           6.4436    0.2934    0.0785 C.ar    1  UNL1        0.1135
      8 C           5.9643   -1.0202    0.0659 C.ar    1  UNL1        0.0381
      9 C           4.5157   -1.1676    0.1404 C.ar    1  UNL1        0.0144
     10 C           3.8013   -2.5000    0.1286 C.ar    1  UNL1       -0.0122
     11 C           2.5449   -2.6611   -0.5001 C.ar    1  UNL1       -0.0503
     12 C           1.7737   -3.8320   -0.3902 C.ar    1  UNL1       -0.0157
     13 C           2.2874   -4.9497    0.2522 C.ar    1  UNL1        0.1615
     14 C           3.5793   -4.8710    0.7960 C.ar    1  UNL1        0.1621
     15 C           4.2773   -3.6420    0.7949 C.ar    1  UNL1       -0.0085
     16 O           4.0680   -6.0348    1.3398 O.3     1  UNL1       -0.4914
     17 C           5.4654   -6.1013    1.5858 C.3     1  UNL1        0.0790
     18 O           1.6283   -6.1451    0.3880 O.3     1  UNL1       -0.4915
     19 C           0.2518   -6.1926    0.0317 C.3     1  UNL1        0.0790
     20 C           7.1450   -1.8892   -0.0158 C.ar    1  UNL1        0.0540
     21 N           7.1187   -3.2403   -0.1101 N.pl3   1  UNL1       -0.3564
     22 C           8.3688   -1.2210    0.0403 C.ar    1  UNL1        0.0973
     23 S           8.1311    0.4575    0.0608 S.2     1  UNL1       -0.0621
     24 C           9.7279   -1.7880    0.0482 C.2     1  UNL1        0.2567
     25 O           9.8984   -3.0068    0.0238 O.2     1  UNL1       -0.2692
     26 N          10.7793   -0.8739    0.0812 N.am    1  UNL1       -0.2810
     27 C          12.1700   -1.1297    0.1206 C.ar    1  UNL1        0.0338
     28 C          12.7235   -2.4120    0.1386 C.ar    1  UNL1       -0.0394
     29 C          14.1121   -2.5951    0.2014 C.ar    1  UNL1       -0.0460
     30 C          14.9623   -1.4927    0.2295 C.ar    1  UNL1        0.0180
     31 C          14.4303   -0.2060    0.2076 C.ar    1  UNL1       -0.0460
     32 C          13.0408   -0.0277    0.1482 C.ar    1  UNL1       -0.0394
     33 BR         16.8273   -1.7520    0.3417 Br      1  UNL1       -0.0503
     34 H           2.9581    2.6223   -0.2848 H       1  UNL1        0.1437
     35 H           4.4341    3.2652    0.2123 H       1  UNL1        0.1437
     36 H           2.0907   -1.8543   -1.0728 H       1  UNL1        0.0625
     37 H           0.7777   -3.8290   -0.8228 H       1  UNL1        0.0655
     38 H           5.2061   -3.5704    1.3499 H       1  UNL1        0.0661
     39 H           5.7076   -7.1311    1.8663 H       1  UNL1        0.0660
     40 H           5.7374   -5.4560    2.4254 H       1  UNL1        0.0660
     41 H           6.0477   -5.8592    0.6902 H       1  UNL1        0.0660
     42 H          -0.1349   -7.1782    0.3142 H       1  UNL1        0.0660
     43 H           0.1240   -6.0858   -1.0500 H       1  UNL1        0.0660
     44 H          -0.3345   -5.4434    0.5749 H       1  UNL1        0.0660
     45 H           6.3857   -3.7161   -0.6292 H       1  UNL1        0.1424
     46 H           8.0121   -3.7453   -0.1731 H       1  UNL1        0.1424
     47 H          10.5014    0.1032    0.0847 H       1  UNL1        0.1551
     48 H          12.1061   -3.3027    0.1108 H       1  UNL1        0.0636
     49 H          14.5109   -3.6056    0.2160 H       1  UNL1        0.0629
     50 H          15.0876    0.6601    0.2356 H       1  UNL1        0.0629
     51 H          12.6567    0.9902    0.1329 H       1  UNL1        0.0636
@<TRIPOS>BOND
     1     1     2    3
     2     2     3    1
     3     3     4   ar
     4     4     5    1
     5     4     6   ar
     6     6     7   ar
     7     7     8   ar
     8     8     9   ar
     9     3     9   ar
    10     9    10    1
    11    10    11   ar
    12    11    12   ar
    13    12    13   ar
    14    13    14   ar
    15    14    15   ar
    16    10    15   ar
    17    14    16    1
    18    16    17    1
    19    13    18    1
    20    18    19    1
    21     8    20   ar
    22    20    21    1
    23    20    22   ar
    24    22    23   ar
    25     7    23   ar
    26    22    24    1
    27    24    25    2
    28    24    26   am
    29    26    27    1
    30    27    28   ar
    31    28    29   ar
    32    29    30   ar
    33    30    31   ar
    34    31    32   ar
    35    27    32   ar
    36    30    33    1
    37     5    34    1
    38     5    35    1
    39    11    36    1
    40    12    37    1
    41    15    38    1
    42    17    39    1
    43    17    40    1
    44    17    41    1
    45    19    42    1
    46    19    43    1
    47    19    44    1
    48    21    45    1
    49    21    46    1
    50    26    47    1
    51    28    48    1
    52    29    49    1
    53    31    50    1
    54    32    51    1
@<TRIPOS>MOLECULE
*****
 53 55 0 0 0
SMALL
GASTEIGER

@<TRIPOS>ATOM
      1 C           6.3493   -4.5844    2.8521 C.3     1  UNL1        0.0788
      2 O           6.9710   -4.1659    1.6436 O.3     1  UNL1       -0.4951
      3 C           6.3364   -4.4844    0.4756 C.ar    1  UNL1        0.1212
      4 C           7.1494   -4.4375   -0.6545 C.ar    1  UNL1       -0.0189
      5 C           6.6193   -4.6994   -1.9100 C.ar    1  UNL1       -0.0441
      6 C           5.2434   -4.9406   -2.0473 C.ar    1  UNL1        0.0274
      7 C           4.3797   -4.9229   -0.9240 C.ar    1  UNL1        0.0321
      8 C           4.9688   -4.7603    0.3398 C.ar    1  UNL1       -0.0051
      9 S           2.5870   -4.9128   -1.1358 S.3     1  UNL1       -0.0504
     10 C           1.8871   -5.0826    0.4415 C.ar    1  UNL1        0.1760
     11 N           1.6765   -6.2677    0.9881 N.ar    1  UNL1       -0.2164
     12 C           0.8938   -6.0320    2.0972 C.ar    1  UNL1        0.1484
     13 C           0.6989   -4.6743    2.2625 C.ar    1  UNL1        0.1662
     14 N           1.2846   -4.0748    1.1619 N.ar    1  UNL1       -0.3020
     15 C           1.2192   -2.6379    1.0157 C.3     1  UNL1        0.0396
     16 C           1.2309   -1.9608   -0.3567 C.3     1  UNL1        0.0140
     17 N           1.0153   -0.5216   -0.1477 N.3     1  UNL1       -0.3138
     18 C           0.9716    0.2594   -1.3855 C.3     1  UNL1        0.0009
     19 C           0.7095    1.7733   -1.1084 C.3     1  UNL1       -0.0252
     20 C           1.8489    2.3954   -0.2782 C.3     1  UNL1       -0.0589
     21 C           0.6281    2.5250   -2.4504 C.3     1  UNL1       -0.0589
     22 C          -0.6238    1.9716   -0.3602 C.3     1  UNL1       -0.0589
     23 N           0.0329   -4.0676    3.2614 N.ar    1  UNL1       -0.2160
     24 C          -0.4848   -4.9648    4.1217 C.ar    1  UNL1        0.1205
     25 N          -0.4077   -6.3079    4.0654 N.ar    1  UNL1       -0.2188
     26 C           0.2702   -6.8713    3.0388 C.ar    1  UNL1        0.1472
     27 N           0.2824   -8.2539    2.9650 N.pl3   1  UNL1       -0.3413
     28 I           4.5981   -5.3185   -4.0244 I       1  UNL1       -0.0427
     29 H           6.8965   -4.1298    3.6831 H       1  UNL1        0.0660
     30 H           6.4186   -5.6719    2.9473 H       1  UNL1        0.0660
     31 H           5.3139   -4.2443    2.9374 H       1  UNL1        0.0660
     32 H           8.2104   -4.1955   -0.5513 H       1  UNL1        0.0654
     33 H           7.2858   -4.6930   -2.7720 H       1  UNL1        0.0629
     34 H           4.3436   -4.8132    1.2199 H       1  UNL1        0.0665
     35 H           2.0317   -2.2339    1.6393 H       1  UNL1        0.0505
     36 H           0.2765   -2.3302    1.4940 H       1  UNL1        0.0505
     37 H           0.4294   -2.3785   -0.9839 H       1  UNL1        0.0441
     38 H           2.1889   -2.1106   -0.8578 H       1  UNL1        0.0441
     39 H           1.7489   -0.1534    0.4565 H       1  UNL1        0.1220
     40 H           0.1716   -0.1289   -2.0294 H       1  UNL1        0.0429
     41 H           1.9164    0.1470   -1.9283 H       1  UNL1        0.0429
     42 H           2.8180    2.2458   -0.7676 H       1  UNL1        0.0235
     43 H           1.9094    1.9640    0.7261 H       1  UNL1        0.0235
     44 H           1.7024    3.4745   -0.1551 H       1  UNL1        0.0235
     45 H           1.5988    2.5386   -2.9584 H       1  UNL1        0.0235
     46 H           0.3196    3.5665   -2.3003 H       1  UNL1        0.0235
     47 H          -0.0991    2.0598   -3.1247 H       1  UNL1        0.0235
     48 H          -0.6181    1.4835    0.6189 H       1  UNL1        0.0235
     49 H          -1.4623    1.5652   -0.9368 H       1  UNL1        0.0235
     50 H          -0.8234    3.0362   -0.1897 H       1  UNL1        0.0235
     51 H          -1.0416   -4.5537    4.9607 H       1  UNL1        0.1048
     52 H           0.0279   -8.7076    3.8318 H       1  UNL1        0.1438
     53 H           1.0146   -8.6525    2.3921 H       1  UNL1        0.1438
@<TRIPOS>BOND
     1     1     2    1
     2     2     3    1
     3     3     4   ar
     4     4     5   ar
     5     5     6   ar
     6     6     7   ar
     7     7     8   ar
     8     3     8   ar
     9     7     9    1
    10     9    10    1
    11    10    11   ar
    12    11    12   ar
    13    12    13   ar
    14    13    14   ar
    15    10    14   ar
    16    14    15    1
    17    15    16    1
    18    16    17    1
    19    17    18    1
    20    18    19    1
    21    19    20    1
    22    19    21    1
    23    19    22    1
    24    13    23   ar
    25    23    24   ar
    26    24    25   ar
    27    25    26   ar
    28    12    26   ar
    29    26    27    1
    30     6    28    1
    31     1    29    1
    32     1    30    1
    33     1    31    1
    34     4    32    1
    35     5    33    1
    36     8    34    1
    37    15    35    1
    38    15    36    1
    39    16    37    1
    40    16    38    1
    41    17    39    1
    42    18    40    1
    43    18    41    1
    44    20    42    1
    45    20    43    1
    46    20    44    1
    47    21    45    1
    48    21    46    1
    49    21    47    1
    50    22    48    1
    51    22    49    1
    52    22    50    1
    53    24    51    1
    54    27    52    1
    55    27    53    1
@<TRIPOS>MOLECULE
*****
 30 32 0 0 0
SMALL
GASTEIGER

@<TRIPOS>ATOM
      1 O           1.2886   -0.3135    1.3765 O.3     1  UNL1       -0.5066
      2 C           2.5371   -0.2393    0.8352 C.ar    1  UNL1        0.1204
      3 C           2.9092   -1.0503   -0.2288 C.ar    1  UNL1       -0.0193
      4 C           4.2160   -0.9795   -0.7207 C.ar    1  UNL1       -0.0455
      5 C           5.1736   -0.1418   -0.1243 C.ar    1  UNL1        0.0459
      6 C           4.7374    0.7294    0.8929 C.ar    1  UNL1        0.1296
      7 C           3.4299    0.6731    1.3785 C.ar    1  UNL1        0.0220
      8 O           5.5526    1.6682    1.4696 O.3     1  UNL1       -0.5060
      9 C           6.5927   -0.2445   -0.4929 C.ar    1  UNL1        0.1245
     10 N           7.3812    0.8463   -0.4399 N.ar    1  UNL1       -0.0776
     11 O           8.6458    0.4349   -0.7962 O.2     1  UNL1       -0.3617
     12 C           8.6352   -0.8908   -1.0563 C.ar    1  UNL1        0.1325
     13 C           7.3664   -1.3937   -0.8863 C.ar    1  UNL1        0.0488
     14 C           7.0256   -2.7945   -1.0997 C.ar    1  UNL1       -0.0127
     15 C           6.1122   -3.4517   -0.2636 C.ar    1  UNL1       -0.0539
     16 C           5.6475   -4.7313   -0.5804 C.ar    1  UNL1       -0.0612
     17 C           6.1374   -5.3931   -1.7028 C.ar    1  UNL1       -0.0617
     18 C           7.1090   -4.7865   -2.4950 C.ar    1  UNL1       -0.0612
     19 C           7.5491   -3.4935   -2.1978 C.ar    1  UNL1       -0.0539
     20 H           0.8061   -1.0436    0.9550 H       1  UNL1        0.2921
     21 H           2.2104   -1.7473   -0.6822 H       1  UNL1        0.0654
     22 H           4.4835   -1.6152   -1.5617 H       1  UNL1        0.0626
     23 H           3.1219    1.3299    2.1855 H       1  UNL1        0.0691
     24 H           6.3569    1.7438    0.9143 H       1  UNL1        0.2922
     25 H           9.5879   -1.3174   -1.3356 H       1  UNL1        0.1064
     26 H           5.7165   -2.9632    0.6247 H       1  UNL1        0.0624
     27 H           4.8914   -5.2031    0.0427 H       1  UNL1        0.0618
     28 H           5.7645   -6.3817   -1.9589 H       1  UNL1        0.0618
     29 H           7.5086   -5.3102   -3.3599 H       1  UNL1        0.0618
     30 H           8.2806   -3.0325   -2.8576 H       1  UNL1        0.0624
@<TRIPOS>BOND
     1     1     2    1
     2     2     3   ar
     3     3     4   ar
     4     4     5   ar
     5     5     6   ar
     6     6     7   ar
     7     2     7   ar
     8     6     8    1
     9     5     9    1
    10     9    10   ar
    11    10    11   ar
    12    11    12   ar
    13    12    13   ar
    14     9    13   ar
    15    13    14    1
    16    14    15   ar
    17    15    16   ar
    18    16    17   ar
    19    17    18   ar
    20    18    19   ar
    21    14    19   ar
    22     1    20    1
    23     3    21    1
    24     4    22    1
    25     7    23    1
    26     8    24    1
    27    12    25    1
    28    15    26    1
    29    16    27    1
    30    17    28    1
    31    18    29    1
    32    19    30    1
@<TRIPOS>MOLECULE
*****
 48 53 0 0 0
SMALL
GASTEIGER

@<TRIPOS>ATOM
      1 O           2.8662    0.9971    0.6529 O.2     1  UNL1       -0.2702
      2 C           2.3103    0.0766    0.0669 C.2     1  UNL1        0.2449
      3 C           0.8352   -0.0827    0.1682 C.ar    1  UNL1        0.0396
      4 C           0.0560    1.0518    0.4001 C.ar    1  UNL1       -0.0315
      5 C          -1.3082    0.8835    0.5438 C.ar    1  UNL1        0.0283
      6 N          -1.9245   -0.3161    0.4838 N.ar    1  UNL1       -0.2632
      7 C          -1.1440   -1.3991    0.2766 C.ar    1  UNL1        0.0283
      8 C           0.2267   -1.3365    0.1082 C.ar    1  UNL1       -0.0315
      9 N           2.9732   -0.8467   -0.7048 N.am    1  UNL1       -0.3005
     10 C           4.4128   -0.8236   -0.8389 C.3     1  UNL1        0.0751
     11 C           4.8788   -0.0343   -2.0471 C.ar    1  UNL1       -0.0151
     12 C           4.7228    1.3294   -2.2718 C.ar    1  UNL1       -0.0559
     13 C           5.2013    1.8616   -3.4681 C.ar    1  UNL1       -0.0614
     14 C           5.7606    1.0227   -4.4380 C.ar    1  UNL1       -0.0612
     15 C           5.8927   -0.3521   -4.2061 C.ar    1  UNL1       -0.0537
     16 C           5.5326   -0.8779   -2.9726 C.ar    1  UNL1       -0.0116
     17 C           5.6526   -2.2201   -2.3955 C.ar    1  UNL1       -0.0017
     18 C           4.9368   -2.2138   -1.1654 C.ar    1  UNL1       -0.0144
     19 C           4.7902   -3.3477   -0.3755 C.ar    1  UNL1       -0.0559
     20 C           5.3828   -4.5258   -0.8082 C.ar    1  UNL1       -0.0607
     21 C           6.1450   -4.5402   -1.9865 C.ar    1  UNL1       -0.0505
     22 C           6.3254   -3.3878   -2.7829 C.ar    1  UNL1        0.0253
     23 C           7.2376   -3.5053   -3.9244 C.ar    1  UNL1        0.1399
     24 N           7.4634   -4.5940   -4.6421 N.ar    1  UNL1       -0.2262
     25 C           8.2803   -4.2029   -5.6800 C.ar    1  UNL1        0.1075
     26 C           8.6028   -2.8575   -5.5606 C.ar    1  UNL1        0.0694
     27 N           8.0742   -2.4985   -4.3500 N.ar    1  UNL1       -0.3378
     28 H           8.1697   -1.5984   -3.9038 H       1  UNL1        0.1674
     29 C           9.3105   -2.1566   -6.5302 C.ar    1  UNL1       -0.0181
     30 C           9.7005   -2.9296   -7.6158 C.ar    1  UNL1        0.0296
     31 N           9.4748   -4.2589   -7.7500 N.ar    1  UNL1       -0.2610
     32 C           8.7705   -4.9084   -6.7815 C.ar    1  UNL1        0.0550
     33 H           0.5016    2.0390    0.4725 H       1  UNL1        0.0640
     34 H          -1.9628    1.7322    0.7241 H       1  UNL1        0.0830
     35 H          -1.6709   -2.3501    0.2619 H       1  UNL1        0.0830
     36 H           0.7956   -2.2497   -0.0180 H       1  UNL1        0.0640
     37 H           2.4599   -1.4178   -1.3615 H       1  UNL1        0.1499
     38 H           4.8950   -0.4423    0.0676 H       1  UNL1        0.0599
     39 H           4.2519    1.9660   -1.5311 H       1  UNL1        0.0621
     40 H           5.1130    2.9280   -3.6600 H       1  UNL1        0.0618
     41 H           6.0889    1.4437   -5.3865 H       1  UNL1        0.0618
     42 H           6.2551   -0.9715   -5.0172 H       1  UNL1        0.0624
     43 H           4.2300   -3.3146    0.5546 H       1  UNL1        0.0621
     44 H           5.2822   -5.4359   -0.2217 H       1  UNL1        0.0618
     45 H           6.6308   -5.4728   -2.2783 H       1  UNL1        0.0625
     46 H           9.5191   -1.0973   -6.4659 H       1  UNL1        0.0654
     47 H          10.2330   -2.4753   -8.4485 H       1  UNL1        0.0830
     48 H           8.5932   -5.9662   -6.9256 H       1  UNL1        0.0852
@<TRIPOS>BOND
     1     1     2    2
     2     2     3    1
     3     3     4   ar
     4     4     5   ar
     5     5     6   ar
     6     6     7   ar
     7     7     8   ar
     8     3     8   ar
     9     2     9   am
    10     9    10    1
    11    10    11    1
    12    11    12   ar
    13    12    13   ar
    14    13    14   ar
    15    14    15   ar
    16    15    16   ar
    17    11    16   ar
    18    16    17    1
    19    17    18   ar
    20    10    18    1
    21    18    19   ar
    22    19    20   ar
    23    20    21   ar
    24    21    22   ar
    25    17    22   ar
    26    22    23    1
    27    23    24   ar
    28    24    25   ar
    29    25    26   ar
    30    26    27   ar
    31    27    28    1
    32    23    27   ar
    33    26    29   ar
    34    29    30   ar
    35    30    31   ar
    36    31    32   ar
    37    25    32   ar
    38     4    33    1
    39     5    34    1
    40     7    35    1
    41     8    36    1
    42     9    37    1
    43    10    38    1
    44    12    39    1
    45    13    40    1
    46    14    41    1
    47    15    42    1
    48    19    43    1
    49    20    44    1
    50    21    45    1
    51    29    46    1
    52    30    47    1
    53    32    48    1
@<TRIPOS>MOLECULE
*****
 49 54 0 0 0
SMALL
GASTEIGER

@<TRIPOS>ATOM
      1 N           1.5185    0.1188    0.0998 N.pl3   1  UNL1       -0.3275
      2 C           2.3957   -0.2915   -0.8748 C.ar    1  UNL1        0.2133
      3 N           2.4254    0.4564   -1.9837 N.ar    1  UNL1       -0.2216
      4 C           3.2944    0.0933   -2.9415 C.ar    1  UNL1        0.0517
      5 C           4.1305   -0.9917   -2.8453 C.ar    1  UNL1        0.0896
      6 C           3.9955   -1.7316   -1.6760 C.ar    1  UNL1        0.1486
      7 N           3.1302   -1.3942   -0.6727 N.ar    1  UNL1       -0.2085
      8 C           4.8159   -2.9726   -1.4503 C.2     1  UNL1        0.2647
      9 O           5.5912   -3.3688   -2.3197 O.2     1  UNL1       -0.2685
     10 N           4.7039   -3.6584   -0.2469 N.am    1  UNL1       -0.2992
     11 C           5.6184   -4.7571   -0.0020 C.3     1  UNL1        0.0751
     12 C           5.1878   -6.1295   -0.4856 C.ar    1  UNL1       -0.0151
     13 C           4.6834   -6.4751   -1.7365 C.ar    1  UNL1       -0.0559
     14 C           4.5608   -7.8262   -2.0596 C.ar    1  UNL1       -0.0614
     15 C           4.9728   -8.8041   -1.1529 C.ar    1  UNL1       -0.0612
     16 C           5.4767   -8.4469    0.1033 C.ar    1  UNL1       -0.0537
     17 C           5.5530   -7.1102    0.4708 C.ar    1  UNL1       -0.0116
     18 C           6.0111   -6.4448    1.7007 C.ar    1  UNL1       -0.0017
     19 C           5.9738   -5.0350    1.4488 C.ar    1  UNL1       -0.0144
     20 C           6.3651   -4.0962    2.3915 C.ar    1  UNL1       -0.0559
     21 C           6.7973   -4.5565    3.6274 C.ar    1  UNL1       -0.0607
     22 C           6.8388   -5.9349    3.9019 C.ar    1  UNL1       -0.0505
     23 C           6.4467   -6.9119    2.9546 C.ar    1  UNL1        0.0253
     24 C           6.4969   -8.3310    3.3486 C.ar    1  UNL1        0.1399
     25 N           5.6787   -9.2882    2.9543 N.ar    1  UNL1       -0.2262
     26 C           6.1349  -10.4602    3.5008 C.ar    1  UNL1        0.1075
     27 C           7.2052  -10.2165    4.3496 C.ar    1  UNL1        0.0694
     28 N           7.4186   -8.8632    4.2366 N.ar    1  UNL1       -0.3378
     29 H           8.1551   -8.3440    4.6912 H       1  UNL1        0.1674
     30 C           7.8257  -11.2284    5.0765 C.ar    1  UNL1       -0.0181
     31 C           7.3046  -12.4996    4.8522 C.ar    1  UNL1        0.0296
     32 N           6.2898  -12.7913    4.0034 N.ar    1  UNL1       -0.2610
     33 C           5.6967  -11.7750    3.3227 C.ar    1  UNL1        0.0550
     34 CL          5.2185   -1.2652   -4.1477 Cl      1  UNL1       -0.0796
     35 H           0.8037    0.7091   -0.3039 H       1  UNL1        0.1452
     36 H           1.2089   -0.6494    0.6730 H       1  UNL1        0.1452
     37 H           3.2984    0.7324   -3.8218 H       1  UNL1        0.0846
     38 H           4.0788   -3.3220    0.4763 H       1  UNL1        0.1500
     39 H           6.5705   -4.5332   -0.5026 H       1  UNL1        0.0599
     40 H           4.4266   -5.7163   -2.4681 H       1  UNL1        0.0621
     41 H           4.1825   -8.1193   -3.0353 H       1  UNL1        0.0618
     42 H           4.9167   -9.8551   -1.4269 H       1  UNL1        0.0618
     43 H           5.8234   -9.2437    0.7459 H       1  UNL1        0.0624
     44 H           6.3572   -3.0352    2.1625 H       1  UNL1        0.0621
     45 H           7.1111   -3.8450    4.3882 H       1  UNL1        0.0618
     46 H           7.1680   -6.2300    4.8963 H       1  UNL1        0.0625
     47 H           8.6433  -11.0570    5.7629 H       1  UNL1        0.0654
     48 H           7.7123  -13.3622    5.3741 H       1  UNL1        0.0830
     49 H           4.8926  -12.0327    2.6454 H       1  UNL1        0.0852
@<TRIPOS>BOND
     1     1     2    1
     2     2     3   ar
     3     3     4   ar
     4     4     5   ar
     5     5     6   ar
     6     6     7   ar
     7     2     7   ar
     8     6     8    1
     9     8     9    2
    10     8    10   am
    11    10    11    1
    12    11    12    1
    13    12    13   ar
    14    13    14   ar
    15    14    15   ar
    16    15    16   ar
    17    16    17   ar
    18    12    17   ar
    19    17    18    1
    20    18    19   ar
    21    11    19    1
    22    19    20   ar
    23    20    21   ar
    24    21    22   ar
    25    22    23   ar
    26    18    23   ar
    27    23    24    1
    28    24    25   ar
    29    25    26   ar
    30    26    27   ar
    31    27    28   ar
    32    28    29    1
    33    24    28   ar
    34    27    30   ar
    35    30    31   ar
    36    31    32   ar
    37    32    33   ar
    38    26    33   ar
    39     5    34    1
    40     1    35    1
    41     1    36    1
    42     4    37    1
    43    10    38    1
    44    11    39    1
    45    13    40    1
    46    14    41    1
    47    15    42    1
    48    16    43    1
    49    20    44    1
    50    21    45    1
    51    22    46    1
    52    30    47    1
    53    31    48    1
    54    33    49    1
@<TRIPOS>MOLECULE
*****
 47 50 0 0 0
SMALL
GASTEIGER

@<TRIPOS>ATOM
      1 O           1.1274    0.3688    0.3140 O.3     1  UNL1       -0.5064
      2 C           2.4792    0.2805    0.1576 C.ar    1  UNL1        0.1235
      3 C           3.2139    1.4496   -0.0293 C.ar    1  UNL1        0.0223
      4 C           4.5930    1.3784   -0.2402 C.ar    1  UNL1        0.1310
      5 O           5.2581    2.5416   -0.5148 O.3     1  UNL1       -0.5059
      6 C           5.2680    0.1482   -0.1909 C.ar    1  UNL1        0.0615
      7 C           4.5136   -0.9918    0.1346 C.ar    1  UNL1       -0.0409
      8 C           3.1041   -0.9674    0.1883 C.ar    1  UNL1       -0.0047
      9 C           2.3684   -2.2976    0.2386 C.3     1  UNL1       -0.0202
     10 C           1.0570   -2.3487   -0.5637 C.3     1  UNL1       -0.0236
     11 C           0.4920   -3.7400   -0.7299 C.ar    1  UNL1       -0.0470
     12 C          -0.3884   -4.2612    0.2270 C.ar    1  UNL1       -0.0586
     13 C          -0.9661   -5.5182    0.0466 C.ar    1  UNL1       -0.0615
     14 C          -0.6616   -6.2687   -1.0872 C.ar    1  UNL1       -0.0617
     15 C           0.2252   -5.7659   -2.0379 C.ar    1  UNL1       -0.0615
     16 C           0.8025   -4.5074   -1.8594 C.ar    1  UNL1       -0.0586
     17 C           6.7308    0.0695   -0.4927 C.ar    1  UNL1        0.1728
     18 N           7.5341    1.0937   -0.3282 N.ar    1  UNL1       -0.1507
     19 N           8.7744    0.6406   -0.6537 N.ar    1  UNL1       -0.2260
     20 H           9.5758    1.2505   -0.7223 H       1  UNL1        0.1937
     21 C           8.7296   -0.6896   -1.0315 C.ar    1  UNL1        0.3490
     22 O           9.6828   -1.3364   -1.4388 O.2     1  UNL1       -0.2446
     23 N           7.4030   -1.0600   -0.9157 N.ar    1  UNL1       -0.2408
     24 C           6.9556   -2.3455   -1.2752 C.ar    1  UNL1        0.0881
     25 C           7.5916   -3.4692   -0.7223 C.ar    1  UNL1       -0.0348
     26 C           7.0942   -4.7525   -0.9565 C.ar    1  UNL1       -0.0596
     27 C           5.9797   -4.9324   -1.7742 C.ar    1  UNL1       -0.0589
     28 C           5.3778   -3.8315   -2.3819 C.ar    1  UNL1       -0.0244
     29 C           5.8698   -2.5504   -2.1334 C.ar    1  UNL1        0.1473
     30 F           5.2772   -1.5072   -2.7332 F       1  UNL1       -0.2033
     31 H           0.8375    1.2803    0.1466 H       1  UNL1        0.2921
     32 H           2.7105    2.4103   -0.0466 H       1  UNL1        0.0691
     33 H           4.6654    3.3039   -0.4305 H       1  UNL1        0.2922
     34 H           5.0062   -1.9434    0.3089 H       1  UNL1        0.0630
     35 H           2.1980   -2.5792    1.2837 H       1  UNL1        0.0317
     36 H           3.0351   -3.0637   -0.1839 H       1  UNL1        0.0317
     37 H           1.2012   -1.9036   -1.5575 H       1  UNL1        0.0316
     38 H           0.2830   -1.7479   -0.0751 H       1  UNL1        0.0316
     39 H          -0.6483   -3.6774    1.1076 H       1  UNL1        0.0620
     40 H          -1.6633   -5.9051    0.7849 H       1  UNL1        0.0618
     41 H          -1.1212   -7.2427   -1.2327 H       1  UNL1        0.0618
     42 H           0.4558   -6.3488   -2.9257 H       1  UNL1        0.0618
     43 H           1.4776   -4.1191   -2.6189 H       1  UNL1        0.0620
     44 H           8.4507   -3.3473   -0.0655 H       1  UNL1        0.0639
     45 H           7.5713   -5.6084   -0.4853 H       1  UNL1        0.0618
     46 H           5.5842   -5.9315   -1.9398 H       1  UNL1        0.0618
     47 H           4.5243   -3.9589   -3.0381 H       1  UNL1        0.0647
@<TRIPOS>BOND
     1     1     2    1
     2     2     3   ar
     3     3     4   ar
     4     4     5    1
     5     4     6   ar
     6     6     7   ar
     7     7     8   ar
     8     2     8   ar
     9     8     9    1
    10     9    10    1
    11    10    11    1
    12    11    12   ar
    13    12    13   ar
    14    13    14   ar
    15    14    15   ar
    16    15    16   ar
    17    11    16   ar
    18     6    17    1
    19    17    18   ar
    20    18    19   ar
    21    19    20    1
    22    19    21   ar
    23    21    22    2
    24    21    23   ar
    25    17    23   ar
    26    23    24    1
    27    24    25   ar
    28    25    26   ar
    29    26    27   ar
    30    27    28   ar
    31    28    29   ar
    32    24    29   ar
    33    29    30    1
    34     1    31    1
    35     3    32    1
    36     5    33    1
    37     7    34    1
    38     9    35    1
    39     9    36    1
    40    10    37    1
    41    10    38    1
    42    12    39    1
    43    13    40    1
    44    14    41    1
    45    15    42    1
    46    16    43    1
    47    25    44    1
    48    26    45    1
    49    27    46    1
    50    28    47    1
@<TRIPOS>MOLECULE
*****
 34 36 0 0 0
SMALL
GASTEIGER

@<TRIPOS>ATOM
      1 F           1.5535   -0.3463    1.8170 F       1  UNL1       -0.2033
      2 C           2.6165   -0.1289    1.0265 C.ar    1  UNL1        0.1473
      3 C           3.2890    1.0895    1.1352 C.ar    1  UNL1       -0.0244
      4 C           4.3816    1.3508    0.3081 C.ar    1  UNL1       -0.0589
      5 C           4.8385    0.3709   -0.5724 C.ar    1  UNL1       -0.0596
      6 C           4.1837   -0.8622   -0.6506 C.ar    1  UNL1       -0.0348
      7 C           3.0283   -1.0974    0.1059 C.ar    1  UNL1        0.0881
      8 N           2.2543   -2.2344   -0.1679 N.ar    1  UNL1       -0.2408
      9 C           2.7766   -3.5146   -0.1819 C.ar    1  UNL1        0.3490
     10 O           3.9193   -3.8915    0.0233 O.2     1  UNL1       -0.2446
     11 N           1.6943   -4.3448   -0.4437 N.ar    1  UNL1       -0.2260
     12 H           1.7189   -5.3552   -0.4939 H       1  UNL1        0.1937
     13 N           0.5508   -3.6231   -0.6089 N.ar    1  UNL1       -0.1507
     14 C           0.9204   -2.3754   -0.4530 C.ar    1  UNL1        0.1728
     15 C          -0.0732   -1.2700   -0.6236 C.ar    1  UNL1        0.0631
     16 C          -1.4159   -1.5829   -0.3368 C.ar    1  UNL1       -0.0299
     17 C          -2.4386   -0.6206   -0.4309 C.ar    1  UNL1        0.1021
     18 C          -3.8392   -1.0856   -0.2063 C.2     1  UNL1        0.3404
     19 O          -4.1142   -2.2608   -0.0264 O.2     1  UNL1       -0.2450
     20 O          -4.7834   -0.1230   -0.2341 O.3     1  UNL1       -0.4770
     21 C          -2.0965    0.6961   -0.7582 C.ar    1  UNL1        0.1483
     22 C          -0.7742    1.0111   -1.0833 C.ar    1  UNL1        0.1020
     23 C           0.2120    0.0135   -1.0973 C.ar    1  UNL1        0.1450
     24 O           1.4269    0.2861   -1.6632 O.3     1  UNL1       -0.5048
     25 BR         -0.3088    2.8058   -1.5168 Br      1  UNL1       -0.0427
     26 O          -3.0736    1.6624   -0.7946 O.3     1  UNL1       -0.5047
     27 H           2.9433    1.8318    1.8461 H       1  UNL1        0.0647
     28 H           4.8803    2.3162    0.3502 H       1  UNL1        0.0618
     29 H           5.6884    0.5697   -1.2212 H       1  UNL1        0.0618
     30 H           4.5310   -1.5999   -1.3699 H       1  UNL1        0.0639
     31 H          -1.6804   -2.6051   -0.0561 H       1  UNL1        0.0635
     32 H          -4.4155    0.7723   -0.3993 H       1  UNL1        0.2954
     33 H           1.4792    1.2349   -1.8809 H       1  UNL1        0.2922
     34 H          -2.6618    2.4941   -1.1082 H       1  UNL1        0.2922
@<TRIPOS>BOND
     1     1     2    1
     2     2     3   ar
     3     3     4   ar
     4     4     5   ar
     5     5     6   ar
     6     6     7   ar
     7     2     7   ar
     8     7     8    1
     9     8     9   ar
    10     9    10    2
    11     9    11   ar
    12    11    12    1
    13    11    13   ar
    14    13    14   ar
    15     8    14   ar
    16    14    15    1
    17    15    16   ar
    18    16    17   ar
    19    17    18    1
    20    18    19    2
    21    18    20    1
    22    17    21   ar
    23    21    22   ar
    24    22    23   ar
    25    15    23   ar
    26    23    24    1
    27    22    25    1
    28    21    26    1
    29     3    27    1
    30     4    28    1
    31     5    29    1
    32     6    30    1
    33    16    31    1
    34    20    32    1
    35    24    33    1
    36    26    34    1
@<TRIPOS>MOLECULE
*****
 34 36 0 0 0
SMALL
GASTEIGER

@<TRIPOS>ATOM
      1 O           1.3144    0.2011    1.0797 O.3     1  UNL1       -0.5059
      2 C           2.5569    0.1240    0.5198 C.ar    1  UNL1        0.1310
      3 C           3.3118    1.2955    0.4209 C.ar    1  UNL1        0.0228
      4 C           4.6460    1.2229    0.0228 C.ar    1  UNL1        0.1343
      5 O           5.3631    2.3831   -0.1225 O.3     1  UNL1       -0.5058
      6 C           5.2544   -0.0155   -0.2103 C.ar    1  UNL1        0.1010
      7 C           4.4576   -1.1725   -0.1850 C.ar    1  UNL1       -0.0300
      8 C           3.0837   -1.1074    0.1123 C.ar    1  UNL1        0.0620
      9 C           2.3107   -2.3753    0.0017 C.ar    1  UNL1        0.1728
     10 N           2.8862   -3.5329    0.2125 N.ar    1  UNL1       -0.1507
     11 N           1.8853   -4.4482    0.0761 N.ar    1  UNL1       -0.2260
     12 H           2.0381   -5.4459    0.1338 H       1  UNL1        0.1937
     13 C           0.6822   -3.8292   -0.2417 C.ar    1  UNL1        0.3490
     14 O          -0.3702   -4.4076   -0.4656 O.2     1  UNL1       -0.2446
     15 N           0.9716   -2.4775   -0.3010 N.ar    1  UNL1       -0.2408
     16 C           0.0281   -1.5151   -0.6914 C.ar    1  UNL1        0.0881
     17 C          -1.2120   -1.4669   -0.0365 C.ar    1  UNL1       -0.0348
     18 C          -2.1028   -0.4175   -0.2798 C.ar    1  UNL1       -0.0596
     19 C          -1.7883    0.5638   -1.2194 C.ar    1  UNL1       -0.0589
     20 C          -0.5918    0.4841   -1.9311 C.ar    1  UNL1       -0.0244
     21 C           0.3079   -0.5479   -1.6620 C.ar    1  UNL1        0.1473
     22 F           1.4514   -0.5953   -2.3626 F       1  UNL1       -0.2033
     23 C           6.7141   -0.1887   -0.4802 C.2     1  UNL1        0.3404
     24 O           7.2330   -1.2878   -0.5930 O.2     1  UNL1       -0.2450
     25 O           7.4237    0.9550   -0.5724 O.3     1  UNL1       -0.4770
     26 H           1.0261    1.1260    1.1560 H       1  UNL1        0.2922
     27 H           2.8701    2.2522    0.6822 H       1  UNL1        0.0691
     28 H           4.7413    3.1353   -0.1607 H       1  UNL1        0.2922
     29 H           4.9167   -2.1381   -0.4028 H       1  UNL1        0.0635
     30 H          -1.4623   -2.2065    0.7221 H       1  UNL1        0.0639
     31 H          -3.0351   -0.3627    0.2782 H       1  UNL1        0.0618
     32 H          -2.4809    1.3819   -1.4015 H       1  UNL1        0.0618
     33 H          -0.3497    1.2226   -2.6887 H       1  UNL1        0.0647
     34 H           6.8724    1.7556   -0.4326 H       1  UNL1        0.2954
@<TRIPOS>BOND
     1     1     2    1
     2     2     3   ar
     3     3     4   ar
     4     4     5    1
     5     4     6   ar
     6     6     7   ar
     7     7     8   ar
     8     2     8   ar
     9     8     9    1
    10     9    10   ar
    11    10    11   ar
    12    11    12    1
    13    11    13   ar
    14    13    14    2
    15    13    15   ar
    16     9    15   ar
    17    15    16    1
    18    16    17   ar
    19    17    18   ar
    20    18    19   ar
    21    19    20   ar
    22    20    21   ar
    23    16    21   ar
    24    21    22    1
    25     6    23    1
    26    23    24    2
    27    23    25    1
    28     1    26    1
    29     3    27    1
    30     5    28    1
    31     7    29    1
    32    17    30    1
    33    18    31    1
    34    19    32    1
    35    20    33    1
    36    25    34    1
@<TRIPOS>MOLECULE
*****
 64 68 0 0 0
SMALL
GASTEIGER

@<TRIPOS>ATOM
      1 C           1.1753   -0.9277    0.0433 C.3     1  UNL1        0.0369
      2 O           1.2215    0.4502   -0.3094 O.3     1  UNL1       -0.3782
      3 C           2.0242    1.2304    0.5758 C.3     1  UNL1        0.0754
      4 C           2.0567    2.6803    0.0883 C.3     1  UNL1       -0.0093
      5 C           2.3148    3.4827    1.3537 C.3     1  UNL1        0.0175
      6 N           1.6548    2.7276    2.4033 N.am    1  UNL1       -0.2937
      7 C           1.4247    1.3567    1.9811 C.3     1  UNL1        0.0413
      8 C           1.1771    3.3346    3.5606 C.2     1  UNL1        0.2674
      9 O           1.3293    4.5368    3.7662 O.2     1  UNL1       -0.2682
     10 C           0.4149    2.4889    4.5064 C.ar    1  UNL1        0.1547
     11 N           0.6453    1.1688    4.6633 N.ar    1  UNL1       -0.1681
     12 N          -0.3003    0.7601    5.5147 N.ar    1  UNL1       -0.2761
     13 H          -0.3249   -0.2200    5.7727 H       1  UNL1        0.1889
     14 C          -1.1353    1.7498    5.9390 C.ar    1  UNL1        0.0700
     15 C          -0.6420    2.9199    5.3725 C.ar    1  UNL1        0.0328
     16 C          -1.2573    4.1453    5.7117 C.ar    1  UNL1       -0.0347
     17 C          -2.2841    4.1522    6.6745 C.ar    1  UNL1        0.0793
     18 C          -2.8510    2.9305    7.0745 C.ar    1  UNL1        0.1310
     19 C          -2.2742    1.7059    6.7408 C.ar    1  UNL1        0.0060
     20 O          -4.0143    2.8536    7.7987 O.3     1  UNL1       -0.5059
     21 C          -2.8134    5.4148    7.2811 C.2     1  UNL1        0.2541
     22 O          -4.0419    5.4195    7.4007 O.2     1  UNL1       -0.2695
     23 N          -1.9332    6.4372    7.7199 N.am    1  UNL1       -0.2704
     24 C          -2.4134    7.7332    8.1798 C.ar    1  UNL1        0.0364
     25 C          -3.7584    8.0292    8.4274 C.ar    1  UNL1       -0.0385
     26 C          -4.2005    9.3516    8.6529 C.ar    1  UNL1       -0.0389
     27 C          -3.3154   10.4303    8.6535 C.ar    1  UNL1        0.0299
     28 C          -1.9608   10.1027    8.5887 C.ar    1  UNL1       -0.0389
     29 C          -1.5193    8.7981    8.3552 C.ar    1  UNL1       -0.0385
     30 N          -3.6879   11.7574    8.7567 N.pl3   1  UNL1       -0.3255
     31 C          -5.0496   12.1749    9.1238 C.3     1  UNL1        0.0357
     32 C          -4.9534   13.5746    9.7629 C.3     1  UNL1        0.0634
     33 O          -4.3455   14.5321    8.8746 O.3     1  UNL1       -0.3767
     34 C          -3.0258   14.1012    8.4982 C.3     1  UNL1        0.0634
     35 C          -3.0617   12.7235    7.8218 C.3     1  UNL1        0.0357
     36 C          -0.4727    6.3061    7.6067 C.3     1  UNL1        0.0086
     37 H           0.5087   -1.4378   -0.6577 H       1  UNL1        0.0524
     38 H           0.7764   -1.0670    1.0528 H       1  UNL1        0.0524
     39 H           2.1715   -1.3729   -0.0316 H       1  UNL1        0.0524
     40 H           3.0442    0.8247    0.6209 H       1  UNL1        0.0612
     41 H           1.0892    2.9498   -0.3528 H       1  UNL1        0.0306
     42 H           2.8209    2.8369   -0.6797 H       1  UNL1        0.0306
     43 H           1.9326    4.5062    1.2817 H       1  UNL1        0.0465
     44 H           3.3851    3.5169    1.5853 H       1  UNL1        0.0465
     45 H           0.3485    1.1532    1.9896 H       1  UNL1        0.0490
     46 H           1.9381    0.6676    2.6583 H       1  UNL1        0.0490
     47 H          -0.8923    5.0690    5.2717 H       1  UNL1        0.0633
     48 H          -2.6994    0.7715    7.0916 H       1  UNL1        0.0675
     49 H          -4.4476    3.7365    7.7428 H       1  UNL1        0.2922
     50 H          -4.5227    7.2598    8.4432 H       1  UNL1        0.0637
     51 H          -5.2680    9.5050    8.7824 H       1  UNL1        0.0637
     52 H          -1.2079   10.8762    8.7146 H       1  UNL1        0.0637
     53 H          -0.4440    8.6847    8.2775 H       1  UNL1        0.0637
     54 H          -5.5093   11.4935    9.8458 H       1  UNL1        0.0486
     55 H          -5.6781   12.2162    8.2247 H       1  UNL1        0.0486
     56 H          -4.3652   13.5325   10.6883 H       1  UNL1        0.0575
     57 H          -5.9515   13.9435   10.0143 H       1  UNL1        0.0575
     58 H          -2.3878   14.0777    9.3905 H       1  UNL1        0.0575
     59 H          -2.6126   14.8456    7.8108 H       1  UNL1        0.0575
     60 H          -2.0439   12.4527    7.5249 H       1  UNL1        0.0486
     61 H          -3.6650   12.7748    6.9056 H       1  UNL1        0.0486
     62 H          -0.1425    5.2707    7.5509 H       1  UNL1        0.0433
     63 H           0.0292    6.7062    8.4920 H       1  UNL1        0.0433
     64 H          -0.1506    6.8450    6.7071 H       1  UNL1        0.0433
@<TRIPOS>BOND
     1     1     2    1
     2     2     3    1
     3     3     4    1
     4     4     5    1
     5     5     6    1
     6     6     7    1
     7     3     7    1
     8     6     8   am
     9     8     9    2
    10     8    10    1
    11    10    11   ar
    12    11    12   ar
    13    12    13    1
    14    12    14   ar
    15    14    15   ar
    16    10    15   ar
    17    15    16   ar
    18    16    17   ar
    19    17    18   ar
    20    18    19   ar
    21    14    19   ar
    22    18    20    1
    23    17    21    1
    24    21    22    2
    25    21    23   am
    26    23    24    1
    27    24    25   ar
    28    25    26   ar
    29    26    27   ar
    30    27    28   ar
    31    28    29   ar
    32    24    29   ar
    33    27    30    1
    34    30    31    1
    35    31    32    1
    36    32    33    1
    37    33    34    1
    38    34    35    1
    39    30    35    1
    40    23    36    1
    41     1    37    1
    42     1    38    1
    43     1    39    1
    44     3    40    1
    45     4    41    1
    46     4    42    1
    47     5    43    1
    48     5    44    1
    49     7    45    1
    50     7    46    1
    51    16    47    1
    52    19    48    1
    53    20    49    1
    54    25    50    1
    55    26    51    1
    56    28    52    1
    57    29    53    1
    58    31    54    1
    59    31    55    1
    60    32    56    1
    61    32    57    1
    62    34    58    1
    63    34    59    1
    64    35    60    1
    65    35    61    1
    66    36    62    1
    67    36    63    1
    68    36    64    1
@<TRIPOS>MOLECULE
*****
 49 52 0 0 0
SMALL
GASTEIGER

@<TRIPOS>ATOM
      1 C           2.5362   -2.9575    0.1616 C.3     1  UNL1       -0.0499
      2 C           3.6155   -2.1063   -0.5106 C.3     1  UNL1        0.0020
      3 N           3.2077   -1.4902   -1.7875 N.3     1  UNL1       -0.3137
      4 C           2.8754   -2.4282   -2.8596 C.3     1  UNL1       -0.0023
      5 C           2.5174   -1.6884   -4.1684 C.3     1  UNL1       -0.0222
      6 C           3.6851   -0.8710   -4.7321 C.3     1  UNL1        0.0282
      7 N           3.4823   -0.3098   -6.0578 N.ar    1  UNL1       -0.3032
      8 C           3.1783    0.9861   -6.4106 C.ar    1  UNL1        0.1760
      9 S           2.5826    2.1679   -5.2819 S.3     1  UNL1       -0.0504
     10 C           0.7892    1.9699   -5.4250 C.ar    1  UNL1        0.0323
     11 C           0.2610    0.8270   -6.0517 C.ar    1  UNL1       -0.0013
     12 C          -1.1044    0.6655   -6.1170 C.ar    1  UNL1        0.1673
     13 O          -1.7283   -0.3957   -6.6910 O.3     1  UNL1       -0.4526
     14 C          -3.0897    0.0539   -6.6349 C.3     1  UNL1        0.2332
     15 O          -3.2713    1.2283   -5.8075 O.3     1  UNL1       -0.4526
     16 C          -1.9799    1.5941   -5.5970 C.ar    1  UNL1        0.1673
     17 C          -1.5291    2.7244   -4.9617 C.ar    1  UNL1       -0.0019
     18 C          -0.1329    2.9130   -4.8764 C.ar    1  UNL1        0.0309
     19 I           0.4695    4.6813   -3.8862 I       1  UNL1       -0.0425
     20 N           3.3497    1.2113   -7.6989 N.ar    1  UNL1       -0.2164
     21 C           3.7361   -0.0071   -8.2134 C.ar    1  UNL1        0.1484
     22 C           3.7616   -0.9780   -7.2247 C.ar    1  UNL1        0.1661
     23 N           4.0441   -2.2816   -7.3726 N.ar    1  UNL1       -0.2160
     24 C           4.3229   -2.5718   -8.6600 C.ar    1  UNL1        0.1205
     25 N           4.3808   -1.7301   -9.7155 N.ar    1  UNL1       -0.2188
     26 C           4.1157   -0.4229   -9.5105 C.ar    1  UNL1        0.1472
     27 N           4.2373    0.4357  -10.5920 N.pl3   1  UNL1       -0.3413
     28 C           3.9987   -0.9578    0.4304 C.3     1  UNL1       -0.0499
     29 H           2.2958   -3.8505   -0.4255 H       1  UNL1        0.0245
     30 H           1.6165   -2.3880    0.3219 H       1  UNL1        0.0245
     31 H           2.8845   -3.3044    1.1411 H       1  UNL1        0.0245
     32 H           4.5054   -2.7270   -0.6724 H       1  UNL1        0.0455
     33 H           3.9736   -0.8875   -2.0846 H       1  UNL1        0.1222
     34 H           2.0087   -3.0330   -2.5713 H       1  UNL1        0.0425
     35 H           3.7123   -3.1123   -3.0462 H       1  UNL1        0.0425
     36 H           1.6525   -1.0357   -3.9957 H       1  UNL1        0.0295
     37 H           2.1962   -2.4329   -4.9075 H       1  UNL1        0.0295
     38 H           4.5793   -1.5042   -4.7985 H       1  UNL1        0.0493
     39 H           3.9438   -0.0452   -4.0630 H       1  UNL1        0.0493
     40 H           0.8668    0.0585   -6.5054 H       1  UNL1        0.0667
     41 H          -3.7208   -0.7624   -6.2596 H       1  UNL1        0.1166
     42 H          -3.4075    0.3002   -7.6603 H       1  UNL1        0.1166
     43 H          -2.2404    3.4344   -4.5558 H       1  UNL1        0.0666
     44 H           4.5383   -3.6136   -8.8765 H       1  UNL1        0.1048
     45 H           4.2433   -0.0398  -11.4832 H       1  UNL1        0.1438
     46 H           3.7474    1.3181  -10.5108 H       1  UNL1        0.1438
     47 H           3.1567   -0.2800    0.5918 H       1  UNL1        0.0245
     48 H           4.8288   -0.3720    0.0211 H       1  UNL1        0.0245
     49 H           4.3127   -1.3371    1.4068 H       1  UNL1        0.0245
@<TRIPOS>BOND
     1     1     2    1
     2     2     3    1
     3     3     4    1
     4     4     5    1
     5     5     6    1
     6     6     7    1
     7     7     8   ar
     8     8     9    1
     9     9    10    1
    10    10    11   ar
    11    11    12   ar
    12    12    13    1
    13    13    14    1
    14    14    15    1
    15    15    16    1
    16    12    16   ar
    17    16    17   ar
    18    17    18   ar
    19    10    18   ar
    20    18    19    1
    21     8    20   ar
    22    20    21   ar
    23    21    22   ar
    24     7    22   ar
    25    22    23   ar
    26    23    24   ar
    27    24    25   ar
    28    25    26   ar
    29    21    26   ar
    30    26    27    1
    31     2    28    1
    32     1    29    1
    33     1    30    1
    34     1    31    1
    35     2    32    1
    36     3    33    1
    37     4    34    1
    38     4    35    1
    39     5    36    1
    40     5    37    1
    41     6    38    1
    42     6    39    1
    43    11    40    1
    44    14    41    1
    45    14    42    1
    46    17    43    1
    47    24    44    1
    48    27    45    1
    49    27    46    1
    50    28    47    1
    51    28    48    1
    52    28    49    1
@<TRIPOS>MOLECULE
*****
 57 60 0 0 0
SMALL
GASTEIGER

@<TRIPOS>ATOM
      1 C           5.2734   -5.7709    4.0423 C.3     1  UNL1       -0.0397
      2 C           4.4199   -6.6277    3.1583 C.ar    1  UNL1       -0.0501
      3 C           3.7525   -7.7613    3.6293 C.ar    1  UNL1       -0.0588
      4 C           2.8369   -8.4266    2.8078 C.ar    1  UNL1       -0.0612
      5 C           2.5053   -7.8991    1.5544 C.ar    1  UNL1       -0.0571
      6 C           3.1166   -6.7184    1.1106 C.ar    1  UNL1       -0.0299
      7 C           4.1474   -6.1647    1.8734 C.ar    1  UNL1       -0.0541
      8 C           2.5882   -5.8841   -0.0417 C.3     1  UNL1        0.0397
      9 N           1.9796   -4.6275    0.4693 N.am    1  UNL1       -0.2962
     10 C           2.7414   -3.4415    0.4591 C.2     1  UNL1        0.2502
     11 O           3.8566   -3.4196   -0.0676 O.2     1  UNL1       -0.2699
     12 C           2.2234   -2.1435    1.0542 C.ar    1  UNL1        0.0791
     13 C           0.8792   -1.7160    0.8888 C.ar    1  UNL1       -0.0319
     14 C           0.4460   -0.4460    1.3236 C.ar    1  UNL1        0.0619
     15 C           1.3977    0.4157    1.9037 C.ar    1  UNL1        0.1310
     16 C           2.7235    0.0267    2.0718 C.ar    1  UNL1        0.0228
     17 C           3.1350   -1.2371    1.6380 C.ar    1  UNL1        0.1325
     18 O           4.4602   -1.5367    1.7948 O.3     1  UNL1       -0.5059
     19 O           1.1172    1.7004    2.2967 O.3     1  UNL1       -0.5059
     20 C          -0.8961    0.1181    0.9712 C.ar    1  UNL1        0.1727
     21 N          -0.9990    1.4054    0.7328 N.ar    1  UNL1       -0.1507
     22 N          -2.2761    1.5786    0.3015 N.ar    1  UNL1       -0.2260
     23 H          -2.6482    2.4703    0.0023 H       1  UNL1        0.1937
     24 C          -2.9630    0.3728    0.2768 C.ar    1  UNL1        0.3489
     25 O          -4.1277    0.2407   -0.0685 O.2     1  UNL1       -0.2446
     26 N          -2.0644   -0.5688    0.7506 N.ar    1  UNL1       -0.2434
     27 C          -2.4810   -1.8643    1.1068 C.ar    1  UNL1        0.0558
     28 C          -3.1039   -2.6609    0.1325 C.ar    1  UNL1       -0.0374
     29 C          -3.5383   -3.9542    0.4292 C.ar    1  UNL1       -0.0598
     30 C          -3.3456   -4.4725    1.7043 C.ar    1  UNL1       -0.0614
     31 C          -2.8202   -3.6590    2.7070 C.ar    1  UNL1       -0.0569
     32 C          -2.4476   -2.3291    2.4343 C.ar    1  UNL1       -0.0264
     33 C          -2.3275   -1.3757    3.5951 C.3     1  UNL1       -0.0377
     34 C           0.6835   -4.7714    1.1086 C.3     1  UNL1        0.0038
     35 H           5.9233   -6.3702    4.6819 H       1  UNL1        0.0278
     36 H           4.6225   -5.1410    4.6590 H       1  UNL1        0.0278
     37 H           5.9073   -5.1056    3.4441 H       1  UNL1        0.0278
     38 H           3.9168   -8.1125    4.6453 H       1  UNL1        0.0620
     39 H           2.3318   -9.3174    3.1756 H       1  UNL1        0.0618
     40 H           1.7300   -8.3834    0.9656 H       1  UNL1        0.0621
     41 H           4.6632   -5.2805    1.5015 H       1  UNL1        0.0623
     42 H           1.8223   -6.4312   -0.6037 H       1  UNL1        0.0514
     43 H           3.4090   -5.6695   -0.7354 H       1  UNL1        0.0514
     44 H           0.1917   -2.3387    0.3307 H       1  UNL1        0.0634
     45 H           3.4329    0.7267    2.5077 H       1  UNL1        0.0691
     46 H           4.9895   -0.7358    1.5626 H       1  UNL1        0.2922
     47 H           0.2916    1.9837    1.8466 H       1  UNL1        0.2922
     48 H          -3.2828   -2.2686   -0.8676 H       1  UNL1        0.0638
     49 H          -4.0440   -4.5462   -0.3300 H       1  UNL1        0.0618
     50 H          -3.6734   -5.4831    1.9374 H       1  UNL1        0.0618
     51 H          -2.7827   -4.0448    3.7248 H       1  UNL1        0.0621
     52 H          -2.4294   -1.8965    4.5535 H       1  UNL1        0.0278
     53 H          -3.1572   -0.6580    3.5425 H       1  UNL1        0.0278
     54 H          -1.3807   -0.8368    3.5979 H       1  UNL1        0.0278
     55 H           0.4892   -5.8120    1.3793 H       1  UNL1        0.0429
     56 H          -0.0751   -4.4699    0.3827 H       1  UNL1        0.0429
     57 H           0.6229   -4.1615    2.0116 H       1  UNL1        0.0429
@<TRIPOS>BOND
     1     1     2    1
     2     2     3   ar
     3     3     4   ar
     4     4     5   ar
     5     5     6   ar
     6     6     7   ar
     7     2     7   ar
     8     6     8    1
     9     8     9    1
    10     9    10   am
    11    10    11    2
    12    10    12    1
    13    12    13   ar
    14    13    14   ar
    15    14    15   ar
    16    15    16   ar
    17    16    17   ar
    18    12    17   ar
    19    17    18    1
    20    15    19    1
    21    14    20    1
    22    20    21   ar
    23    21    22   ar
    24    22    23    1
    25    22    24   ar
    26    24    25    2
    27    24    26   ar
    28    20    26   ar
    29    26    27    1
    30    27    28   ar
    31    28    29   ar
    32    29    30   ar
    33    30    31   ar
    34    31    32   ar
    35    27    32   ar
    36    32    33    1
    37     9    34    1
    38     1    35    1
    39     1    36    1
    40     1    37    1
    41     3    38    1
    42     4    39    1
    43     5    40    1
    44     7    41    1
    45     8    42    1
    46     8    43    1
    47    13    44    1
    48    16    45    1
    49    18    46    1
    50    19    47    1
    51    28    48    1
    52    29    49    1
    53    30    50    1
    54    31    51    1
    55    33    52    1
    56    33    53    1
    57    33    54    1
    58    34    55    1
    59    34    56    1
    60    34    57    1
@<TRIPOS>MOLECULE
*****
 57 60 0 0 0
SMALL
GASTEIGER

@<TRIPOS>ATOM
      1 C           2.8738   -1.3723    0.3217 C.3     1  UNL1        0.0038
      2 N           2.2199   -0.1056    0.6129 N.am    1  UNL1       -0.2961
      3 C           3.0351    0.9454    1.0737 C.2     1  UNL1        0.2502
      4 O           4.2502    0.8000    1.2051 O.2     1  UNL1       -0.2699
      5 C           2.4461    2.2467    1.5085 C.ar    1  UNL1        0.0791
      6 C           1.2734    2.2245    2.2726 C.ar    1  UNL1       -0.0319
      7 C           0.6691    3.3827    2.7603 C.ar    1  UNL1        0.0619
      8 C           1.3773    4.5844    2.6182 C.ar    1  UNL1        0.1310
      9 C           2.5726    4.6333    1.8922 C.ar    1  UNL1        0.0228
     10 C           3.0809    3.4756    1.2987 C.ar    1  UNL1        0.1325
     11 O           4.1748    3.5629    0.4861 O.3     1  UNL1       -0.5059
     12 O           0.9677    5.7683    3.1680 O.3     1  UNL1       -0.5059
     13 C          -0.7563    3.3839    3.2131 C.ar    1  UNL1        0.1727
     14 N          -1.4434    4.5003    3.1764 N.ar    1  UNL1       -0.1507
     15 N          -2.7319    4.1197    3.4072 N.ar    1  UNL1       -0.2260
     16 H          -3.5204    4.7435    3.2915 H       1  UNL1        0.1937
     17 C          -2.8255    2.7401    3.5552 C.ar    1  UNL1        0.3489
     18 O          -3.8691    2.1167    3.6665 O.2     1  UNL1       -0.2446
     19 N          -1.5229    2.2842    3.5323 N.ar    1  UNL1       -0.2434
     20 C          -1.1713    0.9329    3.7144 C.ar    1  UNL1        0.0558
     21 C          -1.7934   -0.0376    2.9079 C.ar    1  UNL1       -0.0374
     22 C          -1.3352   -1.3557    2.8974 C.ar    1  UNL1       -0.0598
     23 C          -0.2706   -1.7244    3.7117 C.ar    1  UNL1       -0.0614
     24 C           0.2966   -0.7919    4.5808 C.ar    1  UNL1       -0.0569
     25 C          -0.1541    0.5399    4.6085 C.ar    1  UNL1       -0.0264
     26 C           0.3827    1.4527    5.6778 C.3     1  UNL1       -0.0377
     27 C           0.8486    0.0238    0.0886 C.3     1  UNL1        0.0400
     28 C           0.7010    0.6874   -1.2659 C.ar    1  UNL1       -0.0272
     29 C           1.8239    1.0649   -2.0178 C.ar    1  UNL1       -0.0568
     30 C           1.6800    1.6147   -3.2879 C.ar    1  UNL1       -0.0614
     31 C           0.4130    1.7834   -3.8288 C.ar    1  UNL1       -0.0615
     32 C          -0.7158    1.4450   -3.0842 C.ar    1  UNL1       -0.0585
     33 C          -0.5897    0.9167   -1.7923 C.ar    1  UNL1       -0.0458
     34 C          -1.8385    0.6329   -0.9966 C.3     1  UNL1       -0.0394
     35 H           3.8078   -1.4821    0.8800 H       1  UNL1        0.0429
     36 H           3.0899   -1.4240   -0.7500 H       1  UNL1        0.0429
     37 H           2.2126   -2.1965    0.6037 H       1  UNL1        0.0429
     38 H           0.8543    1.2574    2.4663 H       1  UNL1        0.0634
     39 H           3.0784    5.5887    1.7810 H       1  UNL1        0.0691
     40 H           4.4717    4.4846    0.4293 H       1  UNL1        0.2922
     41 H           0.0656    5.6460    3.5310 H       1  UNL1        0.2922
     42 H          -2.6063    0.2354    2.2377 H       1  UNL1        0.0638
     43 H          -1.7992   -2.0897    2.2426 H       1  UNL1        0.0618
     44 H           0.1038   -2.7453    3.6927 H       1  UNL1        0.0618
     45 H           1.0983   -1.1135    5.2435 H       1  UNL1        0.0621
     46 H           1.3520    1.0983    6.0472 H       1  UNL1        0.0278
     47 H          -0.3192    1.4743    6.5172 H       1  UNL1        0.0278
     48 H           0.5383    2.4733    5.3308 H       1  UNL1        0.0278
     49 H           0.2268    0.5687    0.7883 H       1  UNL1        0.0514
     50 H           0.4188   -0.9845    0.0330 H       1  UNL1        0.0514
     51 H           2.8330    0.9407   -1.6303 H       1  UNL1        0.0621
     52 H           2.5637    1.9015   -3.8517 H       1  UNL1        0.0618
     53 H           0.3023    2.1910   -4.8309 H       1  UNL1        0.0618
     54 H          -1.6993    1.6012   -3.5219 H       1  UNL1        0.0620
     55 H          -2.7430    0.8685   -1.5673 H       1  UNL1        0.0278
     56 H          -1.8574    1.2554   -0.0956 H       1  UNL1        0.0278
     57 H          -1.8916   -0.4226   -0.7130 H       1  UNL1        0.0278
@<TRIPOS>BOND
     1     1     2    1
     2     2     3   am
     3     3     4    2
     4     3     5    1
     5     5     6   ar
     6     6     7   ar
     7     7     8   ar
     8     8     9   ar
     9     9    10   ar
    10     5    10   ar
    11    10    11    1
    12     8    12    1
    13     7    13    1
    14    13    14   ar
    15    14    15   ar
    16    15    16    1
    17    15    17   ar
    18    17    18    2
    19    17    19   ar
    20    13    19   ar
    21    19    20    1
    22    20    21   ar
    23    21    22   ar
    24    22    23   ar
    25    23    24   ar
    26    24    25   ar
    27    20    25   ar
    28    25    26    1
    29     2    27    1
    30    27    28    1
    31    28    29   ar
    32    29    30   ar
    33    30    31   ar
    34    31    32   ar
    35    32    33   ar
    36    28    33   ar
    37    33    34    1
    38     1    35    1
    39     1    36    1
    40     1    37    1
    41     6    38    1
    42     9    39    1
    43    11    40    1
    44    12    41    1
    45    21    42    1
    46    22    43    1
    47    23    44    1
    48    24    45    1
    49    26    46    1
    50    26    47    1
    51    26    48    1
    52    27    49    1
    53    27    50    1
    54    29    51    1
    55    30    52    1
    56    31    53    1
    57    32    54    1
    58    34    55    1
    59    34    56    1
    60    34    57    1
@<TRIPOS>MOLECULE
*****
 63 67 0 0 0
SMALL
GASTEIGER

@<TRIPOS>ATOM
      1 C           4.7329   -1.6473   -2.1506 C.3     1  UNL1        0.0038
      2 N           4.1726   -0.8008   -1.0936 N.am    1  UNL1       -0.2961
      3 C           3.1983    0.1958   -1.2345 C.2     1  UNL1        0.2502
      4 O           2.8596    0.9539   -0.3310 O.2     1  UNL1       -0.2699
      5 C           2.6177    0.4406   -2.5688 C.ar    1  UNL1        0.0791
      6 C           2.0978   -0.6282   -3.3117 C.ar    1  UNL1       -0.0319
      7 C           1.8505   -0.4815   -4.6795 C.ar    1  UNL1        0.0619
      8 C           2.1116    0.7692   -5.2628 C.ar    1  UNL1        0.1310
      9 C           2.4467    1.8790   -4.4862 C.ar    1  UNL1        0.0228
     10 C           2.7129    1.7141   -3.1346 C.ar    1  UNL1        0.1325
     11 O           3.1572    2.8187   -2.4634 O.3     1  UNL1       -0.5059
     12 O           2.1339    0.9693   -6.6175 O.3     1  UNL1       -0.5059
     13 C           1.4772   -1.6375   -5.5355 C.ar    1  UNL1        0.1727
     14 N           1.8855   -1.6822   -6.7868 N.ar    1  UNL1       -0.1507
     15 N           1.4268   -2.8851   -7.2360 N.ar    1  UNL1       -0.2260
     16 H           1.5376   -3.1893   -8.2004 H       1  UNL1        0.1937
     17 C           0.7064   -3.5563   -6.2607 C.ar    1  UNL1        0.3489
     18 O           0.1116   -4.6041   -6.4427 O.2     1  UNL1       -0.2446
     19 N           0.7682   -2.7485   -5.1431 N.ar    1  UNL1       -0.2434
     20 C           0.1216   -3.0014   -3.9147 C.ar    1  UNL1        0.0558
     21 C          -0.6608   -1.9868   -3.3483 C.ar    1  UNL1       -0.0374
     22 C          -1.1032   -2.0669   -2.0229 C.ar    1  UNL1       -0.0598
     23 C          -0.7689   -3.1747   -1.2596 C.ar    1  UNL1       -0.0614
     24 C          -0.0801   -4.2414   -1.8389 C.ar    1  UNL1       -0.0569
     25 C           0.3435   -4.1910   -3.1819 C.ar    1  UNL1       -0.0264
     26 C           0.9839   -5.4337   -3.7433 C.3     1  UNL1       -0.0377
     27 C           4.8002   -0.9453    0.2197 C.3     1  UNL1        0.0403
     28 C           4.1353   -1.9338    1.1634 C.ar    1  UNL1       -0.0224
     29 C           2.9768   -2.6267    0.7309 C.ar    1  UNL1       -0.0565
     30 C           2.2659   -3.4744    1.5731 C.ar    1  UNL1       -0.0614
     31 C           2.7087   -3.6711    2.8670 C.ar    1  UNL1       -0.0612
     32 C           3.8704   -3.0321    3.3054 C.ar    1  UNL1       -0.0537
     33 C           4.6118   -2.1404    2.4904 C.ar    1  UNL1       -0.0118
     34 C           5.7894   -1.4520    3.1023 C.ar    1  UNL1        0.0005
     35 C           5.7561   -1.0034    4.4368 C.ar    1  UNL1       -0.0511
     36 C           6.8564   -0.3753    5.0243 C.ar    1  UNL1       -0.0430
     37 C           7.9835   -0.1758    4.2539 C.ar    1  UNL1        0.0276
     38 N           8.0867   -0.5950    2.9794 N.ar    1  UNL1       -0.2627
     39 C           7.0069   -1.2356    2.4547 C.ar    1  UNL1        0.0353
     40 H           4.3024   -1.4841   -3.1350 H       1  UNL1        0.0429
     41 H           4.5874   -2.6958   -1.8743 H       1  UNL1        0.0429
     42 H           5.8020   -1.4387   -2.2387 H       1  UNL1        0.0429
     43 H           2.0088   -1.5940   -2.8230 H       1  UNL1        0.0634
     44 H           2.5902    2.8508   -4.9507 H       1  UNL1        0.0691
     45 H           3.4032    2.5675   -1.5499 H       1  UNL1        0.2922
     46 H           2.2448    0.0939   -7.0488 H       1  UNL1        0.2922
     47 H          -0.9216   -1.1010   -3.9226 H       1  UNL1        0.0638
     48 H          -1.6789   -1.2561   -1.5888 H       1  UNL1        0.0618
     49 H          -1.0630   -3.2263   -0.2123 H       1  UNL1        0.0618
     50 H           0.1380   -5.1186   -1.2306 H       1  UNL1        0.0621
     51 H           1.4161   -6.0500   -2.9484 H       1  UNL1        0.0278
     52 H           1.7969   -5.2065   -4.4361 H       1  UNL1        0.0278
     53 H           0.2209   -6.0336   -4.2475 H       1  UNL1        0.0278
     54 H           4.8453    0.0359    0.7010 H       1  UNL1        0.0514
     55 H           5.8224   -1.2727    0.0150 H       1  UNL1        0.0514
     56 H           2.5864   -2.4892   -0.2744 H       1  UNL1        0.0621
     57 H           1.3623   -3.9624    1.2191 H       1  UNL1        0.0618
     58 H           2.1526   -4.3147    3.5421 H       1  UNL1        0.0618
     59 H           4.1912   -3.2367    4.3262 H       1  UNL1        0.0624
     60 H           4.8648   -1.1404    5.0447 H       1  UNL1        0.0625
     61 H           6.8259   -0.0485    6.0576 H       1  UNL1        0.0633
     62 H           8.8572    0.3304    4.6540 H       1  UNL1        0.0829
     63 H           7.1963   -1.6006    1.4522 H       1  UNL1        0.0836
@<TRIPOS>BOND
     1     1     2    1
     2     2     3   am
     3     3     4    2
     4     3     5    1
     5     5     6   ar
     6     6     7   ar
     7     7     8   ar
     8     8     9   ar
     9     9    10   ar
    10     5    10   ar
    11    10    11    1
    12     8    12    1
    13     7    13    1
    14    13    14   ar
    15    14    15   ar
    16    15    16    1
    17    15    17   ar
    18    17    18    2
    19    17    19   ar
    20    13    19   ar
    21    19    20    1
    22    20    21   ar
    23    21    22   ar
    24    22    23   ar
    25    23    24   ar
    26    24    25   ar
    27    20    25   ar
    28    25    26    1
    29     2    27    1
    30    27    28    1
    31    28    29   ar
    32    29    30   ar
    33    30    31   ar
    34    31    32   ar
    35    32    33   ar
    36    28    33   ar
    37    33    34    1
    38    34    35   ar
    39    35    36   ar
    40    36    37   ar
    41    37    38   ar
    42    38    39   ar
    43    34    39   ar
    44     1    40    1
    45     1    41    1
    46     1    42    1
    47     6    43    1
    48     9    44    1
    49    11    45    1
    50    12    46    1
    51    21    47    1
    52    22    48    1
    53    23    49    1
    54    24    50    1
    55    26    51    1
    56    26    52    1
    57    26    53    1
    58    27    54    1
    59    27    55    1
    60    29    56    1
    61    30    57    1
    62    31    58    1
    63    32    59    1
    64    35    60    1
    65    36    61    1
    66    37    62    1
    67    39    63    1
@<TRIPOS>MOLECULE
*****
 58 61 0 0 0
SMALL
GASTEIGER

@<TRIPOS>ATOM
      1 C          11.7744    8.7837    7.7635 C.3     1  UNL1        0.0788
      2 O          11.5575    8.3013    6.4426 O.3     1  UNL1       -0.4951
      3 C          10.7807    7.2204    6.1415 C.ar    1  UNL1        0.1201
      4 C          10.4614    7.1232    4.7812 C.ar    1  UNL1       -0.0196
      5 C           9.6335    6.1006    4.2461 C.ar    1  UNL1       -0.0536
      6 C           9.0957    5.1049    5.0621 C.ar    1  UNL1       -0.0299
      7 C           9.4937    5.1741    6.4332 C.ar    1  UNL1       -0.0536
      8 C          10.3056    6.2196    6.9735 C.ar    1  UNL1       -0.0196
      9 C           7.8832    4.2078    4.6861 C.3     1  UNL1        0.0397
     10 N           7.6536    3.4193    3.4182 N.am    1  UNL1       -0.2962
     11 C           6.9066    2.1984    3.5651 C.2     1  UNL1        0.2502
     12 O           6.7955    1.6938    4.6957 O.2     1  UNL1       -0.2699
     13 C           6.1753    1.3769    2.5057 C.ar    1  UNL1        0.0791
     14 C           6.2977   -0.0557    2.6069 C.ar    1  UNL1       -0.0319
     15 C           5.3597   -0.9567    2.0315 C.ar    1  UNL1        0.0619
     16 C           4.2674   -0.4067    1.3535 C.ar    1  UNL1        0.1310
     17 C           4.1389    0.9785    1.2075 C.ar    1  UNL1        0.0228
     18 C           5.0906    1.8636    1.7562 C.ar    1  UNL1        0.1325
     19 O           4.8786    3.2025    1.5724 O.3     1  UNL1       -0.5059
     20 O           3.2492   -1.1527    0.8101 O.3     1  UNL1       -0.5059
     21 C           5.3337   -2.4259    2.3195 C.ar    1  UNL1        0.1727
     22 N           4.2033   -3.0483    2.5770 N.ar    1  UNL1       -0.1507
     23 N           4.5730   -4.3181    2.9079 N.ar    1  UNL1       -0.2260
     24 H           3.9253   -5.0202    3.2626 H       1  UNL1        0.1937
     25 C           5.9454   -4.4772    2.8735 C.ar    1  UNL1        0.3489
     26 O           6.5644   -5.4965    3.1559 O.2     1  UNL1       -0.2446
     27 N           6.4216   -3.2634    2.4147 N.ar    1  UNL1       -0.2434
     28 C           7.7573   -3.0388    2.0343 C.ar    1  UNL1        0.0558
     29 C           8.7559   -3.2532    2.9923 C.ar    1  UNL1       -0.0374
     30 C          10.0714   -2.8720    2.7382 C.ar    1  UNL1       -0.0598
     31 C          10.4002   -2.3039    1.5118 C.ar    1  UNL1       -0.0614
     32 C           9.4406   -2.2229    0.5034 C.ar    1  UNL1       -0.0569
     33 C           8.1154   -2.6266    0.7373 C.ar    1  UNL1       -0.0264
     34 C           7.2289   -2.8688   -0.4585 C.3     1  UNL1       -0.0377
     35 C           7.8112    4.1007    2.1458 C.3     1  UNL1        0.0038
     36 H          12.7940    9.1928    7.7937 H       1  UNL1        0.0660
     37 H          11.6940    8.0371    8.5552 H       1  UNL1        0.0660
     38 H          11.1048    9.6283    7.9676 H       1  UNL1        0.0660
     39 H          10.8335    7.9037    4.1186 H       1  UNL1        0.0654
     40 H           9.3883    6.1609    3.1935 H       1  UNL1        0.0622
     41 H           9.1245    4.4210    7.1324 H       1  UNL1        0.0622
     42 H          10.5185    6.2164    8.0391 H       1  UNL1        0.0654
     43 H           7.0233    4.8894    4.7277 H       1  UNL1        0.0514
     44 H           7.7566    3.5204    5.5280 H       1  UNL1        0.0514
     45 H           7.0782   -0.4530    3.2544 H       1  UNL1        0.0634
     46 H           3.2358    1.3555    0.7262 H       1  UNL1        0.0691
     47 H           4.2262    3.3136    0.8551 H       1  UNL1        0.2922
     48 H           3.3227   -2.0802    1.1208 H       1  UNL1        0.2922
     49 H           8.5122   -3.6915    3.9596 H       1  UNL1        0.0638
     50 H          10.8334   -3.0082    3.5015 H       1  UNL1        0.0618
     51 H          11.4177   -1.9721    1.3227 H       1  UNL1        0.0618
     52 H           9.7434   -1.8794   -0.4847 H       1  UNL1        0.0621
     53 H           7.5115   -2.2284   -1.2997 H       1  UNL1        0.0278
     54 H           6.1719   -2.6983   -0.2531 H       1  UNL1        0.0278
     55 H           7.3501   -3.9125   -0.7789 H       1  UNL1        0.0278
     56 H           7.4458    5.1287    2.2359 H       1  UNL1        0.0429
     57 H           7.2723    3.6094    1.3370 H       1  UNL1        0.0429
     58 H           8.8724    4.1163    1.8794 H       1  UNL1        0.0429
@<TRIPOS>BOND
     1     1     2    1
     2     2     3    1
     3     3     4   ar
     4     4     5   ar
     5     5     6   ar
     6     6     7   ar
     7     7     8   ar
     8     3     8   ar
     9     6     9    1
    10     9    10    1
    11    10    11   am
    12    11    12    2
    13    11    13    1
    14    13    14   ar
    15    14    15   ar
    16    15    16   ar
    17    16    17   ar
    18    17    18   ar
    19    13    18   ar
    20    18    19    1
    21    16    20    1
    22    15    21    1
    23    21    22   ar
    24    22    23   ar
    25    23    24    1
    26    23    25   ar
    27    25    26    2
    28    25    27   ar
    29    21    27   ar
    30    27    28    1
    31    28    29   ar
    32    29    30   ar
    33    30    31   ar
    34    31    32   ar
    35    32    33   ar
    36    28    33   ar
    37    33    34    1
    38    10    35    1
    39     1    36    1
    40     1    37    1
    41     1    38    1
    42     4    39    1
    43     5    40    1
    44     7    41    1
    45     8    42    1
    46     9    43    1
    47     9    44    1
    48    14    45    1
    49    17    46    1
    50    19    47    1
    51    20    48    1
    52    29    49    1
    53    30    50    1
    54    31    51    1
    55    32    52    1
    56    34    53    1
    57    34    54    1
    58    34    55    1
    59    35    56    1
    60    35    57    1
    61    35    58    1
@<TRIPOS>MOLECULE
*****
 60 63 0 0 0
SMALL
GASTEIGER

@<TRIPOS>ATOM
      1 C           1.1341   -5.3979   -0.0175 C.3     1  UNL1       -0.0649
      2 C           0.9687   -4.6099   -1.3047 C.3     1  UNL1       -0.0504
      3 C           1.5432   -3.1958   -1.1900 C.3     1  UNL1       -0.0083
      4 C           1.3908   -2.4332   -2.4661 C.ar    1  UNL1        0.0705
      5 N           0.1621   -2.1806   -2.9398 N.ar    1  UNL1       -0.1777
      6 N           0.3851   -1.5160   -4.0814 N.ar    1  UNL1       -0.2766
      7 H          -0.4164   -1.2205   -4.6269 H       1  UNL1        0.1889
      8 C           1.7072   -1.2865   -4.3449 C.ar    1  UNL1        0.0695
      9 C           2.4036   -1.8908   -3.3075 C.ar    1  UNL1        0.0236
     10 C           3.8133   -1.8274   -3.3137 C.ar    1  UNL1       -0.0351
     11 C           4.4941   -1.1094   -4.3262 C.ar    1  UNL1        0.0793
     12 C           3.7275   -0.4404   -5.2911 C.ar    1  UNL1        0.1310
     13 C           2.3347   -0.5803   -5.3706 C.ar    1  UNL1        0.0060
     14 O           4.2401    0.4626   -6.1853 O.3     1  UNL1       -0.5059
     15 C           5.9905   -1.0549   -4.1873 C.2     1  UNL1        0.2541
     16 O           6.4085   -1.0184   -3.0219 O.2     1  UNL1       -0.2695
     17 N           6.8558   -1.0217   -5.2927 N.am    1  UNL1       -0.2704
     18 C           8.2778   -1.0109   -5.0946 C.ar    1  UNL1        0.0363
     19 C           8.9243   -1.9749   -4.3187 C.ar    1  UNL1       -0.0400
     20 C          10.3305   -2.0653   -4.3163 C.ar    1  UNL1       -0.0565
     21 C          11.1274   -1.1875   -5.0735 C.ar    1  UNL1       -0.0441
     22 C          10.4577   -0.1622   -5.7580 C.ar    1  UNL1       -0.0565
     23 C           9.0602   -0.0952   -5.7974 C.ar    1  UNL1       -0.0400
     24 C          12.6585   -1.3009   -5.1314 C.3     1  UNL1       -0.0135
     25 C          13.2333   -2.7145   -4.9001 C.3     1  UNL1       -0.0333
     26 C          12.9312   -3.6502   -6.0784 C.3     1  UNL1       -0.0009
     27 N          13.3863   -3.1491   -7.3825 N.3     1  UNL1       -0.3053
     28 C          12.9425   -1.7678   -7.6165 C.3     1  UNL1       -0.0009
     29 C          13.2795   -0.8123   -6.4652 C.3     1  UNL1       -0.0333
     30 C          14.8238   -3.3042   -7.5690 C.3     1  UNL1       -0.0128
     31 C           6.4830   -1.2359   -6.6979 C.3     1  UNL1        0.0086
     32 H           0.7227   -6.4048   -0.1397 H       1  UNL1        0.0230
     33 H           0.6054   -4.9134    0.8095 H       1  UNL1        0.0230
     34 H           2.1903   -5.4917    0.2532 H       1  UNL1        0.0230
     35 H          -0.0985   -4.5642   -1.5549 H       1  UNL1        0.0266
     36 H           1.4625   -5.1453   -2.1248 H       1  UNL1        0.0266
     37 H           2.6023   -3.2506   -0.9114 H       1  UNL1        0.0329
     38 H           1.0358   -2.6508   -0.3839 H       1  UNL1        0.0329
     39 H           4.3726   -2.2968   -2.5066 H       1  UNL1        0.0633
     40 H           1.7660   -0.0910   -6.1550 H       1  UNL1        0.0675
     41 H           4.9208    0.9778   -5.7153 H       1  UNL1        0.2922
     42 H           8.3492   -2.7102   -3.7626 H       1  UNL1        0.0636
     43 H          10.7741   -2.8632   -3.7275 H       1  UNL1        0.0621
     44 H          11.0007    0.6023   -6.3052 H       1  UNL1        0.0621
     45 H           8.5945    0.6984   -6.3745 H       1  UNL1        0.0636
     46 H          13.0357   -0.6499   -4.3294 H       1  UNL1        0.0350
     47 H          12.8662   -3.1564   -3.9671 H       1  UNL1        0.0283
     48 H          14.3224   -2.6398   -4.7705 H       1  UNL1        0.0283
     49 H          11.8487   -3.8216   -6.1386 H       1  UNL1        0.0427
     50 H          13.3678   -4.6382   -5.8830 H       1  UNL1        0.0427
     51 H          11.8587   -1.7775   -7.7843 H       1  UNL1        0.0427
     52 H          13.3706   -1.3858   -8.5502 H       1  UNL1        0.0427
     53 H          12.9709    0.2052   -6.7218 H       1  UNL1        0.0283
     54 H          14.3691   -0.7494   -6.3502 H       1  UNL1        0.0283
     55 H          15.1128   -4.3578   -7.4624 H       1  UNL1        0.0391
     56 H          15.4181   -2.7160   -6.8609 H       1  UNL1        0.0391
     57 H          15.1109   -3.0071   -8.5834 H       1  UNL1        0.0391
     58 H           5.4541   -1.5667   -6.8162 H       1  UNL1        0.0433
     59 H           7.1153   -2.0263   -7.1200 H       1  UNL1        0.0433
     60 H           6.6494   -0.3105   -7.2587 H       1  UNL1        0.0433
@<TRIPOS>BOND
     1     1     2    1
     2     2     3    1
     3     3     4    1
     4     4     5   ar
     5     5     6   ar
     6     6     7    1
     7     6     8   ar
     8     8     9   ar
     9     4     9   ar
    10     9    10   ar
    11    10    11   ar
    12    11    12   ar
    13    12    13   ar
    14     8    13   ar
    15    12    14    1
    16    11    15    1
    17    15    16    2
    18    15    17   am
    19    17    18    1
    20    18    19   ar
    21    19    20   ar
    22    20    21   ar
    23    21    22   ar
    24    22    23   ar
    25    18    23   ar
    26    21    24    1
    27    24    25    1
    28    25    26    1
    29    26    27    1
    30    27    28    1
    31    28    29    1
    32    24    29    1
    33    27    30    1
    34    17    31    1
    35     1    32    1
    36     1    33    1
    37     1    34    1
    38     2    35    1
    39     2    36    1
    40     3    37    1
    41     3    38    1
    42    10    39    1
    43    13    40    1
    44    14    41    1
    45    19    42    1
    46    20    43    1
    47    22    44    1
    48    23    45    1
    49    24    46    1
    50    25    47    1
    51    25    48    1
    52    26    49    1
    53    26    50    1
    54    28    51    1
    55    28    52    1
    56    29    53    1
    57    29    54    1
    58    30    55    1
    59    30    56    1
    60    30    57    1
    61    31    58    1
    62    31    59    1
    63    31    60    1
@<TRIPOS>MOLECULE
*****
 55 58 0 0 0
SMALL
GASTEIGER

@<TRIPOS>ATOM
      1 C           3.4210    1.2580   -0.5982 C.3     1  UNL1       -0.0623
      2 C           2.5096    0.4433    0.3118 C.3     1  UNL1       -0.0188
      3 C           1.3313    1.2212    0.9103 C.3     1  UNL1        0.1446
      4 C           0.4179    1.8336   -0.1265 C.ar    1  UNL1        0.1042
      5 N           0.2449    3.1613   -0.1596 N.ar    1  UNL1       -0.1748
      6 N          -0.4462    3.3700   -1.2865 N.ar    1  UNL1       -0.2765
      7 H          -0.6868    4.3251   -1.5345 H       1  UNL1        0.1889
      8 C          -0.6578    2.2386   -2.0239 C.ar    1  UNL1        0.0696
      9 C          -0.2357    1.1911   -1.2179 C.ar    1  UNL1        0.0265
     10 C          -0.4383   -0.1289   -1.6688 C.ar    1  UNL1       -0.0350
     11 C          -0.9042   -0.3560   -2.9850 C.ar    1  UNL1        0.0793
     12 C          -1.1013    0.7469   -3.8217 C.ar    1  UNL1        0.1310
     13 C          -1.1128    2.0560   -3.3297 C.ar    1  UNL1        0.0060
     14 O          -1.2005    0.6473   -5.1843 O.3     1  UNL1       -0.5059
     15 C          -0.9624   -1.7815   -3.4234 C.2     1  UNL1        0.2541
     16 O          -0.0480   -2.4687   -2.9598 O.2     1  UNL1       -0.2695
     17 N          -1.9383   -2.2708   -4.3269 N.am    1  UNL1       -0.2704
     18 C          -1.8360   -3.6190   -4.8366 C.ar    1  UNL1        0.0364
     19 C          -1.2423   -4.6496   -4.1035 C.ar    1  UNL1       -0.0385
     20 C          -0.9251   -5.8848   -4.6920 C.ar    1  UNL1       -0.0389
     21 C          -1.1879   -6.1391   -6.0373 C.ar    1  UNL1        0.0299
     22 C          -1.9465   -5.1696   -6.7060 C.ar    1  UNL1       -0.0389
     23 C          -2.2776   -3.9387   -6.1227 C.ar    1  UNL1       -0.0385
     24 N          -0.7468   -7.2650   -6.6904 N.pl3   1  UNL1       -0.3255
     25 C          -0.3671   -8.5221   -6.0342 C.3     1  UNL1        0.0357
     26 C          -1.0069   -9.6798   -6.8287 C.3     1  UNL1        0.0634
     27 O          -0.6518   -9.6510   -8.2260 O.3     1  UNL1       -0.3767
     28 C          -1.0258   -8.3945   -8.8224 C.3     1  UNL1        0.0634
     29 C          -0.3417   -7.2257   -8.1056 C.3     1  UNL1        0.0357
     30 C          -3.0325   -1.4564   -4.8923 C.3     1  UNL1        0.0086
     31 F           0.6340    0.3604    1.7113 F       1  UNL1       -0.2388
     32 H           4.1464    0.5975   -1.0847 H       1  UNL1        0.0231
     33 H           3.9807    2.0062   -0.0268 H       1  UNL1        0.0231
     34 H           2.8676    1.7721   -1.3888 H       1  UNL1        0.0231
     35 H           3.1083    0.0315    1.1322 H       1  UNL1        0.0294
     36 H           2.1357   -0.4249   -0.2408 H       1  UNL1        0.0294
     37 H           1.7238    2.0121    1.5640 H       1  UNL1        0.0718
     38 H          -0.1594   -0.9642   -1.0324 H       1  UNL1        0.0633
     39 H          -1.3406    2.8961   -3.9777 H       1  UNL1        0.0675
     40 H          -0.6954   -0.1422   -5.4586 H       1  UNL1        0.2922
     41 H          -0.9893   -4.5170   -3.0549 H       1  UNL1        0.0637
     42 H          -0.4010   -6.6085   -4.0754 H       1  UNL1        0.0637
     43 H          -2.2891   -5.3524   -7.7210 H       1  UNL1        0.0637
     44 H          -2.8165   -3.2331   -6.7453 H       1  UNL1        0.0637
     45 H          -0.7010   -8.5844   -4.9942 H       1  UNL1        0.0486
     46 H           0.7260   -8.6195   -6.0509 H       1  UNL1        0.0486
     47 H          -2.0999   -9.6406   -6.7458 H       1  UNL1        0.0575
     48 H          -0.6727  -10.6398   -6.4238 H       1  UNL1        0.0575
     49 H          -2.1167   -8.2880   -8.7832 H       1  UNL1        0.0575
     50 H          -0.7248   -8.4174   -9.8736 H       1  UNL1        0.0575
     51 H          -0.5706   -6.2835   -8.6085 H       1  UNL1        0.0486
     52 H           0.7502   -7.3504   -8.1587 H       1  UNL1        0.0486
     53 H          -3.2377   -0.5689   -4.2995 H       1  UNL1        0.0433
     54 H          -3.9548   -2.0424   -4.9182 H       1  UNL1        0.0433
     55 H          -2.7656   -1.1533   -5.9132 H       1  UNL1        0.0433
@<TRIPOS>BOND
     1     1     2    1
     2     2     3    1
     3     3     4    1
     4     4     5   ar
     5     5     6   ar
     6     6     7    1
     7     6     8   ar
     8     8     9   ar
     9     4     9   ar
    10     9    10   ar
    11    10    11   ar
    12    11    12   ar
    13    12    13   ar
    14     8    13   ar
    15    12    14    1
    16    11    15    1
    17    15    16    2
    18    15    17   am
    19    17    18    1
    20    18    19   ar
    21    19    20   ar
    22    20    21   ar
    23    21    22   ar
    24    22    23   ar
    25    18    23   ar
    26    21    24    1
    27    24    25    1
    28    25    26    1
    29    26    27    1
    30    27    28    1
    31    28    29    1
    32    24    29    1
    33    17    30    1
    34     3    31    1
    35     1    32    1
    36     1    33    1
    37     1    34    1
    38     2    35    1
    39     2    36    1
    40     3    37    1
    41    10    38    1
    42    13    39    1
    43    14    40    1
    44    19    41    1
    45    20    42    1
    46    22    43    1
    47    23    44    1
    48    25    45    1
    49    25    46    1
    50    26    47    1
    51    26    48    1
    52    28    49    1
    53    28    50    1
    54    29    51    1
    55    29    52    1
    56    30    53    1
    57    30    54    1
    58    30    55    1
@<TRIPOS>MOLECULE
*****
 58 61 0 0 0
SMALL
GASTEIGER

@<TRIPOS>ATOM
      1 C           0.6497    0.6958    0.0230 C.3     1  UNL1       -0.0647
      2 C           2.1230    0.2998   -0.0088 C.3     1  UNL1       -0.0478
      3 C           3.0184    1.1373    0.9381 C.3     1  UNL1        0.0006
      4 C           2.5961    1.0021    2.3772 C.ar    1  UNL1        0.0733
      5 N           2.5322   -0.2132    2.9444 N.ar    1  UNL1       -0.1775
      6 N           1.9036    0.0047    4.1063 N.ar    1  UNL1       -0.2766
      7 H           1.7139   -0.7902    4.7048 H       1  UNL1        0.1889
      8 C           1.5159    1.3010    4.2868 C.ar    1  UNL1        0.0695
      9 C           2.0982    2.0137    3.2482 C.ar    1  UNL1        0.0239
     10 C           1.9912    3.4202    3.2525 C.ar    1  UNL1       -0.0351
     11 C           1.2025    4.0622    4.2359 C.ar    1  UNL1        0.0793
     12 C           0.4261    3.2533    5.0746 C.ar    1  UNL1        0.1310
     13 C           0.6618    1.8835    5.2151 C.ar    1  UNL1        0.0060
     14 O          -0.6825    3.6851    5.7499 O.3     1  UNL1       -0.5059
     15 C           1.2182    5.5662    4.2301 C.2     1  UNL1        0.2541
     16 O           1.3583    6.0948    3.1201 O.2     1  UNL1       -0.2695
     17 N           1.0853    6.3502    5.3986 N.am    1  UNL1       -0.2704
     18 C           0.9447    5.8499    6.7207 C.ar    1  UNL1        0.0364
     19 C           1.8544    4.9433    7.2604 C.ar    1  UNL1       -0.0385
     20 C           1.5073    4.1876    8.3915 C.ar    1  UNL1       -0.0389
     21 C           0.2428    4.3020    8.9838 C.ar    1  UNL1        0.0299
     22 C          -0.5789    5.3441    8.5226 C.ar    1  UNL1       -0.0389
     23 C          -0.2262    6.1361    7.4266 C.ar    1  UNL1       -0.0385
     24 N          -0.2147    3.4695    9.9948 N.pl3   1  UNL1       -0.3255
     25 C           0.6940    2.5969   10.7555 C.3     1  UNL1        0.0357
     26 C           0.0367    2.3052   12.1182 C.3     1  UNL1        0.0634
     27 O          -1.2592    1.6938   11.9708 O.3     1  UNL1       -0.3767
     28 C          -2.1305    2.5390   11.1965 C.3     1  UNL1        0.0634
     29 C          -1.5380    2.8240    9.8068 C.3     1  UNL1        0.0357
     30 C           1.0134    7.8040    5.2545 C.3     1  UNL1        0.0086
     31 C           4.4853    0.7445    0.7444 C.3     1  UNL1       -0.0569
     32 H           0.0855    0.1001   -0.7026 H       1  UNL1        0.0230
     33 H           0.5187    1.7522   -0.2307 H       1  UNL1        0.0230
     34 H           0.2039    0.5184    1.0064 H       1  UNL1        0.0230
     35 H           2.4828    0.4137   -1.0384 H       1  UNL1        0.0269
     36 H           2.2035   -0.7678    0.2340 H       1  UNL1        0.0269
     37 H           2.9161    2.1899    0.6435 H       1  UNL1        0.0362
     38 H           2.4906    4.0030    2.4819 H       1  UNL1        0.0633
     39 H           0.1239    1.2962    5.9509 H       1  UNL1        0.0675
     40 H          -0.8624    4.6042    5.4922 H       1  UNL1        0.2922
     41 H           2.8126    4.7710    6.7780 H       1  UNL1        0.0637
     42 H           2.2206    3.4465    8.7377 H       1  UNL1        0.0637
     43 H          -1.5425    5.5206    8.9943 H       1  UNL1        0.0637
     44 H          -0.9483    6.8596    7.0598 H       1  UNL1        0.0637
     45 H           1.6641    3.0723   10.9310 H       1  UNL1        0.0486
     46 H           0.8524    1.6583   10.2084 H       1  UNL1        0.0486
     47 H          -0.0756    3.2318   12.6945 H       1  UNL1        0.0575
     48 H           0.6623    1.6206   12.6981 H       1  UNL1        0.0575
     49 H          -2.2999    3.4749   11.7433 H       1  UNL1        0.0575
     50 H          -3.0931    2.0271   11.1011 H       1  UNL1        0.0575
     51 H          -2.2452    3.4305    9.2327 H       1  UNL1        0.0486
     52 H          -1.4025    1.8771    9.2660 H       1  UNL1        0.0486
     53 H           1.4166    8.1332    4.2926 H       1  UNL1        0.0433
     54 H           1.5991    8.2865    6.0457 H       1  UNL1        0.0433
     55 H          -0.0302    8.1284    5.3166 H       1  UNL1        0.0433
     56 H           4.6603   -0.3062    1.0020 H       1  UNL1        0.0236
     57 H           5.1401    1.3551    1.3743 H       1  UNL1        0.0236
     58 H           4.7912    0.8923   -0.2963 H       1  UNL1        0.0236
@<TRIPOS>BOND
     1     1     2    1
     2     2     3    1
     3     3     4    1
     4     4     5   ar
     5     5     6   ar
     6     6     7    1
     7     6     8   ar
     8     8     9   ar
     9     4     9   ar
    10     9    10   ar
    11    10    11   ar
    12    11    12   ar
    13    12    13   ar
    14     8    13   ar
    15    12    14    1
    16    11    15    1
    17    15    16    2
    18    15    17   am
    19    17    18    1
    20    18    19   ar
    21    19    20   ar
    22    20    21   ar
    23    21    22   ar
    24    22    23   ar
    25    18    23   ar
    26    21    24    1
    27    24    25    1
    28    25    26    1
    29    26    27    1
    30    27    28    1
    31    28    29    1
    32    24    29    1
    33    17    30    1
    34     3    31    1
    35     1    32    1
    36     1    33    1
    37     1    34    1
    38     2    35    1
    39     2    36    1
    40     3    37    1
    41    10    38    1
    42    13    39    1
    43    14    40    1
    44    19    41    1
    45    20    42    1
    46    22    43    1
    47    23    44    1
    48    25    45    1
    49    25    46    1
    50    26    47    1
    51    26    48    1
    52    28    49    1
    53    28    50    1
    54    29    51    1
    55    29    52    1
    56    30    53    1
    57    30    54    1
    58    30    55    1
    59    31    56    1
    60    31    57    1
    61    31    58    1
@<TRIPOS>MOLECULE
*****
 31 33 0 0 0
SMALL
GASTEIGER

@<TRIPOS>ATOM
      1 O           1.4874    0.1989    1.3162 O.3     1  UNL1       -0.5060
      2 C           2.7083    0.1851    0.6977 C.ar    1  UNL1        0.1295
      3 C           3.4428    1.3752    0.6255 C.ar    1  UNL1        0.0230
      4 C           4.7348    1.3576    0.1033 C.ar    1  UNL1        0.1334
      5 O           5.4309    2.5280   -0.0083 O.3     1  UNL1       -0.5056
      6 C           5.3093    0.1530   -0.2940 C.ar    1  UNL1        0.0556
      7 C           4.5420   -1.0159   -0.2877 C.ar    1  UNL1       -0.0324
      8 C           3.2048   -1.0110    0.1541 C.ar    1  UNL1        0.0431
      9 C           2.4218   -2.2588    0.0238 C.ar    1  UNL1        0.0782
     10 C           2.9028   -3.5510    0.2008 C.ar    1  UNL1       -0.0158
     11 C           1.8091   -4.4018    0.0433 C.ar    1  UNL1        0.0504
     12 N           0.6861   -3.7354   -0.1806 N.ar    1  UNL1       -0.1742
     13 N           1.0627   -2.4193   -0.2842 N.ar    1  UNL1       -0.2292
     14 C           0.0448   -1.4942   -0.6588 C.ar    1  UNL1        0.1011
     15 C          -1.2890   -1.7857   -0.3124 C.ar    1  UNL1       -0.0334
     16 C          -2.3015   -0.8455   -0.5242 C.ar    1  UNL1       -0.0596
     17 C          -1.9991    0.3843   -1.1033 C.ar    1  UNL1       -0.0589
     18 C          -0.6961    0.6461   -1.5221 C.ar    1  UNL1       -0.0243
     19 C           0.3100   -0.3017   -1.3273 C.ar    1  UNL1        0.1487
     20 F           1.5176   -0.0341   -1.8454 F       1  UNL1       -0.2033
     21 I           7.2996    0.0280   -0.9206 I       1  UNL1       -0.0400
     22 H           1.2172    1.1157    1.4854 H       1  UNL1        0.2922
     23 H           3.0174    2.3051    0.9868 H       1  UNL1        0.0691
     24 H           4.8023    3.2662   -0.0599 H       1  UNL1        0.2922
     25 H           4.9867   -1.9406   -0.6465 H       1  UNL1        0.0637
     26 H           3.9175   -3.8374    0.4401 H       1  UNL1        0.0655
     27 H           1.7768   -5.4825    0.1021 H       1  UNL1        0.0848
     28 H          -1.5444   -2.7286    0.1678 H       1  UNL1        0.0640
     29 H          -3.3205   -1.0746   -0.2209 H       1  UNL1        0.0618
     30 H          -2.7820    1.1256   -1.2424 H       1  UNL1        0.0618
     31 H          -0.4562    1.5866   -2.0096 H       1  UNL1        0.0647
@<TRIPOS>BOND
     1     1     2    1
     2     2     3   ar
     3     3     4   ar
     4     4     5    1
     5     4     6   ar
     6     6     7   ar
     7     7     8   ar
     8     2     8   ar
     9     8     9    1
    10     9    10   ar
    11    10    11   ar
    12    11    12   ar
    13    12    13   ar
    14     9    13   ar
    15    13    14    1
    16    14    15   ar
    17    15    16   ar
    18    16    17   ar
    19    17    18   ar
    20    18    19   ar
    21    14    19   ar
    22    19    20    1
    23     6    21    1
    24     1    22    1
    25     3    23    1
    26     5    24    1
    27     7    25    1
    28    10    26    1
    29    11    27    1
    30    15    28    1
    31    16    29    1
    32    17    30    1
    33    18    31    1
@<TRIPOS>MOLECULE
*****
 40 42 0 0 0
SMALL
GASTEIGER

@<TRIPOS>ATOM
      1 C           0.3230   -0.1659   -0.7656 C.3     1  UNL1       -0.0611
      2 C           1.7336    0.0987   -0.2459 C.3     1  UNL1       -0.0271
      3 C           2.4235    1.0935   -1.1429 C.ar    1  UNL1       -0.0054
      4 C           2.3671    2.4666   -0.8500 C.ar    1  UNL1       -0.0424
      5 C           2.7832    3.4453   -1.7786 C.ar    1  UNL1        0.0446
      6 C           3.1771    2.9952   -3.0461 C.ar    1  UNL1        0.1296
      7 C           3.3703    1.6405   -3.3020 C.ar    1  UNL1        0.0222
      8 C           3.0008    0.6939   -2.3469 C.ar    1  UNL1        0.1235
      9 O           3.1628   -0.6361   -2.6040 O.3     1  UNL1       -0.5064
     10 O           3.3577    3.8101   -4.1312 O.3     1  UNL1       -0.5060
     11 C           2.7780    4.8622   -1.3641 C.ar    1  UNL1        0.1040
     12 N           1.8341    5.2739   -0.5001 N.ar    1  UNL1       -0.1729
     13 N           2.0436    6.5756   -0.3436 N.ar    1  UNL1       -0.2807
     14 H           1.4236    7.0851    0.2748 H       1  UNL1        0.1885
     15 C           3.0601    7.0761   -1.1071 C.ar    1  UNL1        0.0413
     16 C           3.6444    5.9738   -1.7230 C.ar    1  UNL1        0.0316
     17 C           4.7630    6.0349   -2.6802 C.ar    1  UNL1        0.0042
     18 C           4.7400    7.0224   -3.6838 C.ar    1  UNL1       -0.0525
     19 C           5.5717    6.9451   -4.8040 C.ar    1  UNL1       -0.0611
     20 C           6.4205    5.8575   -4.9622 C.ar    1  UNL1       -0.0603
     21 C           6.5294    4.9177   -3.9394 C.ar    1  UNL1       -0.0428
     22 C           5.7532    5.0370   -2.7760 C.ar    1  UNL1        0.0488
     23 CL          6.0914    3.9175   -1.4988 Cl      1  UNL1       -0.0829
     24 C           3.2968    8.5419   -1.1402 C.3     1  UNL1       -0.0223
     25 H          -0.1854   -0.9076   -0.1439 H       1  UNL1        0.0233
     26 H           0.3377   -0.5410   -1.7959 H       1  UNL1        0.0233
     27 H          -0.2771    0.7516   -0.7600 H       1  UNL1        0.0233
     28 H           2.3020   -0.8378   -0.2009 H       1  UNL1        0.0312
     29 H           1.6845    0.4803    0.7791 H       1  UNL1        0.0312
     30 H           1.9689    2.7819    0.1127 H       1  UNL1        0.0629
     31 H           3.7534    1.3332   -4.2712 H       1  UNL1        0.0691
     32 H           3.7434   -0.7321   -3.3764 H       1  UNL1        0.2921
     33 H           2.9369    4.6638   -3.9331 H       1  UNL1        0.2922
     34 H           4.0340    7.8453   -3.6448 H       1  UNL1        0.0624
     35 H           5.5155    7.7106   -5.5743 H       1  UNL1        0.0618
     36 H           6.9998    5.7442   -5.8750 H       1  UNL1        0.0618
     37 H           7.2028    4.0728   -4.0643 H       1  UNL1        0.0632
     38 H           2.7553    9.0523   -0.3358 H       1  UNL1        0.0292
     39 H           2.9256    8.9634   -2.0807 H       1  UNL1        0.0292
     40 H           4.3582    8.7806   -1.0387 H       1  UNL1        0.0292
@<TRIPOS>BOND
     1     1     2    1
     2     2     3    1
     3     3     4   ar
     4     4     5   ar
     5     5     6   ar
     6     6     7   ar
     7     7     8   ar
     8     3     8   ar
     9     8     9    1
    10     6    10    1
    11     5    11    1
    12    11    12   ar
    13    12    13   ar
    14    13    14    1
    15    13    15   ar
    16    15    16   ar
    17    11    16   ar
    18    16    17    1
    19    17    18   ar
    20    18    19   ar
    21    19    20   ar
    22    20    21   ar
    23    21    22   ar
    24    17    22   ar
    25    22    23    1
    26    15    24    1
    27     1    25    1
    28     1    26    1
    29     1    27    1
    30     2    28    1
    31     2    29    1
    32     4    30    1
    33     7    31    1
    34     9    32    1
    35    10    33    1
    36    18    34    1
    37    19    35    1
    38    20    36    1
    39    21    37    1
    40    24    38    1
    41    24    39    1
    42    24    40    1
@<TRIPOS>MOLECULE
*****
 46 49 0 0 0
SMALL
GASTEIGER

@<TRIPOS>ATOM
      1 C           6.5566    4.1858   -3.8103 C.3     1  UNL1       -0.0650
      2 C           7.7613    3.8562   -2.9362 C.3     1  UNL1       -0.0518
      3 C           7.3862    3.2212   -1.5869 C.3     1  UNL1       -0.0245
      4 C           6.6256    1.9227   -1.7315 C.ar    1  UNL1       -0.0051
      5 C           7.2049    0.8579   -2.4466 C.ar    1  UNL1       -0.0423
      6 C           6.4778   -0.3017   -2.7815 C.ar    1  UNL1        0.0446
      7 C           5.1585   -0.3987   -2.3183 C.ar    1  UNL1        0.1296
      8 C           4.6012    0.6066   -1.5238 C.ar    1  UNL1        0.0222
      9 C           5.3256    1.7646   -1.2513 C.ar    1  UNL1        0.1235
     10 O           4.7442    2.7795   -0.5486 O.3     1  UNL1       -0.5064
     11 O           4.2954   -1.4137   -2.6329 O.3     1  UNL1       -0.5060
     12 C           7.1205   -1.2721   -3.6790 C.ar    1  UNL1        0.1037
     13 N           7.8353   -0.8062   -4.7215 N.ar    1  UNL1       -0.1732
     14 N           8.2413   -1.8891   -5.3822 N.ar    1  UNL1       -0.2835
     15 H           8.7917   -1.7591   -6.2228 H       1  UNL1        0.1882
     16 C           7.8287   -3.0545   -4.8159 C.ar    1  UNL1        0.0306
     17 C           7.1123   -2.7092   -3.6847 C.ar    1  UNL1        0.0274
     18 C           6.5042   -3.7012   -2.8064 C.ar    1  UNL1       -0.0107
     19 C           6.3978   -3.4741   -1.4271 C.ar    1  UNL1       -0.0502
     20 C           5.7260   -4.3819   -0.6043 C.ar    1  UNL1       -0.0157
     21 C           5.1766   -5.5392   -1.1483 C.ar    1  UNL1        0.1621
     22 C           5.3308   -5.8090   -2.5096 C.ar    1  UNL1        0.1626
     23 C           5.9703   -4.8872   -3.3368 C.ar    1  UNL1       -0.0085
     24 O           4.8620   -6.9512   -3.1082 O.3     1  UNL1       -0.4849
     25 C           4.5387   -7.9492   -2.1331 C.3     1  UNL1        0.1237
     26 C           3.7259   -7.3414   -1.0018 C.3     1  UNL1        0.1237
     27 O           4.5039   -6.3707   -0.2902 O.3     1  UNL1       -0.4849
     28 H           6.8881    4.6398   -4.7498 H       1  UNL1        0.0230
     29 H           5.8886    4.8920   -3.3076 H       1  UNL1        0.0230
     30 H           5.9823    3.2902   -4.0661 H       1  UNL1        0.0230
     31 H           8.3204    4.7796   -2.7460 H       1  UNL1        0.0266
     32 H           8.4346    3.1970   -3.4964 H       1  UNL1        0.0266
     33 H           6.8150    3.9517   -1.0027 H       1  UNL1        0.0314
     34 H           8.3007    3.0248   -1.0136 H       1  UNL1        0.0314
     35 H           8.2260    0.9619   -2.8122 H       1  UNL1        0.0629
     36 H           3.5816    0.4873   -1.1711 H       1  UNL1        0.0691
     37 H           3.8138    2.5496   -0.3832 H       1  UNL1        0.2921
     38 H           4.6858   -1.9548   -3.3376 H       1  UNL1        0.2922
     39 H           8.0835   -4.0053   -5.2599 H       1  UNL1        0.0830
     40 H           6.8136   -2.5754   -0.9748 H       1  UNL1        0.0625
     41 H           5.6118   -4.1729    0.4558 H       1  UNL1        0.0655
     42 H           6.0362   -5.1054   -4.3989 H       1  UNL1        0.0661
     43 H           5.4721   -8.3935   -1.7640 H       1  UNL1        0.0731
     44 H           3.9642   -8.7323   -2.6374 H       1  UNL1        0.0731
     45 H           3.4295   -8.1169   -0.2891 H       1  UNL1        0.0731
     46 H           2.8166   -6.8558   -1.3777 H       1  UNL1        0.0731
@<TRIPOS>BOND
     1     1     2    1
     2     2     3    1
     3     3     4    1
     4     4     5   ar
     5     5     6   ar
     6     6     7   ar
     7     7     8   ar
     8     8     9   ar
     9     4     9   ar
    10     9    10    1
    11     7    11    1
    12     6    12    1
    13    12    13   ar
    14    13    14   ar
    15    14    15    1
    16    14    16   ar
    17    16    17   ar
    18    12    17   ar
    19    17    18    1
    20    18    19   ar
    21    19    20   ar
    22    20    21   ar
    23    21    22   ar
    24    22    23   ar
    25    18    23   ar
    26    22    24    1
    27    24    25    1
    28    25    26    1
    29    26    27    1
    30    21    27    1
    31     1    28    1
    32     1    29    1
    33     1    30    1
    34     2    31    1
    35     2    32    1
    36     3    33    1
    37     3    34    1
    38     5    35    1
    39     8    36    1
    40    10    37    1
    41    11    38    1
    42    16    39    1
    43    19    40    1
    44    20    41    1
    45    23    42    1
    46    25    43    1
    47    25    44    1
    48    26    45    1
    49    26    46    1
@<TRIPOS>MOLECULE
*****
 34 36 0 0 0
SMALL
GASTEIGER

@<TRIPOS>ATOM
      1 O           2.0564    0.4076    2.8502 O.3     1  UNL1       -0.5066
      2 C           3.1010    0.2228    1.9946 C.ar    1  UNL1        0.1204
      3 C           3.7656   -0.9946    1.9247 C.ar    1  UNL1       -0.0193
      4 C           4.8939   -1.1203    1.1062 C.ar    1  UNL1       -0.0441
      5 C           5.3476   -0.0414    0.3321 C.ar    1  UNL1        0.0612
      6 C           4.6245    1.1648    0.3880 C.ar    1  UNL1        0.1310
      7 C           3.5073    1.2969    1.2148 C.ar    1  UNL1        0.0220
      8 O           4.9717    2.2840   -0.3244 O.3     1  UNL1       -0.5059
      9 C           6.6638   -0.0789   -0.3643 C.ar    1  UNL1        0.1727
     10 N           7.3658    1.0201   -0.5010 N.ar    1  UNL1       -0.1507
     11 N           8.5712    0.5984   -0.9781 N.ar    1  UNL1       -0.2260
     12 H           9.3766    1.2059   -1.0562 H       1  UNL1        0.1937
     13 C           8.6008   -0.7880   -1.1012 C.ar    1  UNL1        0.3489
     14 O           9.5828   -1.4437   -1.4104 O.2     1  UNL1       -0.2446
     15 N           7.3225   -1.2026   -0.7975 N.ar    1  UNL1       -0.2434
     16 C           6.8905   -2.5381   -0.8899 C.ar    1  UNL1        0.0558
     17 C           7.6037   -3.5197   -0.1888 C.ar    1  UNL1       -0.0374
     18 C           7.1381   -4.8348   -0.1322 C.ar    1  UNL1       -0.0598
     19 C           5.9669   -5.1830   -0.7950 C.ar    1  UNL1       -0.0614
     20 C           5.2899   -4.2314   -1.5610 C.ar    1  UNL1       -0.0569
     21 C           5.7498   -2.9026   -1.6339 C.ar    1  UNL1       -0.0264
     22 C           5.1276   -1.9961   -2.6625 C.3     1  UNL1       -0.0377
     23 H           2.0024   -0.3560    3.4488 H       1  UNL1        0.2921
     24 H           3.4456   -1.8451    2.5194 H       1  UNL1        0.0654
     25 H           5.4258   -2.0640    1.1425 H       1  UNL1        0.0627
     26 H           2.9851    2.2472    1.2807 H       1  UNL1        0.0691
     27 H           5.8804    2.1587   -0.6693 H       1  UNL1        0.2922
     28 H           8.5110   -3.2628    0.3549 H       1  UNL1        0.0638
     29 H           7.6894   -5.5822    0.4339 H       1  UNL1        0.0618
     30 H           5.5959   -6.2038   -0.7451 H       1  UNL1        0.0618
     31 H           4.4113   -4.5417   -2.1234 H       1  UNL1        0.0621
     32 H           4.1199   -2.3306   -2.9283 H       1  UNL1        0.0278
     33 H           5.7428   -2.0186   -3.5689 H       1  UNL1        0.0278
     34 H           5.0441   -0.9640   -2.3237 H       1  UNL1        0.0278
@<TRIPOS>BOND
     1     1     2    1
     2     2     3   ar
     3     3     4   ar
     4     4     5   ar
     5     5     6   ar
     6     6     7   ar
     7     2     7   ar
     8     6     8    1
     9     5     9    1
    10     9    10   ar
    11    10    11   ar
    12    11    12    1
    13    11    13   ar
    14    13    14    2
    15    13    15   ar
    16     9    15   ar
    17    15    16    1
    18    16    17   ar
    19    17    18   ar
    20    18    19   ar
    21    19    20   ar
    22    20    21   ar
    23    16    21   ar
    24    21    22    1
    25     1    23    1
    26     3    24    1
    27     4    25    1
    28     7    26    1
    29     8    27    1
    30    17    28    1
    31    18    29    1
    32    19    30    1
    33    20    31    1
    34    22    32    1
    35    22    33    1
    36    22    34    1
@<TRIPOS>MOLECULE
*****
 37 39 0 0 0
SMALL
GASTEIGER

@<TRIPOS>ATOM
      1 C           0.2335   -1.7951   -2.0976 C.3     1  UNL1       -0.0612
      2 C           1.1672   -0.7387   -1.5201 C.3     1  UNL1       -0.0286
      3 C           2.5822   -1.2658   -1.6060 C.ar    1  UNL1       -0.0236
      4 C           3.2128   -0.9862   -2.8517 C.ar    1  UNL1       -0.0566
      5 C           4.2135   -1.8029   -3.3602 C.ar    1  UNL1       -0.0614
      6 C           4.6447   -2.8739   -2.6044 C.ar    1  UNL1       -0.0598
      7 C           4.1382   -3.0600   -1.3127 C.ar    1  UNL1       -0.0374
      8 C           3.1053   -2.2643   -0.7554 C.ar    1  UNL1        0.0561
      9 N           2.6379   -2.6078    0.5570 N.ar    1  UNL1       -0.2433
     10 C           2.6581   -3.9274    1.0068 C.ar    1  UNL1        0.3489
     11 O           2.9530   -4.9656    0.4332 O.2     1  UNL1       -0.2446
     12 N           2.1715   -3.9070    2.3013 N.ar    1  UNL1       -0.2260
     13 H           1.9916   -4.7276    2.8636 H       1  UNL1        0.1937
     14 N           1.7861   -2.6697    2.6511 N.ar    1  UNL1       -0.1507
     15 C           2.0742   -1.9150    1.6189 C.ar    1  UNL1        0.1727
     16 C           1.7189   -0.4807    1.7214 C.ar    1  UNL1        0.0612
     17 C           0.4878   -0.2042    2.3593 C.ar    1  UNL1       -0.0441
     18 C          -0.0573    1.0780    2.3515 C.ar    1  UNL1       -0.0193
     19 C           0.6345    2.0893    1.6997 C.ar    1  UNL1        0.1204
     20 C           1.9124    1.8710    1.1943 C.ar    1  UNL1        0.0220
     21 C           2.4686    0.5855    1.2309 C.ar    1  UNL1        0.1310
     22 O           3.7415    0.3845    0.7878 O.3     1  UNL1       -0.5059
     23 O           0.0726    3.3200    1.5339 O.3     1  UNL1       -0.5066
     24 H          -0.7968   -1.4328   -2.0962 H       1  UNL1        0.0233
     25 H           0.2781   -2.7143   -1.5034 H       1  UNL1        0.0233
     26 H           0.5114   -2.0537   -3.1256 H       1  UNL1        0.0233
     27 H           0.8441   -0.5035   -0.5167 H       1  UNL1        0.0311
     28 H           1.0752    0.1957   -2.0897 H       1  UNL1        0.0311
     29 H           2.8261   -0.1959   -3.4943 H       1  UNL1        0.0621
     30 H           4.6002   -1.6435   -4.3629 H       1  UNL1        0.0618
     31 H           5.3678   -3.5774   -3.0087 H       1  UNL1        0.0618
     32 H           4.5708   -3.8879   -0.7545 H       1  UNL1        0.0638
     33 H          -0.0684   -1.0030    2.8473 H       1  UNL1        0.0627
     34 H          -1.0134    1.2588    2.8321 H       1  UNL1        0.0654
     35 H           2.4437    2.7004    0.7371 H       1  UNL1        0.0691
     36 H           4.1585    1.2438    0.6064 H       1  UNL1        0.2922
     37 H          -0.8929    3.2222    1.6081 H       1  UNL1        0.2921
@<TRIPOS>BOND
     1     1     2    1
     2     2     3    1
     3     3     4   ar
     4     4     5   ar
     5     5     6   ar
     6     6     7   ar
     7     7     8   ar
     8     3     8   ar
     9     8     9    1
    10     9    10   ar
    11    10    11    2
    12    10    12   ar
    13    12    13    1
    14    12    14   ar
    15    14    15   ar
    16     9    15   ar
    17    15    16    1
    18    16    17   ar
    19    17    18   ar
    20    18    19   ar
    21    19    20   ar
    22    20    21   ar
    23    16    21   ar
    24    21    22    1
    25    19    23    1
    26     1    24    1
    27     1    25    1
    28     1    26    1
    29     2    27    1
    30     2    28    1
    31     4    29    1
    32     5    30    1
    33     6    31    1
    34     7    32    1
    35    17    33    1
    36    18    34    1
    37    20    35    1
    38    22    36    1
    39    23    37    1
@<TRIPOS>MOLECULE
*****
 31 33 0 0 0
SMALL
GASTEIGER

@<TRIPOS>ATOM
      1 O           1.1143    0.2187    0.4949 O.3     1  UNL1       -0.5066
      2 C           2.4680    0.1570    0.3558 C.ar    1  UNL1        0.1204
      3 C           3.1942    1.2322   -0.1365 C.ar    1  UNL1       -0.0193
      4 C           4.5714    1.0918   -0.3373 C.ar    1  UNL1       -0.0441
      5 C           5.2355   -0.1123   -0.0282 C.ar    1  UNL1        0.0612
      6 C           4.4979   -1.1228    0.5967 C.ar    1  UNL1        0.1310
      7 C           3.1110   -1.0119    0.7381 C.ar    1  UNL1        0.0220
      8 O           5.0340   -2.2479    1.1549 O.3     1  UNL1       -0.5059
      9 C           6.6738   -0.1754   -0.4157 C.ar    1  UNL1        0.1727
     10 N           7.4124    0.9063   -0.3998 N.ar    1  UNL1       -0.1507
     11 N           8.6568    0.4785   -0.7582 N.ar    1  UNL1       -0.2260
     12 H           9.4423    1.1038   -0.8692 H       1  UNL1        0.1937
     13 C           8.6644   -0.8890   -0.9938 C.ar    1  UNL1        0.3490
     14 O           9.6399   -1.5377   -1.3369 O.2     1  UNL1       -0.2446
     15 N           7.3630   -1.3037   -0.7844 N.ar    1  UNL1       -0.2422
     16 C           6.9456   -2.6358   -0.9754 C.ar    1  UNL1        0.0712
     17 C           7.6333   -3.6349   -0.2640 C.ar    1  UNL1       -0.0362
     18 C           7.1468   -4.9413   -0.2246 C.ar    1  UNL1       -0.0597
     19 C           5.9955   -5.2754   -0.9306 C.ar    1  UNL1       -0.0603
     20 C           5.3620   -4.3164   -1.7177 C.ar    1  UNL1       -0.0414
     21 C           5.8362   -2.9999   -1.7520 C.ar    1  UNL1        0.0649
     22 CL          5.0804   -1.9013   -2.8545 Cl      1  UNL1       -0.0814
     23 H           0.7930    1.0263    0.0608 H       1  UNL1        0.2921
     24 H           2.7135    2.1754   -0.3784 H       1  UNL1        0.0654
     25 H           5.1238    1.9356   -0.7497 H       1  UNL1        0.0627
     26 H           2.5371   -1.8328    1.1611 H       1  UNL1        0.0691
     27 H           5.9704   -2.0887    1.3573 H       1  UNL1        0.2922
     28 H           8.5204   -3.3908    0.3179 H       1  UNL1        0.0639
     29 H           7.6553   -5.6911    0.3772 H       1  UNL1        0.0618
     30 H           5.5978   -6.2854   -0.8768 H       1  UNL1        0.0618
     31 H           4.4849   -4.5958   -2.2994 H       1  UNL1        0.0633
@<TRIPOS>BOND
     1     1     2    1
     2     2     3   ar
     3     3     4   ar
     4     4     5   ar
     5     5     6   ar
     6     6     7   ar
     7     2     7   ar
     8     6     8    1
     9     5     9    1
    10     9    10   ar
    11    10    11   ar
    12    11    12    1
    13    11    13   ar
    14    13    14    2
    15    13    15   ar
    16     9    15   ar
    17    15    16    1
    18    16    17   ar
    19    17    18   ar
    20    18    19   ar
    21    19    20   ar
    22    20    21   ar
    23    16    21   ar
    24    21    22    1
    25     1    23    1
    26     3    24    1
    27     4    25    1
    28     7    26    1
    29     8    27    1
    30    17    28    1
    31    18    29    1
    32    19    30    1
    33    20    31    1
@<TRIPOS>MOLECULE
*****
 46 49 0 0 0
SMALL
GASTEIGER

@<TRIPOS>ATOM
      1 C           0.9607   -0.8620    1.5233 C.3     1  UNL1       -0.0307
      2 C           2.4358   -0.5233    1.3983 C.3     1  UNL1        0.0868
      3 O           3.1166   -1.6675    0.8787 O.3     1  UNL1       -0.4922
      4 C           4.4850   -1.6441    0.9519 C.ar    1  UNL1        0.1208
      5 C           5.1161   -2.8916    0.7894 C.ar    1  UNL1       -0.0196
      6 C           6.5125   -3.0196    0.8425 C.ar    1  UNL1       -0.0533
      7 C           7.2675   -1.8747    1.0158 C.ar    1  UNL1       -0.0252
      8 C           6.6392   -0.6325    1.1366 C.ar    1  UNL1       -0.0220
      9 C           5.2580   -0.4982    1.1293 C.ar    1  UNL1       -0.0150
     10 C           7.6558    0.4544    1.1782 C.3     1  UNL1        0.0408
     11 N           8.9334   -0.2472    1.0979 N.am    1  UNL1       -0.2876
     12 C           8.7628   -1.7049    1.0494 C.3     1  UNL1        0.0407
     13 C          10.0856    0.5273    1.0238 C.2     1  UNL1        0.2663
     14 O           9.9471    1.7523    1.0639 O.2     1  UNL1       -0.2683
     15 C          11.4735   -0.0723    0.9229 C.ar    1  UNL1        0.1383
     16 N          11.5473   -1.4255    0.9648 N.ar    1  UNL1       -0.2094
     17 C          12.7677   -1.9477    1.0275 C.ar    1  UNL1        0.2138
     18 N          12.8862   -3.3215    1.0054 N.pl3   1  UNL1       -0.3274
     19 N          13.8994   -1.2570    1.0682 N.ar    1  UNL1       -0.2146
     20 C          13.8278    0.0758    1.0190 C.ar    1  UNL1        0.0768
     21 C          12.6200    0.7627    0.8916 C.ar    1  UNL1        0.0313
     22 C          12.6709    2.1821    0.7749 C.ar    1  UNL1       -0.0474
     23 C          13.8594    2.9026    0.9301 C.ar    1  UNL1       -0.0497
     24 C          13.8350    4.3987    0.9674 C.3     1  UNL1       -0.0397
     25 C          15.0412    2.1937    1.1033 C.ar    1  UNL1       -0.0568
     26 C          15.0147    0.7970    1.1219 C.ar    1  UNL1       -0.0353
     27 H           0.4113   -0.0391    1.9900 H       1  UNL1        0.0262
     28 H           0.8225   -1.7662    2.1252 H       1  UNL1        0.0262
     29 H           0.5240   -1.0619    0.5394 H       1  UNL1        0.0262
     30 H           2.8206   -0.2652    2.3919 H       1  UNL1        0.0694
     31 H           2.5539    0.3290    0.7187 H       1  UNL1        0.0694
     32 H           4.5035   -3.7736    0.6148 H       1  UNL1        0.0654
     33 H           6.9778   -3.9920    0.7205 H       1  UNL1        0.0622
     34 H           4.8213    0.4890    1.2218 H       1  UNL1        0.0657
     35 H           7.6076    1.0395    2.1011 H       1  UNL1        0.0514
     36 H           7.5561    1.1055    0.3027 H       1  UNL1        0.0514
     37 H           9.1938   -2.1494    1.9519 H       1  UNL1        0.0514
     38 H           9.2244   -2.0974    0.1423 H       1  UNL1        0.0514
     39 H          12.1146   -3.7375    0.5077 H       1  UNL1        0.1452
     40 H          13.8179   -3.5673    0.6904 H       1  UNL1        0.1452
     41 H          11.7696    2.7540    0.5788 H       1  UNL1        0.0627
     42 H          12.8103    4.7838    0.8811 H       1  UNL1        0.0278
     43 H          14.4257    4.8216    0.1507 H       1  UNL1        0.0278
     44 H          14.2311    4.7487    1.9271 H       1  UNL1        0.0278
     45 H          15.9866    2.7169    1.2328 H       1  UNL1        0.0621
     46 H          15.9494    0.2551    1.2533 H       1  UNL1        0.0639
@<TRIPOS>BOND
     1     1     2    1
     2     2     3    1
     3     3     4    1
     4     4     5   ar
     5     5     6   ar
     6     6     7   ar
     7     7     8   ar
     8     8     9   ar
     9     4     9   ar
    10     8    10    1
    11    10    11    1
    12    11    12    1
    13     7    12    1
    14    11    13   am
    15    13    14    2
    16    13    15    1
    17    15    16   ar
    18    16    17   ar
    19    17    18    1
    20    17    19   ar
    21    19    20   ar
    22    20    21   ar
    23    15    21   ar
    24    21    22   ar
    25    22    23   ar
    26    23    24    1
    27    23    25   ar
    28    25    26   ar
    29    20    26   ar
    30     1    27    1
    31     1    28    1
    32     1    29    1
    33     2    30    1
    34     2    31    1
    35     5    32    1
    36     6    33    1
    37     9    34    1
    38    10    35    1
    39    10    36    1
    40    12    37    1
    41    12    38    1
    42    18    39    1
    43    18    40    1
    44    22    41    1
    45    24    42    1
    46    24    43    1
    47    24    44    1
    48    25    45    1
    49    26    46    1
@<TRIPOS>MOLECULE
*****
 39 42 0 0 0
SMALL
GASTEIGER

@<TRIPOS>ATOM
      1 BR         13.9092   -2.2118    0.6081 Br      1  UNL1       -0.0503
      2 C          13.0287   -0.5427    0.4850 C.ar    1  UNL1        0.0182
      3 C          13.7810    0.6459    0.5299 C.ar    1  UNL1       -0.0474
      4 C          13.1425    1.8906    0.4672 C.ar    1  UNL1       -0.0557
      5 C          11.7607    1.9289    0.3556 C.ar    1  UNL1       -0.0253
      6 C          11.0260    0.7386    0.2994 C.ar    1  UNL1       -0.0244
      7 C          11.6418   -0.5033    0.3546 C.ar    1  UNL1       -0.0428
      8 C           9.5696    1.0426    0.2180 C.3     1  UNL1        0.0408
      9 N           9.5039    2.5067    0.2357 N.am    1  UNL1       -0.2876
     10 C          10.8353    3.1154    0.2955 C.3     1  UNL1        0.0407
     11 C           8.2454    3.0992    0.2312 C.2     1  UNL1        0.2663
     12 O           7.2680    2.3464    0.1899 O.2     1  UNL1       -0.2683
     13 C           8.0296    4.6100    0.2376 C.ar    1  UNL1        0.1383
     14 N           9.1451    5.3793    0.2122 N.ar    1  UNL1       -0.2094
     15 C           8.9487    6.6915    0.0961 C.ar    1  UNL1        0.2138
     16 N          10.0369    7.5293    0.1622 N.pl3   1  UNL1       -0.3274
     17 N           7.7731    7.2786   -0.1162 N.ar    1  UNL1       -0.2146
     18 C           6.6788    6.5182   -0.1010 C.ar    1  UNL1        0.0768
     19 C           6.7195    5.1474    0.1565 C.ar    1  UNL1        0.0313
     20 C           5.4760    4.4624    0.2720 C.ar    1  UNL1       -0.0474
     21 C           4.2549    5.0713   -0.0309 C.ar    1  UNL1       -0.0497
     22 C           2.9982    4.2556   -0.0737 C.3     1  UNL1       -0.0397
     23 C           4.2520    6.4178   -0.3672 C.ar    1  UNL1       -0.0568
     24 C           5.4550    7.1283   -0.3698 C.ar    1  UNL1       -0.0353
     25 H          14.8627    0.6010    0.6453 H       1  UNL1        0.0629
     26 H          13.7272    2.8046    0.5162 H       1  UNL1        0.0621
     27 H          11.0553   -1.4168    0.3139 H       1  UNL1        0.0632
     28 H           9.0352    0.6483    1.0884 H       1  UNL1        0.0514
     29 H           9.1257    0.6657   -0.7091 H       1  UNL1        0.0514
     30 H          10.9174    3.7259    1.1998 H       1  UNL1        0.0514
     31 H          11.0075    3.7045   -0.6092 H       1  UNL1        0.0514
     32 H          10.8774    7.0762   -0.1658 H       1  UNL1        0.1452
     33 H           9.8051    8.4285   -0.2413 H       1  UNL1        0.1452
     34 H           5.4488    3.4247    0.5941 H       1  UNL1        0.0627
     35 H           3.1754    3.2345    0.2816 H       1  UNL1        0.0278
     36 H           2.6421    4.1878   -1.1070 H       1  UNL1        0.0278
     37 H           2.2207    4.6999    0.5535 H       1  UNL1        0.0278
     38 H           3.3266    6.9225   -0.6369 H       1  UNL1        0.0621
     39 H           5.4384    8.1889   -0.6158 H       1  UNL1        0.0639
@<TRIPOS>BOND
     1     1     2    1
     2     2     3   ar
     3     3     4   ar
     4     4     5   ar
     5     5     6   ar
     6     6     7   ar
     7     2     7   ar
     8     6     8    1
     9     8     9    1
    10     9    10    1
    11     5    10    1
    12     9    11   am
    13    11    12    2
    14    11    13    1
    15    13    14   ar
    16    14    15   ar
    17    15    16    1
    18    15    17   ar
    19    17    18   ar
    20    18    19   ar
    21    13    19   ar
    22    19    20   ar
    23    20    21   ar
    24    21    22    1
    25    21    23   ar
    26    23    24   ar
    27    18    24   ar
    28     3    25    1
    29     4    26    1
    30     7    27    1
    31     8    28    1
    32     8    29    1
    33    10    30    1
    34    10    31    1
    35    16    32    1
    36    16    33    1
    37    20    34    1
    38    22    35    1
    39    22    36    1
    40    22    37    1
    41    23    38    1
    42    24    39    1
@<TRIPOS>MOLECULE
*****
 48 50 0 0 0
SMALL
GASTEIGER

@<TRIPOS>ATOM
      1 C           1.1752   -1.4933   -2.4528 C.3     1  UNL1       -0.0481
      2 C           2.2715   -0.8216   -1.6089 C.3     1  UNL1        0.0259
      3 N           3.5823   -1.6014   -1.6774 N.3     1  UNL1       -0.1770
      4 S           4.9284   -1.0037   -0.7349 S.O2    1  UNL1        0.0643
      5 O           4.3877   -0.7169    0.5802 O.2     1  UNL1       -0.1527
      6 O           6.0533   -1.9159   -0.8665 O.2     1  UNL1       -0.1527
      7 C           5.4064    0.5334   -1.4694 C.ar    1  UNL1        0.1475
      8 C           5.2366    1.7002   -0.7112 C.ar    1  UNL1       -0.0175
      9 C           5.3562    2.9536   -1.3142 C.ar    1  UNL1        0.0631
     10 C           5.6146    3.0135   -2.6862 C.ar    1  UNL1        0.1311
     11 C           5.9275    1.8584   -3.4094 C.ar    1  UNL1        0.0240
     12 C           5.8421    0.6114   -2.7905 C.ar    1  UNL1        0.1466
     13 O           6.1385   -0.5066   -3.5056 O.3     1  UNL1       -0.5047
     14 O           5.5394    4.1764   -3.4068 O.3     1  UNL1       -0.5059
     15 C           5.1008    4.1980   -0.5543 C.ar    1  UNL1        0.1728
     16 N           4.4596    5.2001   -1.0971 N.ar    1  UNL1       -0.1507
     17 N           4.3674    6.1179   -0.0882 N.ar    1  UNL1       -0.2260
     18 H           3.9606    7.0353   -0.2108 H       1  UNL1        0.1937
     19 C           5.0155    5.6702    1.0612 C.ar    1  UNL1        0.3490
     20 O           5.2001    6.3469    2.0656 O.2     1  UNL1       -0.2446
     21 N           5.4613    4.4030    0.7551 N.ar    1  UNL1       -0.2422
     22 C           6.2406    3.5828    1.5961 C.ar    1  UNL1        0.0712
     23 C           7.4342    3.0386    1.0899 C.ar    1  UNL1       -0.0362
     24 C           8.0837    1.9970    1.7531 C.ar    1  UNL1       -0.0597
     25 C           7.5557    1.4981    2.9391 C.ar    1  UNL1       -0.0603
     26 C           6.4248    2.0909    3.5022 C.ar    1  UNL1       -0.0414
     27 C           5.7776    3.1474    2.8511 C.ar    1  UNL1        0.0649
     28 CL          4.3205    3.7293    3.5765 Cl      1  UNL1       -0.0814
     29 C           3.3763   -3.0455   -1.3371 C.3     1  UNL1        0.0092
     30 C           2.3879    0.6025   -2.1468 C.3     1  UNL1       -0.0481
     31 H           0.8749   -2.4617   -2.0447 H       1  UNL1        0.0245
     32 H           1.5057   -1.6395   -3.4895 H       1  UNL1        0.0245
     33 H           0.2674   -0.8798   -2.4731 H       1  UNL1        0.0245
     34 H           1.9307   -0.7907   -0.5685 H       1  UNL1        0.0474
     35 H           4.9200    1.6161    0.3274 H       1  UNL1        0.0646
     36 H           6.1674    1.9447   -4.4655 H       1  UNL1        0.0691
     37 H           6.6915   -0.2689   -4.2694 H       1  UNL1        0.2922
     38 H           5.0002    4.8137   -2.8885 H       1  UNL1        0.2922
     39 H           7.8537    3.4001    0.1523 H       1  UNL1        0.0639
     40 H           8.9787    1.5527    1.3260 H       1  UNL1        0.0618
     41 H           8.0191    0.6407    3.4245 H       1  UNL1        0.0618
     42 H           6.0233    1.6903    4.4301 H       1  UNL1        0.0633
     43 H           2.6973   -3.5246   -2.0435 H       1  UNL1        0.0408
     44 H           2.9704   -3.1452   -0.3224 H       1  UNL1        0.0408
     45 H           4.3101   -3.6046   -1.4107 H       1  UNL1        0.0408
     46 H           2.9305    0.6361   -3.0994 H       1  UNL1        0.0245
     47 H           2.8698    1.2568   -1.4247 H       1  UNL1        0.0245
     48 H           1.4042    1.0523   -2.3143 H       1  UNL1        0.0245
@<TRIPOS>BOND
     1     1     2    1
     2     2     3    1
     3     3     4    1
     4     4     5    2
     5     4     6    2
     6     4     7    1
     7     7     8   ar
     8     8     9   ar
     9     9    10   ar
    10    10    11   ar
    11    11    12   ar
    12     7    12   ar
    13    12    13    1
    14    10    14    1
    15     9    15    1
    16    15    16   ar
    17    16    17   ar
    18    17    18    1
    19    17    19   ar
    20    19    20    2
    21    19    21   ar
    22    15    21   ar
    23    21    22    1
    24    22    23   ar
    25    23    24   ar
    26    24    25   ar
    27    25    26   ar
    28    26    27   ar
    29    22    27   ar
    30    27    28    1
    31     3    29    1
    32     2    30    1
    33     1    31    1
    34     1    32    1
    35     1    33    1
    36     2    34    1
    37     8    35    1
    38    11    36    1
    39    13    37    1
    40    14    38    1
    41    23    39    1
    42    24    40    1
    43    25    41    1
    44    26    42    1
    45    29    43    1
    46    29    44    1
    47    29    45    1
    48    30    46    1
    49    30    47    1
    50    30    48    1
@<TRIPOS>MOLECULE
*****
 43 46 0 0 0
SMALL
GASTEIGER

@<TRIPOS>ATOM
      1 C           2.4557   -0.3852   -0.9440 C.3     1  UNL1        0.0788
      2 O           3.1095   -0.3397    0.3220 O.3     1  UNL1       -0.4951
      3 C           3.5237    0.8989    0.7381 C.ar    1  UNL1        0.1204
      4 C           4.4505    0.9094    1.7921 C.ar    1  UNL1       -0.0196
      5 C           4.9277    2.1258    2.3349 C.ar    1  UNL1       -0.0533
      6 C           4.4349    3.3099    1.8271 C.ar    1  UNL1       -0.0252
      7 C           3.4988    3.2791    0.7930 C.ar    1  UNL1       -0.0220
      8 C           3.0526    2.1002    0.2243 C.ar    1  UNL1       -0.0150
      9 C           3.0208    4.6463    0.4680 C.3     1  UNL1        0.0408
     10 N           3.7672    5.5044    1.3712 N.am    1  UNL1       -0.2876
     11 C           4.6867    4.7342    2.2272 C.3     1  UNL1        0.0407
     12 C           3.5667    6.8689    1.5628 C.2     1  UNL1        0.2663
     13 O           4.2510    7.4552    2.4026 O.2     1  UNL1       -0.2683
     14 C           2.4579    7.6073    0.7883 C.ar    1  UNL1        0.1383
     15 N           1.8532    6.9041   -0.2009 N.ar    1  UNL1       -0.2094
     16 C           0.7692    7.4318   -0.7560 C.ar    1  UNL1        0.2138
     17 N           0.1737    6.7526   -1.7949 N.pl3   1  UNL1       -0.3274
     18 N           0.1803    8.5482   -0.3477 N.ar    1  UNL1       -0.2146
     19 C           0.7885    9.2564    0.6070 C.ar    1  UNL1        0.0768
     20 C           2.0072    8.8789    1.1828 C.ar    1  UNL1        0.0313
     21 C           2.6240    9.7700    2.0987 C.ar    1  UNL1       -0.0474
     22 C           1.9822   10.9291    2.5394 C.ar    1  UNL1       -0.0497
     23 C           2.6082   11.7826    3.5990 C.3     1  UNL1       -0.0397
     24 C           0.7254   11.2310    2.0271 C.ar    1  UNL1       -0.0568
     25 C           0.1582   10.4100    1.0515 C.ar    1  UNL1       -0.0353
     26 H           2.1618   -1.4208   -1.1371 H       1  UNL1        0.0660
     27 H           3.1426   -0.0721   -1.7378 H       1  UNL1        0.0660
     28 H           1.5385    0.2140   -0.9605 H       1  UNL1        0.0660
     29 H           4.8028   -0.0313    2.2079 H       1  UNL1        0.0654
     30 H           5.6466    2.1101    3.1536 H       1  UNL1        0.0622
     31 H           2.3201    2.1538   -0.5708 H       1  UNL1        0.0657
     32 H           1.9553    4.7084    0.7029 H       1  UNL1        0.0514
     33 H           3.2474    4.9101   -0.5684 H       1  UNL1        0.0514
     34 H           4.4399    4.9068    3.2797 H       1  UNL1        0.0514
     35 H           5.7165    5.0429    2.0189 H       1  UNL1        0.0514
     36 H           0.3562    5.7622   -1.7553 H       1  UNL1        0.1452
     37 H          -0.7859    7.0509   -1.9059 H       1  UNL1        0.1452
     38 H           3.6227    9.5646    2.4768 H       1  UNL1        0.0627
     39 H           3.6301   11.4562    3.8205 H       1  UNL1        0.0278
     40 H           2.0245   11.7056    4.5214 H       1  UNL1        0.0278
     41 H           2.6525   12.8272    3.2786 H       1  UNL1        0.0278
     42 H           0.1787   12.1038    2.3764 H       1  UNL1        0.0621
     43 H          -0.8172   10.6674    0.6434 H       1  UNL1        0.0639
@<TRIPOS>BOND
     1     1     2    1
     2     2     3    1
     3     3     4   ar
     4     4     5   ar
     5     5     6   ar
     6     6     7   ar
     7     7     8   ar
     8     3     8   ar
     9     7     9    1
    10     9    10    1
    11    10    11    1
    12     6    11    1
    13    10    12   am
    14    12    13    2
    15    12    14    1
    16    14    15   ar
    17    15    16   ar
    18    16    17    1
    19    16    18   ar
    20    18    19   ar
    21    19    20   ar
    22    14    20   ar
    23    20    21   ar
    24    21    22   ar
    25    22    23    1
    26    22    24   ar
    27    24    25   ar
    28    19    25   ar
    29     1    26    1
    30     1    27    1
    31     1    28    1
    32     4    29    1
    33     5    30    1
    34     8    31    1
    35     9    32    1
    36     9    33    1
    37    11    34    1
    38    11    35    1
    39    17    36    1
    40    17    37    1
    41    21    38    1
    42    23    39    1
    43    23    40    1
    44    23    41    1
    45    24    42    1
    46    25    43    1
@<TRIPOS>MOLECULE
*****
 40 43 0 0 0
SMALL
GASTEIGER

@<TRIPOS>ATOM
      1 O           4.5259   -3.5917   -0.9851 O.3     1  UNL1       -0.5068
      2 C           4.5758   -2.2334   -0.8579 C.ar    1  UNL1        0.1172
      3 C           3.4394   -1.4366   -1.0444 C.ar    1  UNL1       -0.0199
      4 C           3.5256   -0.0395   -0.9176 C.ar    1  UNL1       -0.0533
      5 C           4.7542    0.5310   -0.6175 C.ar    1  UNL1       -0.0252
      6 C           5.8776   -0.2845   -0.4367 C.ar    1  UNL1       -0.0220
      7 C           5.8050   -1.6663   -0.5455 C.ar    1  UNL1       -0.0152
      8 C           7.0793    0.5508   -0.1625 C.3     1  UNL1        0.0408
      9 N           6.5824    1.9293   -0.1964 N.am    1  UNL1       -0.2876
     10 C           5.1388    1.9819   -0.4579 C.3     1  UNL1        0.0407
     11 C           7.5129    2.9507   -0.0195 C.2     1  UNL1        0.2663
     12 O           8.6849    2.6148    0.1741 O.2     1  UNL1       -0.2683
     13 C           7.1567    4.4377   -0.0139 C.ar    1  UNL1        0.1383
     14 N           5.8408    4.7438   -0.1334 N.ar    1  UNL1       -0.2094
     15 C           5.5351    6.0363    0.0006 C.ar    1  UNL1        0.2138
     16 N           4.2325    6.4326   -0.2120 N.pl3   1  UNL1       -0.3274
     17 N           6.3806    7.0002    0.3558 N.ar    1  UNL1       -0.2146
     18 C           7.6727    6.6912    0.4831 C.ar    1  UNL1        0.0768
     19 C           8.1624    5.4078    0.2246 C.ar    1  UNL1        0.0313
     20 C           9.5777    5.2313    0.2711 C.ar    1  UNL1       -0.0474
     21 C          10.4477    6.2259    0.7256 C.ar    1  UNL1       -0.0497
     22 C          11.9015    5.9186    0.9200 C.3     1  UNL1       -0.0397
     23 C           9.9189    7.4655    1.0588 C.ar    1  UNL1       -0.0568
     24 C           8.5482    7.6922    0.9049 C.ar    1  UNL1       -0.0353
     25 H           3.6237   -3.8535   -1.2303 H       1  UNL1        0.2921
     26 H           2.4843   -1.8887   -1.2953 H       1  UNL1        0.0654
     27 H           2.6429    0.5748   -1.0668 H       1  UNL1        0.0622
     28 H           6.6807   -2.2915   -0.4064 H       1  UNL1        0.0657
     29 H           7.8342    0.4211   -0.9452 H       1  UNL1        0.0514
     30 H           7.5065    0.3367    0.8227 H       1  UNL1        0.0514
     31 H           4.9602    2.5440   -1.3777 H       1  UNL1        0.0514
     32 H           4.6308    2.4348    0.3983 H       1  UNL1        0.0514
     33 H           3.5842    5.6976    0.0138 H       1  UNL1        0.1452
     34 H           4.0785    7.3388    0.2154 H       1  UNL1        0.1452
     35 H          10.0173    4.2906   -0.0466 H       1  UNL1        0.0627
     36 H          12.1437    4.9087    0.5696 H       1  UNL1        0.0278
     37 H          12.1460    5.9627    1.9864 H       1  UNL1        0.0278
     38 H          12.5298    6.6245    0.3702 H       1  UNL1        0.0278
     39 H          10.5590    8.2596    1.4356 H       1  UNL1        0.0621
     40 H           8.1494    8.6756    1.1466 H       1  UNL1        0.0639
@<TRIPOS>BOND
     1     1     2    1
     2     2     3   ar
     3     3     4   ar
     4     4     5   ar
     5     5     6   ar
     6     6     7   ar
     7     2     7   ar
     8     6     8    1
     9     8     9    1
    10     9    10    1
    11     5    10    1
    12     9    11   am
    13    11    12    2
    14    11    13    1
    15    13    14   ar
    16    14    15   ar
    17    15    16    1
    18    15    17   ar
    19    17    18   ar
    20    18    19   ar
    21    13    19   ar
    22    19    20   ar
    23    20    21   ar
    24    21    22    1
    25    21    23   ar
    26    23    24   ar
    27    18    24   ar
    28     1    25    1
    29     3    26    1
    30     4    27    1
    31     7    28    1
    32     8    29    1
    33     8    30    1
    34    10    31    1
    35    10    32    1
    36    16    33    1
    37    16    34    1
    38    20    35    1
    39    22    36    1
    40    22    37    1
    41    22    38    1
    42    23    39    1
    43    24    40    1
