MODEL 1
REMARK VINA RESULT:    -8.486      0.000      0.000
REMARK INTER + INTRA:         -12.041
REMARK INTER:                 -10.823
REMARK INTRA:                  -1.218
REMARK UNBOUND:                -1.073
REMARK  5 active torsions:
REMARK  status: ('A' for Active; 'I' for Inactive)
REMARK    1  A    between atoms: N8_1  and  C24_2 
REMARK    2  A    between atoms: N8_1  and  C7_8 
REMARK    3  A    between atoms: C2_13  and  N1_14 
REMARK    4  A    between atoms: N1_14  and  C17_15 
REMARK    5  A    between atoms: C14_16  and  C13_19 
ROOT
ATOM      1  C17 FTA A   1       3.113  14.966  21.936  1.00  0.00     0.142 C 
ATOM      2  C14 FTA A   1       2.668  15.320  20.714  1.00  0.00     0.158 C 
ATOM      3  C18 FTA A   1       3.140  16.539  20.093  1.00  0.00     0.069 C 
ATOM      4  N21 FTA A   1       3.561  17.575  19.741  1.00  0.00    -0.197 NA
ENDROOT
BRANCH   2   5
ATOM      5  C13 FTA A   1       1.707  14.443  20.007  1.00  0.00     0.197 A 
ATOM      6  N15 FTA A   1       2.019  13.493  19.037  1.00  0.00    -0.093 NA
ATOM      7  N19 FTA A   1       0.826  12.930  18.603  1.00  0.00    -0.231 N 
ATOM      8  N20 FTA A   1      -0.229  13.517  19.286  1.00  0.00    -0.017 NA
ATOM      9  H15 FTA A   1       0.738  12.194  17.887  1.00  0.00     0.200 HD
ATOM     10  N16 FTA A   1       0.316  14.448  20.165  1.00  0.00    -0.090 NA
ENDBRANCH   2   5
BRANCH   1  11
ATOM     11  N1  FTA A   1       2.214  14.685  22.900  1.00  0.00    -0.389 N 
ATOM     12  H11 FTA A   1       1.604  15.451  23.219  1.00  0.00     0.159 HD
BRANCH  11  13
ATOM     13  C2  FTA A   1       2.044  13.412  23.509  1.00  0.00     0.028 A 
ATOM     14  C4  FTA A   1       3.121  12.665  23.978  1.00  0.00     0.031 A 
ATOM     15  C6  FTA A   1       2.911  11.331  24.354  1.00  0.00     0.031 A 
ATOM     16  C7  FTA A   1       1.659  10.727  24.271  1.00  0.00     0.032 A 
ATOM     17  C5  FTA A   1       0.594  11.490  23.826  1.00  0.00     0.031 A 
ATOM     18  C3  FTA A   1       0.784  12.810  23.437  1.00  0.00     0.031 A 
BRANCH  16  19
ATOM     19  N8  FTA A   1       1.464   9.333  24.443  1.00  0.00    -0.356 N 
ATOM     20  H1  FTA A   1       1.106   9.015  25.355  1.00  0.00     0.166 HD
BRANCH  19  21
ATOM     21  C24 FTA A   1       1.724   8.333  23.457  1.00  0.00     0.032 A 
ATOM     22  C26 FTA A   1       2.926   7.668  23.405  1.00  0.00     0.029 A 
ATOM     23  C28 FTA A   1       3.179   6.841  22.327  1.00  0.00     0.002 A 
ATOM     24  C30 FTA A   1       2.255   6.634  21.317  1.00  0.00     0.000 A 
ATOM     25  C29 FTA A   1       1.039   7.261  21.377  1.00  0.00     0.002 A 
ATOM     26  C27 FTA A   1       0.782   8.103  22.465  1.00  0.00     0.029 A 
ENDBRANCH  19  21
ENDBRANCH  16  19
ENDBRANCH  11  13
ENDBRANCH   1  11
TORSDOF 5
ENDMDL
MODEL 2
REMARK VINA RESULT:    -8.334      1.272      1.645
REMARK INTER + INTRA:         -11.844
REMARK INTER:                 -10.628
REMARK INTRA:                  -1.216
REMARK UNBOUND:                -1.073
REMARK  5 active torsions:
REMARK  status: ('A' for Active; 'I' for Inactive)
REMARK    1  A    between atoms: N8_1  and  C24_2 
REMARK    2  A    between atoms: N8_1  and  C7_8 
REMARK    3  A    between atoms: C2_13  and  N1_14 
REMARK    4  A    between atoms: N1_14  and  C17_15 
REMARK    5  A    between atoms: C14_16  and  C13_19 
ROOT
ATOM      1  C17 FTA A   1       3.952  14.874  23.159  1.00  0.00     0.142 C 
ATOM      2  C14 FTA A   1       4.124  15.552  22.007  1.00  0.00     0.158 C 
ATOM      3  C18 FTA A   1       4.892  16.778  21.992  1.00  0.00     0.069 C 
ATOM      4  N21 FTA A   1       5.485  17.779  22.140  1.00  0.00    -0.197 NA
ENDROOT
BRANCH   2   5
ATOM      5  C13 FTA A   1       3.533  15.023  20.756  1.00  0.00     0.197 A 
ATOM      6  N15 FTA A   1       3.028  15.780  19.701  1.00  0.00    -0.093 NA
ATOM      7  N19 FTA A   1       2.531  14.896  18.753  1.00  0.00    -0.231 N 
ATOM      8  N20 FTA A   1       2.716  13.596  19.202  1.00  0.00    -0.017 NA
ATOM      9  H15 FTA A   1       2.094  15.162  17.859  1.00  0.00     0.200 HD
ATOM     10  N16 FTA A   1       3.347  13.673  20.439  1.00  0.00    -0.090 NA
ENDBRANCH   2   5
BRANCH   1  11
ATOM     11  N1  FTA A   1       2.703  14.550  23.544  1.00  0.00    -0.389 N 
ATOM     12  H11 FTA A   1       2.002  15.304  23.571  1.00  0.00     0.159 HD
BRANCH  11  13
ATOM     13  C2  FTA A   1       2.277  13.245  23.915  1.00  0.00     0.028 A 
ATOM     14  C4  FTA A   1       3.052  12.414  24.720  1.00  0.00     0.031 A 
ATOM     15  C6  FTA A   1       2.687  11.067  24.857  1.00  0.00     0.031 A 
ATOM     16  C7  FTA A   1       1.575  10.533  24.213  1.00  0.00     0.032 A 
ATOM     17  C5  FTA A   1       0.801  11.378  23.437  1.00  0.00     0.031 A 
ATOM     18  C3  FTA A   1       1.153  12.712  23.278  1.00  0.00     0.031 A 
BRANCH  16  19
ATOM     19  N8  FTA A   1       1.307   9.141  24.167  1.00  0.00    -0.356 N 
ATOM     20  H1  FTA A   1       0.791   8.733  24.960  1.00  0.00     0.166 HD
BRANCH  19  21
ATOM     21  C24 FTA A   1       1.693   8.259  23.113  1.00  0.00     0.032 A 
ATOM     22  C26 FTA A   1       2.988   7.815  22.983  1.00  0.00     0.029 A 
ATOM     23  C28 FTA A   1       3.334   7.106  21.849  1.00  0.00     0.002 A 
ATOM     24  C30 FTA A   1       2.419   6.800  20.856  1.00  0.00     0.000 A 
ATOM     25  C29 FTA A   1       1.117   7.203  20.992  1.00  0.00     0.002 A 
ATOM     26  C27 FTA A   1       0.765   7.925  22.138  1.00  0.00     0.029 A 
ENDBRANCH  19  21
ENDBRANCH  16  19
ENDBRANCH  11  13
ENDBRANCH   1  11
TORSDOF 5
ENDMDL
MODEL 3
REMARK VINA RESULT:    -8.226      1.214      2.400
REMARK INTER + INTRA:         -11.704
REMARK INTER:                 -10.391
REMARK INTRA:                  -1.313
REMARK UNBOUND:                -1.073
REMARK  5 active torsions:
REMARK  status: ('A' for Active; 'I' for Inactive)
REMARK    1  A    between atoms: N8_1  and  C24_2 
REMARK    2  A    between atoms: N8_1  and  C7_8 
REMARK    3  A    between atoms: C2_13  and  N1_14 
REMARK    4  A    between atoms: N1_14  and  C17_15 
REMARK    5  A    between atoms: C14_16  and  C13_19 
ROOT
ATOM      1  C17 FTA A   1       0.974  15.011  21.338  1.00  0.00     0.142 C 
ATOM      2  C14 FTA A   1       1.376  14.660  20.100  1.00  0.00     0.158 C 
ATOM      3  C18 FTA A   1       0.489  13.917  19.231  1.00  0.00     0.069 C 
ATOM      4  N21 FTA A   1      -0.309  13.271  18.664  1.00  0.00    -0.197 NA
ENDROOT
BRANCH   2   5
ATOM      5  C13 FTA A   1       2.724  15.055  19.633  1.00  0.00     0.197 A 
ATOM      6  N15 FTA A   1       3.928  14.803  20.287  1.00  0.00    -0.093 NA
ATOM      7  N19 FTA A   1       4.942  15.381  19.534  1.00  0.00    -0.231 N 
ATOM      8  N20 FTA A   1       4.388  15.993  18.419  1.00  0.00    -0.017 NA
ATOM      9  H15 FTA A   1       5.945  15.359  19.767  1.00  0.00     0.200 HD
ATOM     10  N16 FTA A   1       3.014  15.782  18.472  1.00  0.00    -0.090 NA
ENDBRANCH   2   5
BRANCH   1  11
ATOM     11  N1  FTA A   1       1.751  14.689  22.390  1.00  0.00    -0.389 N 
ATOM     12  H11 FTA A   1       2.368  15.422  22.768  1.00  0.00     0.159 HD
BRANCH  11  13
ATOM     13  C2  FTA A   1       1.784  13.414  23.020  1.00  0.00     0.028 A 
ATOM     14  C4  FTA A   1       2.957  12.671  23.128  1.00  0.00     0.031 A 
ATOM     15  C6  FTA A   1       2.880  11.336  23.547  1.00  0.00     0.031 A 
ATOM     16  C7  FTA A   1       1.667  10.727  23.857  1.00  0.00     0.032 A 
ATOM     17  C5  FTA A   1       0.513  11.486  23.769  1.00  0.00     0.031 A 
ATOM     18  C3  FTA A   1       0.567  12.807  23.342  1.00  0.00     0.031 A 
BRANCH  16  19
ATOM     19  N8  FTA A   1       1.541   9.331  24.078  1.00  0.00    -0.356 N 
ATOM     20  H1  FTA A   1       1.268   9.026  25.024  1.00  0.00     0.166 HD
BRANCH  19  21
ATOM     21  C24 FTA A   1       1.762   8.316  23.100  1.00  0.00     0.032 A 
ATOM     22  C26 FTA A   1       2.936   7.601  23.056  1.00  0.00     0.029 A 
ATOM     23  C28 FTA A   1       3.157   6.757  21.984  1.00  0.00     0.002 A 
ATOM     24  C30 FTA A   1       2.229   6.582  20.972  1.00  0.00     0.000 A 
ATOM     25  C29 FTA A   1       1.040   7.260  21.024  1.00  0.00     0.002 A 
ATOM     26  C27 FTA A   1       0.814   8.118  22.106  1.00  0.00     0.029 A 
ENDBRANCH  19  21
ENDBRANCH  16  19
ENDBRANCH  11  13
ENDBRANCH   1  11
TORSDOF 5
ENDMDL
MODEL 4
REMARK VINA RESULT:    -8.089      2.262      3.127
REMARK INTER + INTRA:         -11.527
REMARK INTER:                 -10.592
REMARK INTRA:                  -0.935
REMARK UNBOUND:                -1.073
REMARK  5 active torsions:
REMARK  status: ('A' for Active; 'I' for Inactive)
REMARK    1  A    between atoms: N8_1  and  C24_2 
REMARK    2  A    between atoms: N8_1  and  C7_8 
REMARK    3  A    between atoms: C2_13  and  N1_14 
REMARK    4  A    between atoms: N1_14  and  C17_15 
REMARK    5  A    between atoms: C14_16  and  C13_19 
ROOT
ATOM      1  C17 FTA A   1       2.236  14.674  22.686  1.00  0.00     0.142 C 
ATOM      2  C14 FTA A   1       3.566  14.604  22.480  1.00  0.00     0.158 C 
ATOM      3  C18 FTA A   1       4.351  15.815  22.374  1.00  0.00     0.069 C 
ATOM      4  N21 FTA A   1       4.847  16.871  22.252  1.00  0.00    -0.197 NA
ENDROOT
BRANCH   2   5
ATOM      5  C13 FTA A   1       4.218  13.278  22.380  1.00  0.00     0.197 A 
ATOM      6  N15 FTA A   1       4.223  12.446  21.262  1.00  0.00    -0.093 NA
ATOM      7  N19 FTA A   1       4.903  11.286  21.607  1.00  0.00    -0.231 N 
ATOM      8  N20 FTA A   1       5.322  11.379  22.926  1.00  0.00    -0.017 NA
ATOM      9  H15 FTA A   1       5.070  10.483  20.983  1.00  0.00     0.200 HD
ATOM     10  N16 FTA A   1       4.908  12.618  23.404  1.00  0.00    -0.090 NA
ENDBRANCH   2   5
BRANCH   1  11
ATOM     11  N1  FTA A   1       1.412  14.009  21.853  1.00  0.00    -0.389 N 
ATOM     12  H11 FTA A   1       1.049  14.520  21.035  1.00  0.00     0.159 HD
BRANCH  11  13
ATOM     13  C2  FTA A   1       1.006  12.657  22.017  1.00  0.00     0.028 A 
ATOM     14  C4  FTA A   1       0.979  12.037  23.264  1.00  0.00     0.031 A 
ATOM     15  C6  FTA A   1       0.794  10.649  23.329  1.00  0.00     0.031 A 
ATOM     16  C7  FTA A   1       0.638   9.869  22.186  1.00  0.00     0.032 A 
ATOM     17  C5  FTA A   1       0.642  10.503  20.957  1.00  0.00     0.031 A 
ATOM     18  C3  FTA A   1       0.838  11.876  20.870  1.00  0.00     0.031 A 
BRANCH  16  19
ATOM     19  N8  FTA A   1       0.660   8.451  22.214  1.00  0.00    -0.356 N 
ATOM     20  H1  FTA A   1      -0.248   7.965  22.237  1.00  0.00     0.166 HD
BRANCH  19  21
ATOM     21  C24 FTA A   1       1.836   7.642  22.213  1.00  0.00     0.032 A 
ATOM     22  C26 FTA A   1       2.588   7.462  23.350  1.00  0.00     0.029 A 
ATOM     23  C28 FTA A   1       3.804   6.813  23.244  1.00  0.00     0.002 A 
ATOM     24  C30 FTA A   1       4.276   6.311  22.043  1.00  0.00     0.000 A 
ATOM     25  C29 FTA A   1       3.519   6.451  20.911  1.00  0.00     0.002 A 
ATOM     26  C27 FTA A   1       2.289   7.110  21.014  1.00  0.00     0.029 A 
ENDBRANCH  19  21
ENDBRANCH  16  19
ENDBRANCH  11  13
ENDBRANCH   1  11
TORSDOF 5
ENDMDL
MODEL 5
REMARK VINA RESULT:    -7.916      1.271      2.859
REMARK INTER + INTRA:         -11.303
REMARK INTER:                 -10.227
REMARK INTRA:                  -1.076
REMARK UNBOUND:                -1.073
REMARK  5 active torsions:
REMARK  status: ('A' for Active; 'I' for Inactive)
REMARK    1  A    between atoms: N8_1  and  C24_2 
REMARK    2  A    between atoms: N8_1  and  C7_8 
REMARK    3  A    between atoms: C2_13  and  N1_14 
REMARK    4  A    between atoms: N1_14  and  C17_15 
REMARK    5  A    between atoms: C14_16  and  C13_19 
ROOT
ATOM      1  C17 FTA A   1       2.058  15.025  21.972  1.00  0.00     0.142 C 
ATOM      2  C14 FTA A   1       2.949  15.193  20.975  1.00  0.00     0.158 C 
ATOM      3  C18 FTA A   1       2.742  14.547  19.697  1.00  0.00     0.069 C 
ATOM      4  N21 FTA A   1       2.477  13.920  18.742  1.00  0.00    -0.197 NA
ENDROOT
BRANCH   2   5
ATOM      5  C13 FTA A   1       4.132  16.056  21.195  1.00  0.00     0.197 A 
ATOM      6  N15 FTA A   1       4.999  16.530  20.212  1.00  0.00    -0.093 NA
ATOM      7  N19 FTA A   1       5.994  17.260  20.848  1.00  0.00    -0.231 N 
ATOM      8  N20 FTA A   1       5.763  17.248  22.216  1.00  0.00    -0.017 NA
ATOM      9  H15 FTA A   1       6.778  17.736  20.379  1.00  0.00     0.200 HD
ATOM     10  N16 FTA A   1       4.603  16.511  22.432  1.00  0.00    -0.090 NA
ENDBRANCH   2   5
BRANCH   1  11
ATOM     11  N1  FTA A   1       2.497  14.613  23.177  1.00  0.00    -0.389 N 
ATOM     12  H11 FTA A   1       3.065  15.272  23.727  1.00  0.00     0.159 HD
BRANCH  11  13
ATOM     13  C2  FTA A   1       2.236  13.336  23.746  1.00  0.00     0.028 A 
ATOM     14  C4  FTA A   1       3.225  12.595  24.389  1.00  0.00     0.031 A 
ATOM     15  C6  FTA A   1       2.965  11.259  24.721  1.00  0.00     0.031 A 
ATOM     16  C7  FTA A   1       1.749  10.646  24.428  1.00  0.00     0.032 A 
ATOM     17  C5  FTA A   1       0.769  11.403  23.812  1.00  0.00     0.031 A 
ATOM     18  C3  FTA A   1       1.011  12.726  23.462  1.00  0.00     0.031 A 
BRANCH  16  19
ATOM     19  N8  FTA A   1       1.539   9.250  24.563  1.00  0.00    -0.356 N 
ATOM     20  H1  FTA A   1       1.176   8.912  25.466  1.00  0.00     0.166 HD
BRANCH  19  21
ATOM     21  C24 FTA A   1       1.788   8.275  23.550  1.00  0.00     0.032 A 
ATOM     22  C26 FTA A   1       3.015   7.668  23.421  1.00  0.00     0.029 A 
ATOM     23  C28 FTA A   1       3.244   6.865  22.320  1.00  0.00     0.002 A 
ATOM     24  C30 FTA A   1       2.275   6.626  21.360  1.00  0.00     0.000 A 
ATOM     25  C29 FTA A   1       1.037   7.194  21.498  1.00  0.00     0.002 A 
ATOM     26  C27 FTA A   1       0.803   8.011  22.610  1.00  0.00     0.029 A 
ENDBRANCH  19  21
ENDBRANCH  16  19
ENDBRANCH  11  13
ENDBRANCH   1  11
TORSDOF 5
ENDMDL
MODEL 6
REMARK VINA RESULT:    -7.832      1.836      3.116
REMARK INTER + INTRA:         -11.195
REMARK INTER:                 -10.221
REMARK INTRA:                  -0.974
REMARK UNBOUND:                -1.073
REMARK  5 active torsions:
REMARK  status: ('A' for Active; 'I' for Inactive)
REMARK    1  A    between atoms: N8_1  and  C24_2 
REMARK    2  A    between atoms: N8_1  and  C7_8 
REMARK    3  A    between atoms: C2_13  and  N1_14 
REMARK    4  A    between atoms: N1_14  and  C17_15 
REMARK    5  A    between atoms: C14_16  and  C13_19 
ROOT
ATOM      1  C17 FTA A   1       0.361  14.206  20.515  1.00  0.00     0.142 C 
ATOM      2  C14 FTA A   1       1.075  14.313  19.377  1.00  0.00     0.158 C 
ATOM      3  C18 FTA A   1       0.490  13.927  18.112  1.00  0.00     0.069 C 
ATOM      4  N21 FTA A   1      -0.089  13.525  17.175  1.00  0.00    -0.197 NA
ENDROOT
BRANCH   2   5
ATOM      5  C13 FTA A   1       2.457  14.844  19.432  1.00  0.00     0.197 A 
ATOM      6  N15 FTA A   1       3.075  15.630  18.462  1.00  0.00    -0.093 NA
ATOM      7  N19 FTA A   1       4.376  15.868  18.884  1.00  0.00    -0.231 N 
ATOM      8  N20 FTA A   1       4.582  15.239  20.104  1.00  0.00    -0.017 NA
ATOM      9  H15 FTA A   1       5.078  16.423  18.373  1.00  0.00     0.200 HD
ATOM     10  N16 FTA A   1       3.389  14.612  20.450  1.00  0.00    -0.090 NA
ENDBRANCH   2   5
BRANCH   1  11
ATOM     11  N1  FTA A   1       0.889  13.532  21.555  1.00  0.00    -0.389 N 
ATOM     12  H11 FTA A   1       1.492  14.056  22.205  1.00  0.00     0.159 HD
BRANCH  11  13
ATOM     13  C2  FTA A   1       0.676  12.152  21.824  1.00  0.00     0.028 A 
ATOM     14  C4  FTA A   1       0.902  11.599  23.081  1.00  0.00     0.031 A 
ATOM     15  C6  FTA A   1       0.897  10.204  23.222  1.00  0.00     0.031 A 
ATOM     16  C7  FTA A   1       0.676   9.353  22.142  1.00  0.00     0.032 A 
ATOM     17  C5  FTA A   1       0.428   9.919  20.904  1.00  0.00     0.031 A 
ATOM     18  C3  FTA A   1       0.442  11.298  20.742  1.00  0.00     0.031 A 
BRANCH  16  19
ATOM     19  N8  FTA A   1       0.872   7.950  22.216  1.00  0.00    -0.356 N 
ATOM     20  H1  FTA A   1       0.034   7.361  22.323  1.00  0.00     0.166 HD
BRANCH  19  21
ATOM     21  C24 FTA A   1       2.136   7.288  22.153  1.00  0.00     0.032 A 
ATOM     22  C26 FTA A   1       2.794   6.882  23.290  1.00  0.00     0.029 A 
ATOM     23  C28 FTA A   1       4.085   6.405  23.173  1.00  0.00     0.002 A 
ATOM     24  C30 FTA A   1       4.728   6.292  21.952  1.00  0.00     0.000 A 
ATOM     25  C29 FTA A   1       4.069   6.657  20.808  1.00  0.00     0.002 A 
ATOM     26  C27 FTA A   1       2.762   7.144  20.924  1.00  0.00     0.029 A 
ENDBRANCH  19  21
ENDBRANCH  16  19
ENDBRANCH  11  13
ENDBRANCH   1  11
TORSDOF 5
ENDMDL
MODEL 7
REMARK VINA RESULT:    -7.792      2.009      2.955
REMARK INTER + INTRA:         -11.144
REMARK INTER:                 -10.641
REMARK INTRA:                  -0.503
REMARK UNBOUND:                -1.073
REMARK  5 active torsions:
REMARK  status: ('A' for Active; 'I' for Inactive)
REMARK    1  A    between atoms: N8_1  and  C24_2 
REMARK    2  A    between atoms: N8_1  and  C7_8 
REMARK    3  A    between atoms: C2_13  and  N1_14 
REMARK    4  A    between atoms: N1_14  and  C17_15 
REMARK    5  A    between atoms: C14_16  and  C13_19 
ROOT
ATOM      1  C17 FTA A   1       2.944  14.638  22.335  1.00  0.00     0.142 C 
ATOM      2  C14 FTA A   1       3.394  13.681  21.499  1.00  0.00     0.158 C 
ATOM      3  C18 FTA A   1       2.953  13.653  20.121  1.00  0.00     0.069 C 
ATOM      4  N21 FTA A   1       2.469  13.720  19.055  1.00  0.00    -0.197 NA
ENDROOT
BRANCH   2   5
ATOM      5  C13 FTA A   1       4.353  12.669  21.999  1.00  0.00     0.197 A 
ATOM      6  N15 FTA A   1       4.365  11.315  21.671  1.00  0.00    -0.093 NA
ATOM      7  N19 FTA A   1       5.394  10.720  22.390  1.00  0.00    -0.231 N 
ATOM      8  N20 FTA A   1       6.023  11.683  23.165  1.00  0.00    -0.017 NA
ATOM      9  H15 FTA A   1       5.649   9.723  22.355  1.00  0.00     0.200 HD
ATOM     10  N16 FTA A   1       5.387  12.895  22.915  1.00  0.00    -0.090 NA
ENDBRANCH   2   5
BRANCH   1  11
ATOM     11  N1  FTA A   1       2.394  14.271  23.508  1.00  0.00    -0.389 N 
ATOM     12  H11 FTA A   1       2.247  15.006  24.215  1.00  0.00     0.159 HD
BRANCH  11  13
ATOM     13  C2  FTA A   1       1.998  12.948  23.845  1.00  0.00     0.028 A 
ATOM     14  C4  FTA A   1       2.685  12.187  24.788  1.00  0.00     0.031 A 
ATOM     15  C6  FTA A   1       2.390  10.822  24.905  1.00  0.00     0.031 A 
ATOM     16  C7  FTA A   1       1.432  10.200  24.108  1.00  0.00     0.032 A 
ATOM     17  C5  FTA A   1       0.741  10.976  23.194  1.00  0.00     0.031 A 
ATOM     18  C3  FTA A   1       1.028  12.328  23.053  1.00  0.00     0.031 A 
BRANCH  16  19
ATOM     19  N8  FTA A   1       1.265   8.793  24.062  1.00  0.00    -0.356 N 
ATOM     20  H1  FTA A   1       0.762   8.351  24.844  1.00  0.00     0.166 HD
BRANCH  19  21
ATOM     21  C24 FTA A   1       1.737   7.938  23.020  1.00  0.00     0.032 A 
ATOM     22  C26 FTA A   1       3.068   7.620  22.896  1.00  0.00     0.029 A 
ATOM     23  C28 FTA A   1       3.483   6.932  21.771  1.00  0.00     0.002 A 
ATOM     24  C30 FTA A   1       2.604   6.527  20.782  1.00  0.00     0.000 A 
ATOM     25  C29 FTA A   1       1.269   6.804  20.912  1.00  0.00     0.002 A 
ATOM     26  C27 FTA A   1       0.847   7.503  22.048  1.00  0.00     0.029 A 
ENDBRANCH  19  21
ENDBRANCH  16  19
ENDBRANCH  11  13
ENDBRANCH   1  11
TORSDOF 5
ENDMDL
MODEL 8
REMARK VINA RESULT:    -7.509      1.402      1.995
REMARK INTER + INTRA:         -10.777
REMARK INTER:                  -9.704
REMARK INTRA:                  -1.073
REMARK UNBOUND:                -1.073
REMARK  5 active torsions:
REMARK  status: ('A' for Active; 'I' for Inactive)
REMARK    1  A    between atoms: N8_1  and  C24_2 
REMARK    2  A    between atoms: N8_1  and  C7_8 
REMARK    3  A    between atoms: C2_13  and  N1_14 
REMARK    4  A    between atoms: N1_14  and  C17_15 
REMARK    5  A    between atoms: C14_16  and  C13_19 
ROOT
ATOM      1  C17 FTA A   1       4.352  15.036  21.223  1.00  0.00     0.142 C 
ATOM      2  C14 FTA A   1       3.346  15.781  20.723  1.00  0.00     0.158 C 
ATOM      3  C18 FTA A   1       3.631  17.023  20.038  1.00  0.00     0.069 C 
ATOM      4  N21 FTA A   1       4.004  18.027  19.562  1.00  0.00    -0.197 NA
ENDROOT
BRANCH   2   5
ATOM      5  C13 FTA A   1       1.950  15.309  20.868  1.00  0.00     0.197 A 
ATOM      6  N15 FTA A   1       1.499  14.004  20.680  1.00  0.00    -0.093 NA
ATOM      7  N19 FTA A   1       0.123  14.006  20.869  1.00  0.00    -0.231 N 
ATOM      8  N20 FTA A   1      -0.293  15.294  21.170  1.00  0.00    -0.017 NA
ATOM      9  H15 FTA A   1      -0.491  13.181  20.797  1.00  0.00     0.200 HD
ATOM     10  N16 FTA A   1       0.839  16.102  21.181  1.00  0.00    -0.090 NA
ENDBRANCH   2   5
BRANCH   1  11
ATOM     11  N1  FTA A   1       4.306  14.662  22.516  1.00  0.00    -0.389 N 
ATOM     12  H11 FTA A   1       4.339  15.406  23.228  1.00  0.00     0.159 HD
BRANCH  11  13
ATOM     13  C2  FTA A   1       4.215  13.320  22.974  1.00  0.00     0.028 A 
ATOM     14  C4  FTA A   1       5.206  12.378  22.711  1.00  0.00     0.031 A 
ATOM     15  C6  FTA A   1       4.951  11.027  22.985  1.00  0.00     0.031 A 
ATOM     16  C7  FTA A   1       3.737  10.596  23.512  1.00  0.00     0.032 A 
ATOM     17  C5  FTA A   1       2.771  11.546  23.791  1.00  0.00     0.031 A 
ATOM     18  C3  FTA A   1       2.999  12.888  23.513  1.00  0.00     0.031 A 
BRANCH  16  19
ATOM     19  N8  FTA A   1       3.380   9.226  23.601  1.00  0.00    -0.356 N 
ATOM     20  H1  FTA A   1       3.644   8.724  24.462  1.00  0.00     0.166 HD
BRANCH  19  21
ATOM     21  C24 FTA A   1       2.687   8.484  22.597  1.00  0.00     0.032 A 
ATOM     22  C26 FTA A   1       1.314   8.436  22.557  1.00  0.00     0.029 A 
ATOM     23  C28 FTA A   1       0.707   7.566  21.671  1.00  0.00     0.002 A 
ATOM     24  C30 FTA A   1       1.431   6.766  20.803  1.00  0.00     0.000 A 
ATOM     25  C29 FTA A   1       2.799   6.834  20.806  1.00  0.00     0.002 A 
ATOM     26  C27 FTA A   1       3.415   7.711  21.705  1.00  0.00     0.029 A 
ENDBRANCH  19  21
ENDBRANCH  16  19
ENDBRANCH  11  13
ENDBRANCH   1  11
TORSDOF 5
ENDMDL
MODEL 9
REMARK VINA RESULT:    -7.487      2.317      3.219
REMARK INTER + INTRA:         -10.749
REMARK INTER:                  -9.709
REMARK INTRA:                  -1.040
REMARK UNBOUND:                -1.073
REMARK  5 active torsions:
REMARK  status: ('A' for Active; 'I' for Inactive)
REMARK    1  A    between atoms: N8_1  and  C24_2 
REMARK    2  A    between atoms: N8_1  and  C7_8 
REMARK    3  A    between atoms: C2_13  and  N1_14 
REMARK    4  A    between atoms: N1_14  and  C17_15 
REMARK    5  A    between atoms: C14_16  and  C13_19 
ROOT
ATOM      1  C17 FTA A   1       4.587  15.821  22.396  1.00  0.00     0.142 C 
ATOM      2  C14 FTA A   1       5.011  16.766  21.533  1.00  0.00     0.158 C 
ATOM      3  C18 FTA A   1       5.732  17.923  22.019  1.00  0.00     0.069 C 
ATOM      4  N21 FTA A   1       6.249  18.827  22.558  1.00  0.00    -0.197 NA
ENDROOT
BRANCH   2   5
ATOM      5  C13 FTA A   1       4.747  16.602  20.085  1.00  0.00     0.197 A 
ATOM      6  N15 FTA A   1       5.669  16.198  19.122  1.00  0.00    -0.093 NA
ATOM      7  N19 FTA A   1       5.025  16.221  17.892  1.00  0.00    -0.231 N 
ATOM      8  N20 FTA A   1       3.714  16.637  18.072  1.00  0.00    -0.017 NA
ATOM      9  H15 FTA A   1       5.453  15.970  16.989  1.00  0.00     0.200 HD
ATOM     10  N16 FTA A   1       3.536  16.863  19.433  1.00  0.00    -0.090 NA
ENDBRANCH   2   5
BRANCH   1  11
ATOM     11  N1  FTA A   1       3.290  15.458  22.377  1.00  0.00    -0.389 N 
ATOM     12  H11 FTA A   1       2.590  16.183  22.591  1.00  0.00     0.159 HD
BRANCH  11  13
ATOM     13  C2  FTA A   1       2.814  14.151  22.086  1.00  0.00     0.028 A 
ATOM     14  C4  FTA A   1       3.525  13.266  21.279  1.00  0.00     0.031 A 
ATOM     15  C6  FTA A   1       2.899  12.089  20.845  1.00  0.00     0.031 A 
ATOM     16  C7  FTA A   1       1.587  11.777  21.192  1.00  0.00     0.032 A 
ATOM     17  C5  FTA A   1       0.903  12.654  22.014  1.00  0.00     0.031 A 
ATOM     18  C3  FTA A   1       1.501  13.832  22.445  1.00  0.00     0.031 A 
BRANCH  16  19
ATOM     19  N8  FTA A   1       0.868  10.708  20.599  1.00  0.00    -0.356 N 
ATOM     20  H1  FTA A   1       0.294  10.925  19.772  1.00  0.00     0.166 HD
BRANCH  19  21
ATOM     21  C24 FTA A   1       0.874   9.355  21.055  1.00  0.00     0.032 A 
ATOM     22  C26 FTA A   1       0.631   9.036  22.370  1.00  0.00     0.029 A 
ATOM     23  C28 FTA A   1       0.821   7.731  22.781  1.00  0.00     0.002 A 
ATOM     24  C30 FTA A   1       1.217   6.728  21.912  1.00  0.00     0.000 A 
ATOM     25  C29 FTA A   1       1.425   7.025  20.592  1.00  0.00     0.002 A 
ATOM     26  C27 FTA A   1       1.237   8.347  20.173  1.00  0.00     0.029 A 
ENDBRANCH  19  21
ENDBRANCH  16  19
ENDBRANCH  11  13
ENDBRANCH   1  11
TORSDOF 5
ENDMDL
