MODEL 1
REMARK VINA RESULT:    -8.839      0.000      0.000
REMARK INTER + INTRA:         -11.935
REMARK INTER:                 -10.628
REMARK INTRA:                  -1.307
REMARK UNBOUND:                -0.771
REMARK  5 active torsions:
REMARK  status: ('A' for Active; 'I' for Inactive)
REMARK    1  A    between atoms: C_5  and  N_6 
REMARK       I    between atoms: N_6  and  C_7 
REMARK    2  A    between atoms: C_7  and  C_9 
REMARK    3  A    between atoms: C_10  and  O_11 
REMARK    4  A    between atoms: C_17  and  C_18 
REMARK    5  A    between atoms: C_18  and  C_19 
ROOT
HETATM    1  C   UNL     1       6.504  13.939  24.863  0.00  0.00     0.066 C 
HETATM    2  C   UNL     1       7.139  13.927  26.115  0.00  0.00     0.083 C 
HETATM    3  C   UNL     1       8.430  14.450  26.298  0.00  0.00     0.069 C 
HETATM    4  C   UNL     1       9.070  14.990  25.174  0.00  0.00     0.065 A 
HETATM    5  N   UNL     1      10.283  15.585  25.014  0.00  0.00    -0.277 N 
HETATM    6  H   UNL     1      10.979  15.772  25.728  0.00  0.00     0.189 HD
HETATM    7  N   UNL     1      10.539  15.989  23.758  0.00  0.00    -0.178 NA
HETATM    8  C   UNL     1       9.453  15.607  23.059  0.00  0.00     0.071 A 
HETATM    9  C   UNL     1       8.501  14.964  23.907  0.00  0.00     0.020 A 
HETATM   10  C   UNL     1       7.232  14.369  23.739  0.00  0.00     0.035 C 
ENDROOT
BRANCH   1  11
HETATM   11  C   UNL     1       5.082  13.471  24.742  0.00  0.00     0.260 C 
HETATM   12  N   UNL     1       4.019  14.411  24.700  0.00  0.00    -0.318 N 
HETATM   13  C   UNL     1       4.247  15.829  25.012  0.00  0.00     0.159 C 
HETATM   14  O   UNL     1       4.953  12.244  24.711  0.00  0.00    -0.267 OA
BRANCH  12  15
HETATM   15  C   UNL     1       2.629  14.036  24.515  0.00  0.00     0.037 A 
HETATM   16  C   UNL     1       2.114  13.572  23.298  0.00  0.00     0.031 A 
HETATM   17  C   UNL     1       0.796  13.089  23.200  0.00  0.00     0.021 A 
HETATM   18  C   UNL     1      -0.033  13.081  24.315  0.00  0.00     0.011 A 
HETATM   19 BR   UNL     1      -1.778  12.369  24.202  0.00  0.00    -0.051 Br
HETATM   20  C   UNL     1       0.428  13.587  25.521  0.00  0.00     0.021 A 
HETATM   21  C   UNL     1       1.740  14.068  25.612  0.00  0.00     0.031 A 
ENDBRANCH  12  15
ENDBRANCH   1  11
BRANCH   2  22
HETATM   22  O   UNL     1       6.558  13.399  27.239  0.00  0.00    -0.360 OA
HETATM   23  H   UNL     1       5.660  13.793  27.316  0.00  0.00     0.217 HD
ENDBRANCH   2  22
BRANCH   8  24
HETATM   24  C   UNL     1       9.353  15.955  21.602  0.00  0.00     0.100 C 
BRANCH  24  25
HETATM   25  C   UNL     1       9.496  14.710  20.753  0.00  0.00    -0.052 C 
HETATM   26  C   UNL     1      10.642  13.899  20.751  0.00  0.00     0.014 C 
HETATM   27  C   UNL     1      10.663  12.680  20.064  0.00  0.00    -0.061 C 
HETATM   28  C   UNL     1      11.808  11.729  20.246  0.00  0.00     0.048 C 
HETATM   29  C   UNL     1       9.586  12.340  19.240  0.00  0.00     0.007 C 
HETATM   30  C   UNL     1       8.485  13.187  19.142  0.00  0.00     0.001 C 
HETATM   31  C   UNL     1       8.433  14.355  19.904  0.00  0.00     0.007 C 
ENDBRANCH  24  25
ENDBRANCH   8  24
TORSDOF 5
ENDMDL
MODEL 2
REMARK VINA RESULT:    -8.644      4.662      6.860
REMARK INTER + INTRA:         -11.689
REMARK INTER:                 -11.200
REMARK INTRA:                  -0.489
REMARK UNBOUND:                -0.771
REMARK  5 active torsions:
REMARK  status: ('A' for Active; 'I' for Inactive)
REMARK    1  A    between atoms: C_5  and  N_6 
REMARK       I    between atoms: N_6  and  C_7 
REMARK    2  A    between atoms: C_7  and  C_9 
REMARK    3  A    between atoms: C_10  and  O_11 
REMARK    4  A    between atoms: C_17  and  C_18 
REMARK    5  A    between atoms: C_18  and  C_19 
ROOT
HETATM    1  C   UNL     1       7.037  11.301  21.412  0.00  0.00     0.066 C 
HETATM    2  C   UNL     1       8.270  10.929  21.969  0.00  0.00     0.083 C 
HETATM    3  C   UNL     1       8.979  11.774  22.839  0.00  0.00     0.069 C 
HETATM    4  C   UNL     1       8.405  13.019  23.133  0.00  0.00     0.065 A 
HETATM    5  N   UNL     1       8.807  14.040  23.938  0.00  0.00    -0.277 N 
HETATM    6  H   UNL     1       9.637  14.080  24.519  0.00  0.00     0.189 HD
HETATM    7  N   UNL     1       7.963  15.085  23.968  0.00  0.00    -0.178 NA
HETATM    8  C   UNL     1       6.980  14.742  23.113  0.00  0.00     0.071 A 
HETATM    9  C   UNL     1       7.218  13.450  22.554  0.00  0.00     0.020 A 
HETATM   10  C   UNL     1       6.564  12.608  21.629  0.00  0.00     0.035 C 
ENDROOT
BRANCH   1  11
HETATM   11  C   UNL     1       6.266  10.318  20.578  0.00  0.00     0.260 C 
HETATM   12  N   UNL     1       5.488   9.306  21.199  0.00  0.00    -0.318 N 
HETATM   13  C   UNL     1       5.602   9.038  22.640  0.00  0.00     0.159 C 
HETATM   14  O   UNL     1       6.401  10.470  19.361  0.00  0.00    -0.267 OA
BRANCH  12  15
HETATM   15  C   UNL     1       4.665   8.366  20.461  0.00  0.00     0.037 A 
HETATM   16  C   UNL     1       4.782   8.161  19.081  0.00  0.00     0.031 A 
HETATM   17  C   UNL     1       4.062   7.143  18.430  0.00  0.00     0.021 A 
HETATM   18  C   UNL     1       3.197   6.326  19.149  0.00  0.00     0.011 A 
HETATM   19 BR   UNL     1       2.282   4.915  18.290  0.00  0.00    -0.051 Br
HETATM   20  C   UNL     1       3.015   6.540  20.507  0.00  0.00     0.021 A 
HETATM   21  C   UNL     1       3.734   7.557  21.148  0.00  0.00     0.031 A 
ENDBRANCH  12  15
ENDBRANCH   1  11
BRANCH   2  22
HETATM   22  O   UNL     1       8.876   9.728  21.700  0.00  0.00    -0.360 OA
HETATM   23  H   UNL     1       9.364   9.459  22.511  0.00  0.00     0.217 HD
ENDBRANCH   2  22
BRANCH   8  24
HETATM   24  C   UNL     1       5.804  15.658  22.934  0.00  0.00     0.100 C 
BRANCH  24  25
HETATM   25  C   UNL     1       4.677  15.254  23.860  0.00  0.00    -0.052 C 
HETATM   26  C   UNL     1       4.479  15.814  25.132  0.00  0.00     0.014 C 
HETATM   27  C   UNL     1       3.337  15.513  25.883  0.00  0.00    -0.061 C 
HETATM   28  C   UNL     1       3.034  16.278  27.137  0.00  0.00     0.048 C 
HETATM   29  C   UNL     1       2.460  14.523  25.430  0.00  0.00     0.007 C 
HETATM   30  C   UNL     1       2.699  13.877  24.220  0.00  0.00     0.001 C 
HETATM   31  C   UNL     1       3.791  14.250  23.433  0.00  0.00     0.007 C 
ENDBRANCH  24  25
ENDBRANCH   8  24
TORSDOF 5
ENDMDL
MODEL 3
REMARK VINA RESULT:    -8.521      4.729      6.853
REMARK INTER + INTRA:         -11.534
REMARK INTER:                 -10.416
REMARK INTRA:                  -1.118
REMARK UNBOUND:                -0.771
REMARK  5 active torsions:
REMARK  status: ('A' for Active; 'I' for Inactive)
REMARK    1  A    between atoms: C_5  and  N_6 
REMARK       I    between atoms: N_6  and  C_7 
REMARK    2  A    between atoms: C_7  and  C_9 
REMARK    3  A    between atoms: C_10  and  O_11 
REMARK    4  A    between atoms: C_17  and  C_18 
REMARK    5  A    between atoms: C_18  and  C_19 
ROOT
HETATM    1  C   UNL     1       8.295  10.870  23.794  0.00  0.00     0.066 C 
HETATM    2  C   UNL     1       9.126  10.653  24.904  0.00  0.00     0.083 C 
HETATM    3  C   UNL     1       9.407  11.669  25.832  0.00  0.00     0.069 C 
HETATM    4  C   UNL     1       8.822  12.923  25.608  0.00  0.00     0.065 A 
HETATM    5  N   UNL     1       8.866  14.088  26.309  0.00  0.00    -0.277 N 
HETATM    6  H   UNL     1       9.347  14.265  27.184  0.00  0.00     0.189 HD
HETATM    7  N   UNL     1       8.150  15.088  25.767  0.00  0.00    -0.178 NA
HETATM    8  C   UNL     1       7.642  14.557  24.639  0.00  0.00     0.071 A 
HETATM    9  C   UNL     1       8.044  13.195  24.489  0.00  0.00     0.020 A 
HETATM   10  C   UNL     1       7.837  12.174  23.536  0.00  0.00     0.035 C 
ENDROOT
BRANCH   1  11
HETATM   11  C   UNL     1       7.936   9.722  22.893  0.00  0.00     0.260 C 
HETATM   12  N   UNL     1       6.701   9.041  23.058  0.00  0.00    -0.318 N 
HETATM   13  C   UNL     1       5.860   9.270  24.241  0.00  0.00     0.159 C 
HETATM   14  O   UNL     1       8.801   9.442  22.059  0.00  0.00    -0.267 OA
BRANCH  12  15
HETATM   15  C   UNL     1       6.257   7.971  22.184  0.00  0.00     0.037 A 
HETATM   16  C   UNL     1       5.328   8.157  21.152  0.00  0.00     0.031 A 
HETATM   17  C   UNL     1       5.031   7.126  20.242  0.00  0.00     0.021 A 
HETATM   18  C   UNL     1       5.646   5.886  20.362  0.00  0.00     0.011 A 
HETATM   19 BR   UNL     1       5.302   4.523  19.101  0.00  0.00    -0.051 Br
HETATM   20  C   UNL     1       6.528   5.651  21.406  0.00  0.00     0.021 A 
HETATM   21  C   UNL     1       6.818   6.681  22.310  0.00  0.00     0.031 A 
ENDBRANCH  12  15
ENDBRANCH   1  11
BRANCH   2  22
HETATM   22  O   UNL     1       9.731   9.448  25.157  0.00  0.00    -0.360 OA
HETATM   23  H   UNL     1       9.016   8.786  25.293  0.00  0.00     0.217 HD
ENDBRANCH   2  22
BRANCH   8  24
HETATM   24  C   UNL     1       6.717  15.378  23.787  0.00  0.00     0.100 C 
BRANCH  24  25
HETATM   25  C   UNL     1       5.284  15.194  24.239  0.00  0.00    -0.052 C 
HETATM   26  C   UNL     1       4.806  15.603  25.494  0.00  0.00     0.014 C 
HETATM   27  C   UNL     1       3.442  15.546  25.801  0.00  0.00    -0.061 C 
HETATM   28  C   UNL     1       2.923  16.181  27.056  0.00  0.00     0.048 C 
HETATM   29  C   UNL     1       2.564  14.927  24.906  0.00  0.00     0.007 C 
HETATM   30  C   UNL     1       3.038  14.415  23.701  0.00  0.00     0.001 C 
HETATM   31  C   UNL     1       4.385  14.561  23.363  0.00  0.00     0.007 C 
ENDBRANCH  24  25
ENDBRANCH   8  24
TORSDOF 5
ENDMDL
MODEL 4
REMARK VINA RESULT:    -8.488      4.338      6.335
REMARK INTER + INTRA:         -11.491
REMARK INTER:                 -10.746
REMARK INTRA:                  -0.745
REMARK UNBOUND:                -0.771
REMARK  5 active torsions:
REMARK  status: ('A' for Active; 'I' for Inactive)
REMARK    1  A    between atoms: C_5  and  N_6 
REMARK       I    between atoms: N_6  and  C_7 
REMARK    2  A    between atoms: C_7  and  C_9 
REMARK    3  A    between atoms: C_10  and  O_11 
REMARK    4  A    between atoms: C_17  and  C_18 
REMARK    5  A    between atoms: C_18  and  C_19 
ROOT
HETATM    1  C   UNL     1       8.078  10.800  22.485  0.00  0.00     0.066 C 
HETATM    2  C   UNL     1       9.236  10.939  21.705  0.00  0.00     0.083 C 
HETATM    3  C   UNL     1      10.159  11.976  21.923  0.00  0.00     0.069 C 
HETATM    4  C   UNL     1       9.878  12.878  22.957  0.00  0.00     0.065 A 
HETATM    5  N   UNL     1      10.558  13.954  23.438  0.00  0.00    -0.277 N 
HETATM    6  H   UNL     1      11.455  14.309  23.125  0.00  0.00     0.189 HD
HETATM    7  N   UNL     1       9.958  14.573  24.469  0.00  0.00    -0.178 NA
HETATM    8  C   UNL     1       8.813  13.885  24.646  0.00  0.00     0.071 A 
HETATM    9  C   UNL     1       8.712  12.811  23.710  0.00  0.00     0.020 A 
HETATM   10  C   UNL     1       7.769  11.801  23.423  0.00  0.00     0.035 C 
ENDROOT
BRANCH   1  11
HETATM   11  C   UNL     1       7.181   9.611  22.286  0.00  0.00     0.260 C 
HETATM   12  N   UNL     1       5.911   9.765  21.670  0.00  0.00    -0.318 N 
HETATM   13  C   UNL     1       5.341  11.099  21.433  0.00  0.00     0.159 C 
HETATM   14  O   UNL     1       7.641   8.550  22.719  0.00  0.00    -0.267 OA
BRANCH  12  15
HETATM   15  C   UNL     1       5.022   8.655  21.384  0.00  0.00     0.037 A 
HETATM   16  C   UNL     1       4.140   8.114  22.328  0.00  0.00     0.031 A 
HETATM   17  C   UNL     1       3.199   7.132  21.969  0.00  0.00     0.021 A 
HETATM   18  C   UNL     1       3.139   6.662  20.662  0.00  0.00     0.011 A 
HETATM   19 BR   UNL     1       1.831   5.395  20.163  0.00  0.00    -0.051 Br
HETATM   20  C   UNL     1       4.036   7.136  19.717  0.00  0.00     0.021 A 
HETATM   21  C   UNL     1       4.972   8.112  20.082  0.00  0.00     0.031 A 
ENDBRANCH  12  15
ENDBRANCH   1  11
BRANCH   2  22
HETATM   22  O   UNL     1       9.546  10.089  20.674  0.00  0.00    -0.360 OA
HETATM   23  H   UNL     1      10.523  10.111  20.561  0.00  0.00     0.217 HD
ENDBRANCH   2  22
BRANCH   8  24
HETATM   24  C   UNL     1       7.895  14.258  25.775  0.00  0.00     0.100 C 
BRANCH  24  25
HETATM   25  C   UNL     1       6.604  14.833  25.235  0.00  0.00    -0.052 C 
HETATM   26  C   UNL     1       5.458  15.038  26.020  0.00  0.00     0.014 C 
HETATM   27  C   UNL     1       4.343  15.711  25.507  0.00  0.00    -0.061 C 
HETATM   28  C   UNL     1       3.218  16.111  26.414  0.00  0.00     0.048 C 
HETATM   29  C   UNL     1       4.308  16.043  24.150  0.00  0.00     0.007 C 
HETATM   30  C   UNL     1       5.394  15.748  23.329  0.00  0.00     0.001 C 
HETATM   31  C   UNL     1       6.539  15.161  23.870  0.00  0.00     0.007 C 
ENDBRANCH  24  25
ENDBRANCH   8  24
TORSDOF 5
ENDMDL
MODEL 5
REMARK VINA RESULT:    -8.427      3.450      5.178
REMARK INTER + INTRA:         -11.414
REMARK INTER:                 -10.318
REMARK INTRA:                  -1.096
REMARK UNBOUND:                -0.771
REMARK  5 active torsions:
REMARK  status: ('A' for Active; 'I' for Inactive)
REMARK    1  A    between atoms: C_5  and  N_6 
REMARK       I    between atoms: N_6  and  C_7 
REMARK    2  A    between atoms: C_7  and  C_9 
REMARK    3  A    between atoms: C_10  and  O_11 
REMARK    4  A    between atoms: C_17  and  C_18 
REMARK    5  A    between atoms: C_18  and  C_19 
ROOT
HETATM    1  C   UNL     1       6.381  10.789  22.493  0.00  0.00     0.066 C 
HETATM    2  C   UNL     1       7.518  10.047  22.138  0.00  0.00     0.083 C 
HETATM    3  C   UNL     1       8.701  10.664  21.699  0.00  0.00     0.069 C 
HETATM    4  C   UNL     1       8.706  12.063  21.626  0.00  0.00     0.065 A 
HETATM    5  N   UNL     1       9.672  12.954  21.273  0.00  0.00    -0.277 N 
HETATM    6  H   UNL     1      10.628  12.754  20.999  0.00  0.00     0.189 HD
HETATM    7  N   UNL     1       9.290  14.241  21.341  0.00  0.00    -0.178 NA
HETATM    8  C   UNL     1       8.000  14.183  21.723  0.00  0.00     0.071 A 
HETATM    9  C   UNL     1       7.582  12.830  21.907  0.00  0.00     0.020 A 
HETATM   10  C   UNL     1       6.386  12.179  22.279  0.00  0.00     0.035 C 
ENDROOT
BRANCH   1  11
HETATM   11  C   UNL     1       5.179  10.090  23.062  0.00  0.00     0.260 C 
HETATM   12  N   UNL     1       4.720  10.402  24.369  0.00  0.00    -0.318 N 
HETATM   13  C   UNL     1       5.528  11.225  25.280  0.00  0.00     0.159 C 
HETATM   14  O   UNL     1       4.683   9.242  22.314  0.00  0.00    -0.267 OA
BRANCH  12  15
HETATM   15  C   UNL     1       3.528   9.819  24.957  0.00  0.00     0.037 A 
HETATM   16  C   UNL     1       2.230  10.237  24.638  0.00  0.00     0.031 A 
HETATM   17  C   UNL     1       1.102   9.553  25.125  0.00  0.00     0.021 A 
HETATM   18  C   UNL     1       1.256   8.449  25.956  0.00  0.00     0.011 A 
HETATM   19 BR   UNL     1      -0.255   7.487  26.554  0.00  0.00    -0.051 Br
HETATM   20  C   UNL     1       2.526   8.044  26.336  0.00  0.00     0.021 A 
HETATM   21  C   UNL     1       3.645   8.731  25.849  0.00  0.00     0.031 A 
ENDBRANCH  12  15
ENDBRANCH   1  11
BRANCH   2  22
HETATM   22  O   UNL     1       7.556   8.676  22.182  0.00  0.00    -0.360 OA
HETATM   23  H   UNL     1       6.627   8.361  22.249  0.00  0.00     0.217 HD
ENDBRANCH   2  22
BRANCH   8  24
HETATM   24  C   UNL     1       7.245  15.458  21.970  0.00  0.00     0.100 C 
BRANCH  24  25
HETATM   25  C   UNL     1       6.471  15.368  23.268  0.00  0.00    -0.052 C 
HETATM   26  C   UNL     1       7.002  14.836  24.453  0.00  0.00     0.014 C 
HETATM   27  C   UNL     1       6.298  14.915  25.660  0.00  0.00    -0.061 C 
HETATM   28  C   UNL     1       6.963  14.539  26.950  0.00  0.00     0.048 C 
HETATM   29  C   UNL     1       4.982  15.388  25.654  0.00  0.00     0.007 C 
HETATM   30  C   UNL     1       4.398  15.819  24.465  0.00  0.00     0.001 C 
HETATM   31  C   UNL     1       5.141  15.823  23.284  0.00  0.00     0.007 C 
ENDBRANCH  24  25
ENDBRANCH   8  24
TORSDOF 5
ENDMDL
MODEL 6
REMARK VINA RESULT:    -8.352      4.704      6.742
REMARK INTER + INTRA:         -11.320
REMARK INTER:                 -10.102
REMARK INTRA:                  -1.218
REMARK UNBOUND:                -0.771
REMARK  5 active torsions:
REMARK  status: ('A' for Active; 'I' for Inactive)
REMARK    1  A    between atoms: C_5  and  N_6 
REMARK       I    between atoms: N_6  and  C_7 
REMARK    2  A    between atoms: C_7  and  C_9 
REMARK    3  A    between atoms: C_10  and  O_11 
REMARK    4  A    between atoms: C_17  and  C_18 
REMARK    5  A    between atoms: C_18  and  C_19 
ROOT
HETATM    1  C   UNL     1       8.216  10.881  23.745  0.00  0.00     0.066 C 
HETATM    2  C   UNL     1       9.015  10.703  24.885  0.00  0.00     0.083 C 
HETATM    3  C   UNL     1       9.265  11.748  25.789  0.00  0.00     0.069 C 
HETATM    4  C   UNL     1       8.682  12.992  25.509  0.00  0.00     0.065 A 
HETATM    5  N   UNL     1       8.702  14.178  26.175  0.00  0.00    -0.277 N 
HETATM    6  H   UNL     1       9.156  14.384  27.057  0.00  0.00     0.189 HD
HETATM    7  N   UNL     1       7.998  15.158  25.581  0.00  0.00    -0.178 NA
HETATM    8  C   UNL     1       7.526  14.589  24.455  0.00  0.00     0.071 A 
HETATM    9  C   UNL     1       7.937  13.225  24.359  0.00  0.00     0.020 A 
HETATM   10  C   UNL     1       7.761  12.175  23.433  0.00  0.00     0.035 C 
ENDROOT
BRANCH   1  11
HETATM   11  C   UNL     1       7.888   9.705  22.870  0.00  0.00     0.260 C 
HETATM   12  N   UNL     1       6.629   9.058  22.981  0.00  0.00    -0.318 N 
HETATM   13  C   UNL     1       5.719   9.355  24.096  0.00  0.00     0.159 C 
HETATM   14  O   UNL     1       8.798   9.370  22.107  0.00  0.00    -0.267 OA
BRANCH  12  15
HETATM   15  C   UNL     1       6.216   7.962  22.124  0.00  0.00     0.037 A 
HETATM   16  C   UNL     1       5.296   8.109  21.079  0.00  0.00     0.031 A 
HETATM   17  C   UNL     1       5.029   7.054  20.187  0.00  0.00     0.021 A 
HETATM   18  C   UNL     1       5.667   5.828  20.339  0.00  0.00     0.011 A 
HETATM   19 BR   UNL     1       5.364   4.434  19.102  0.00  0.00    -0.051 Br
HETATM   20  C   UNL     1       6.541   5.633  21.398  0.00  0.00     0.021 A 
HETATM   21  C   UNL     1       6.800   6.687  22.284  0.00  0.00     0.031 A 
ENDBRANCH  12  15
ENDBRANCH   1  11
BRANCH   2  22
HETATM   22  O   UNL     1       9.616   9.509  25.193  0.00  0.00    -0.360 OA
HETATM   23  H   UNL     1      10.453   9.717  25.667  0.00  0.00     0.217 HD
ENDBRANCH   2  22
BRANCH   8  24
HETATM   24  C   UNL     1       6.623  15.380  23.552  0.00  0.00     0.100 C 
BRANCH  24  25
HETATM   25  C   UNL     1       5.175  15.167  23.936  0.00  0.00    -0.052 C 
HETATM   26  C   UNL     1       4.328  14.250  23.293  0.00  0.00     0.014 C 
HETATM   27  C   UNL     1       3.045  13.984  23.785  0.00  0.00    -0.061 C 
HETATM   28  C   UNL     1       2.238  12.854  23.219  0.00  0.00     0.048 C 
HETATM   29  C   UNL     1       2.542  14.756  24.837  0.00  0.00     0.007 C 
HETATM   30  C   UNL     1       3.329  15.747  25.417  0.00  0.00     0.001 C 
HETATM   31  C   UNL     1       4.641  15.941  24.981  0.00  0.00     0.007 C 
ENDBRANCH  24  25
ENDBRANCH   8  24
TORSDOF 5
ENDMDL
MODEL 7
REMARK VINA RESULT:    -8.265      4.728     10.290
REMARK INTER + INTRA:         -11.211
REMARK INTER:                 -10.130
REMARK INTRA:                  -1.081
REMARK UNBOUND:                -0.771
REMARK  5 active torsions:
REMARK  status: ('A' for Active; 'I' for Inactive)
REMARK    1  A    between atoms: C_5  and  N_6 
REMARK       I    between atoms: N_6  and  C_7 
REMARK    2  A    between atoms: C_7  and  C_9 
REMARK    3  A    between atoms: C_10  and  O_11 
REMARK    4  A    between atoms: C_17  and  C_18 
REMARK    5  A    between atoms: C_18  and  C_19 
ROOT
HETATM    1  C   UNL     1       0.789  12.596  23.995  0.00  0.00     0.066 C 
HETATM    2  C   UNL     1      -0.173  12.950  23.036  0.00  0.00     0.083 C 
HETATM    3  C   UNL     1      -1.543  12.720  23.238  0.00  0.00     0.069 C 
HETATM    4  C   UNL     1      -1.922  12.116  24.444  0.00  0.00     0.065 A 
HETATM    5  N   UNL     1      -3.139  11.783  24.954  0.00  0.00    -0.277 N 
HETATM    6  H   UNL     1      -4.049  11.937  24.534  0.00  0.00     0.189 HD
HETATM    7  N   UNL     1      -3.092  11.217  26.172  0.00  0.00    -0.178 NA
HETATM    8  C   UNL     1      -1.777  11.148  26.455  0.00  0.00     0.071 A 
HETATM    9  C   UNL     1      -0.997  11.694  25.391  0.00  0.00     0.020 A 
HETATM   10  C   UNL     1       0.379  11.875  25.131  0.00  0.00     0.035 C 
ENDROOT
BRANCH   1  11
HETATM   11  C   UNL     1       2.229  12.965  23.781  0.00  0.00     0.260 C 
HETATM   12  N   UNL     1       2.865  13.902  24.638  0.00  0.00    -0.318 N 
HETATM   13  C   UNL     1       2.088  14.707  25.591  0.00  0.00     0.159 C 
HETATM   14  O   UNL     1       2.757  12.410  22.813  0.00  0.00    -0.267 OA
BRANCH  12  15
HETATM   15  C   UNL     1       4.269  14.254  24.535  0.00  0.00     0.037 A 
HETATM   16  C   UNL     1       5.267  13.672  25.327  0.00  0.00     0.031 A 
HETATM   17  C   UNL     1       6.629  13.940  25.099  0.00  0.00     0.021 A 
HETATM   18  C   UNL     1       7.012  14.811  24.086  0.00  0.00     0.011 A 
HETATM   19 BR   UNL     1       8.842  15.118  23.733  0.00  0.00    -0.051 Br
HETATM   20  C   UNL     1       6.046  15.448  23.322  0.00  0.00     0.021 A 
HETATM   21  C   UNL     1       4.692  15.178  23.555  0.00  0.00     0.031 A 
ENDBRANCH  12  15
ENDBRANCH   1  11
BRANCH   2  22
HETATM   22  O   UNL     1       0.151  13.531  21.836  0.00  0.00    -0.360 OA
HETATM   23  H   UNL     1       1.109  13.753  21.869  0.00  0.00     0.217 HD
ENDBRANCH   2  22
BRANCH   8  24
HETATM   24  C   UNL     1      -1.336  10.620  27.790  0.00  0.00     0.100 C 
BRANCH  24  25
HETATM   25  C   UNL     1      -1.219   9.111  27.746  0.00  0.00    -0.052 C 
HETATM   26  C   UNL     1      -0.393   8.422  26.844  0.00  0.00     0.014 C 
HETATM   27  C   UNL     1      -0.208   7.039  26.946  0.00  0.00    -0.061 C 
HETATM   28  C   UNL     1       0.836   6.353  26.117  0.00  0.00     0.048 C 
HETATM   29  C   UNL     1      -0.978   6.311  27.858  0.00  0.00     0.007 C 
HETATM   30  C   UNL     1      -1.886   6.965  28.687  0.00  0.00     0.001 C 
HETATM   31  C   UNL     1      -1.994   8.356  28.643  0.00  0.00     0.007 C 
ENDBRANCH  24  25
ENDBRANCH   8  24
TORSDOF 5
ENDMDL
MODEL 8
REMARK VINA RESULT:    -8.198      3.203      4.860
REMARK INTER + INTRA:         -11.126
REMARK INTER:                  -9.757
REMARK INTRA:                  -1.368
REMARK UNBOUND:                -0.771
REMARK  5 active torsions:
REMARK  status: ('A' for Active; 'I' for Inactive)
REMARK    1  A    between atoms: C_5  and  N_6 
REMARK       I    between atoms: N_6  and  C_7 
REMARK    2  A    between atoms: C_7  and  C_9 
REMARK    3  A    between atoms: C_10  and  O_11 
REMARK    4  A    between atoms: C_17  and  C_18 
REMARK    5  A    between atoms: C_18  and  C_19 
ROOT
HETATM    1  C   UNL     1       6.366  10.166  24.048  0.00  0.00     0.066 C 
HETATM    2  C   UNL     1       7.033   8.969  24.351  0.00  0.00     0.083 C 
HETATM    3  C   UNL     1       8.395   8.944  24.694  0.00  0.00     0.069 C 
HETATM    4  C   UNL     1       9.072  10.171  24.723  0.00  0.00     0.065 A 
HETATM    5  N   UNL     1      10.357  10.495  25.033  0.00  0.00    -0.277 N 
HETATM    6  H   UNL     1      11.097   9.871  25.334  0.00  0.00     0.189 HD
HETATM    7  N   UNL     1      10.630  11.809  24.953  0.00  0.00    -0.178 NA
HETATM    8  C   UNL     1       9.475  12.362  24.538  0.00  0.00     0.071 A 
HETATM    9  C   UNL     1       8.463  11.369  24.369  0.00  0.00     0.020 A 
HETATM   10  C   UNL     1       7.113  11.355  23.961  0.00  0.00     0.035 C 
ENDROOT
BRANCH   1  11
HETATM   11  C   UNL     1       4.884  10.153  23.796  0.00  0.00     0.260 C 
HETATM   12  N   UNL     1       4.005  10.864  24.654  0.00  0.00    -0.318 N 
HETATM   13  C   UNL     1       4.477  11.423  25.930  0.00  0.00     0.159 C 
HETATM   14  O   UNL     1       4.540   9.471  22.827  0.00  0.00    -0.267 OA
BRANCH  12  15
HETATM   15  C   UNL     1       2.573  10.953  24.435  0.00  0.00     0.037 A 
HETATM   16  C   UNL     1       1.681   9.924  24.759  0.00  0.00     0.031 A 
HETATM   17  C   UNL     1       0.289  10.105  24.659  0.00  0.00     0.021 A 
HETATM   18  C   UNL     1      -0.230  11.315  24.214  0.00  0.00     0.011 A 
HETATM   19 BR   UNL     1      -2.098  11.585  24.145  0.00  0.00    -0.051 Br
HETATM   20  C   UNL     1       0.628  12.335  23.831  0.00  0.00     0.021 A 
HETATM   21  C   UNL     1       2.013  12.147  23.931  0.00  0.00     0.031 A 
ENDBRANCH  12  15
ENDBRANCH   1  11
BRANCH   2  22
HETATM   22  O   UNL     1       6.415   7.745  24.323  0.00  0.00    -0.360 OA
HETATM   23  H   UNL     1       5.560   7.860  23.851  0.00  0.00     0.217 HD
ENDBRANCH   2  22
BRANCH   8  24
HETATM   24  C   UNL     1       9.381  13.855  24.394  0.00  0.00     0.100 C 
BRANCH  24  25
HETATM   25  C   UNL     1       8.041  14.348  24.897  0.00  0.00    -0.052 C 
HETATM   26  C   UNL     1       7.087  14.970  24.078  0.00  0.00     0.014 C 
HETATM   27  C   UNL     1       5.807  15.270  24.559  0.00  0.00    -0.061 C 
HETATM   28  C   UNL     1       4.735  15.735  23.619  0.00  0.00     0.048 C 
HETATM   29  C   UNL     1       5.528  15.091  25.917  0.00  0.00     0.007 C 
HETATM   30  C   UNL     1       6.501  14.577  26.770  0.00  0.00     0.001 C 
HETATM   31  C   UNL     1       7.742  14.194  26.262  0.00  0.00     0.007 C 
ENDBRANCH  24  25
ENDBRANCH   8  24
TORSDOF 5
ENDMDL
MODEL 9
REMARK VINA RESULT:    -8.095      4.104      5.995
REMARK INTER + INTRA:         -10.995
REMARK INTER:                 -10.224
REMARK INTRA:                  -0.771
REMARK UNBOUND:                -0.771
REMARK  5 active torsions:
REMARK  status: ('A' for Active; 'I' for Inactive)
REMARK    1  A    between atoms: C_5  and  N_6 
REMARK       I    between atoms: N_6  and  C_7 
REMARK    2  A    between atoms: C_7  and  C_9 
REMARK    3  A    between atoms: C_10  and  O_11 
REMARK    4  A    between atoms: C_17  and  C_18 
REMARK    5  A    between atoms: C_18  and  C_19 
ROOT
HETATM    1  C   UNL     1       6.598   9.999  23.805  0.00  0.00     0.066 C 
HETATM    2  C   UNL     1       7.396   9.622  22.714  0.00  0.00     0.083 C 
HETATM    3  C   UNL     1       8.377  10.473  22.181  0.00  0.00     0.069 C 
HETATM    4  C   UNL     1       8.534  11.728  22.783  0.00  0.00     0.065 A 
HETATM    5  N   UNL     1       9.389  12.758  22.536  0.00  0.00    -0.277 N 
HETATM    6  H   UNL     1      10.123  12.798  21.838  0.00  0.00     0.189 HD
HETATM    7  N   UNL     1       9.235  13.814  23.354  0.00  0.00    -0.178 NA
HETATM    8  C   UNL     1       8.206  13.467  24.151  0.00  0.00     0.071 A 
HETATM    9  C   UNL     1       7.723  12.163  23.825  0.00  0.00     0.020 A 
HETATM   10  C   UNL     1       6.698  11.314  24.294  0.00  0.00     0.035 C 
ENDROOT
BRANCH   1  11
HETATM   11  C   UNL     1       5.641   9.011  24.409  0.00  0.00     0.260 C 
HETATM   12  N   UNL     1       4.261   9.324  24.517  0.00  0.00    -0.318 N 
HETATM   13  C   UNL     1       3.771  10.688  24.272  0.00  0.00     0.159 C 
HETATM   14  O   UNL     1       6.169   7.966  24.800  0.00  0.00    -0.267 OA
BRANCH  12  15
HETATM   15  C   UNL     1       3.268   8.395  25.025  0.00  0.00     0.037 A 
HETATM   16  C   UNL     1       3.144   8.069  26.381  0.00  0.00     0.031 A 
HETATM   17  C   UNL     1       2.082   7.273  26.847  0.00  0.00     0.021 A 
HETATM   18  C   UNL     1       1.136   6.775  25.958  0.00  0.00     0.011 A 
HETATM   19 BR   UNL     1      -0.329   5.765  26.589  0.00  0.00    -0.051 Br
HETATM   20  C   UNL     1       1.263   7.033  24.601  0.00  0.00     0.021 A 
HETATM   21  C   UNL     1       2.324   7.824  24.144  0.00  0.00     0.031 A 
ENDBRANCH  12  15
ENDBRANCH   1  11
BRANCH   2  22
HETATM   22  O   UNL     1       7.269   8.410  22.083  0.00  0.00    -0.360 OA
HETATM   23  H   UNL     1       6.740   7.828  22.674  0.00  0.00     0.217 HD
ENDBRANCH   2  22
BRANCH   8  24
HETATM   24  C   UNL     1       7.783  14.394  25.255  0.00  0.00     0.100 C 
BRANCH  24  25
HETATM   25  C   UNL     1       6.406  14.955  24.972  0.00  0.00    -0.052 C 
HETATM   26  C   UNL     1       5.403  15.078  25.945  0.00  0.00     0.014 C 
HETATM   27  C   UNL     1       4.202  15.741  25.666  0.00  0.00    -0.061 C 
HETATM   28  C   UNL     1       3.236  16.053  26.769  0.00  0.00     0.048 C 
HETATM   29  C   UNL     1       3.933  16.146  24.355  0.00  0.00     0.007 C 
HETATM   30  C   UNL     1       4.873  15.932  23.349  0.00  0.00     0.001 C 
HETATM   31  C   UNL     1       6.106  15.355  23.658  0.00  0.00     0.007 C 
ENDBRANCH  24  25
ENDBRANCH   8  24
TORSDOF 5
ENDMDL
