MODEL 1
REMARK VINA RESULT:    -9.698      0.000      0.000
REMARK INTER + INTRA:         -13.593
REMARK INTER:                 -12.399
REMARK INTRA:                  -1.193
REMARK UNBOUND:                -1.343
REMARK  5 active torsions:
REMARK  status: ('A' for Active; 'I' for Inactive)
REMARK    1  A    between atoms: N_2  and  C_5 
REMARK    2  A    between atoms: C_5  and  C_6 
REMARK    3  A    between atoms: C_11  and  C_12 
REMARK    4  A    between atoms: C_19  and  N_20 
REMARK    5  A    between atoms: C_22  and  C_23 
REMARK       I    between atoms: C_23  and  N_25 
ROOT
HETATM    1  C   UNL     1       6.517  15.078  23.036  0.00  0.00    -0.024 C 
HETATM    2  C   UNL     1       5.929  13.993  22.370  0.00  0.00     0.028 C 
HETATM    3  C   UNL     1       5.618  15.925  23.697  0.00  0.00     0.014 C 
HETATM    4  C   UNL     1       4.239  15.665  23.713  0.00  0.00     0.033 C 
HETATM    5  C   UNL     1       3.702  14.503  23.180  0.00  0.00     0.073 A 
HETATM    6  C   UNL     1       4.564  13.615  22.542  0.00  0.00     0.028 A 
HETATM    7  N   UNL     1       2.402  14.268  23.339  0.00  0.00    -0.218 NA
HETATM    8  C   UNL     1       1.921  13.095  22.937  0.00  0.00     0.200 A 
HETATM    9  N   UNL     1       2.644  12.134  22.377  0.00  0.00    -0.212 NA
HETATM   10  C   UNL     1       3.955  12.389  22.188  0.00  0.00     0.140 A 
ENDROOT
BRANCH   1  11
HETATM   11  C   UNL     1       8.001  15.307  23.102  0.00  0.00    -0.018 A 
HETATM   12  C   UNL     1       8.824  15.011  24.240  0.00  0.00    -0.022 A 
HETATM   13  C   UNL     1      10.205  15.321  24.195  0.00  0.00     0.010 A 
HETATM   14  C   UNL     1      10.776  15.943  23.086  0.00  0.00     0.001 A 
HETATM   15  C   UNL     1       9.991  16.239  21.986  0.00  0.00     0.001 A 
HETATM   16  C   UNL     1       8.633  15.914  21.993  0.00  0.00     0.013 A 
BRANCH  12  17
HETATM   17  C   UNL     1       8.266  14.295  25.451  0.00  0.00     0.271 C 
BRANCH  17  18
HETATM   18  N   UNL     1       8.810  12.941  25.775  0.00  0.00    -0.075 N 
HETATM   19  C   UNL     1       8.515  11.962  24.689  0.00  0.00     0.267 C 
HETATM   20  H   UNL     1       8.390  12.625  26.657  0.00  0.00     0.277 HD
HETATM   21  H   UNL     1       9.821  12.990  25.914  0.00  0.00     0.277 HD
ENDBRANCH  17  18
ENDBRANCH  12  17
ENDBRANCH   1  11
BRANCH  10  22
HETATM   22  C   UNL     1       4.815  11.180  21.853  0.00  0.00     0.273 C 
HETATM   23  O   UNL     1       5.305  10.523  22.783  0.00  0.00    -0.266 OA
HETATM   24  N   UNL     1       5.003  10.743  20.545  0.00  0.00    -0.342 N 
HETATM   25  C   UNL     1       4.633  11.344  19.256  0.00  0.00     0.139 C 
HETATM   26  C   UNL     1       5.639   9.458  20.316  0.00  0.00     0.161 C 
HETATM   27  C   UNL     1       4.220  10.138  18.413  0.00  0.00     0.056 C 
HETATM   28  C   UNL     1       5.065   9.032  19.005  0.00  0.00    -0.056 C 
HETATM   29  C   UNL     1       4.355  10.182  16.916  0.00  0.00    -0.020 C 
HETATM   30  C   UNL     1       5.260   7.876  18.348  0.00  0.00    -0.018 C 
HETATM   31  C   UNL     1       4.737   7.704  16.941  0.00  0.00     0.054 C 
HETATM   32  C   UNL     1       4.552   9.032  16.237  0.00  0.00    -0.026 C 
ENDBRANCH  10  22
BRANCH   8  33
HETATM   33  N   UNL     1       0.578  12.863  23.128  0.00  0.00    -0.271 NA
HETATM   34  H   UNL     1       0.213  13.416  23.892  0.00  0.00     0.127 HD
HETATM   35  H   UNL     1       0.058  12.857  22.264  0.00  0.00     0.127 HD
ENDBRANCH   8  33
TORSDOF 5
ENDMDL
MODEL 2
REMARK VINA RESULT:    -9.132      1.425      2.284
REMARK INTER + INTRA:         -12.877
REMARK INTER:                 -12.023
REMARK INTRA:                  -0.854
REMARK UNBOUND:                -1.343
REMARK  5 active torsions:
REMARK  status: ('A' for Active; 'I' for Inactive)
REMARK    1  A    between atoms: N_2  and  C_5 
REMARK    2  A    between atoms: C_5  and  C_6 
REMARK    3  A    between atoms: C_11  and  C_12 
REMARK    4  A    between atoms: C_19  and  N_20 
REMARK    5  A    between atoms: C_22  and  C_23 
REMARK       I    between atoms: C_23  and  N_25 
ROOT
HETATM    1  C   UNL     1       6.890  15.044  23.504  0.00  0.00    -0.024 C 
HETATM    2  C   UNL     1       6.385  14.068  22.633  0.00  0.00     0.028 C 
HETATM    3  C   UNL     1       5.923  15.870  24.091  0.00  0.00     0.014 C 
HETATM    4  C   UNL     1       4.553  15.689  23.845  0.00  0.00     0.033 C 
HETATM    5  C   UNL     1       4.073  14.619  23.104  0.00  0.00     0.073 A 
HETATM    6  C   UNL     1       4.998  13.752  22.529  0.00  0.00     0.028 A 
HETATM    7  N   UNL     1       2.757  14.444  23.014  0.00  0.00    -0.218 NA
HETATM    8  C   UNL     1       2.309  13.347  22.411  0.00  0.00     0.200 A 
HETATM    9  N   UNL     1       3.080  12.408  21.881  0.00  0.00    -0.212 NA
HETATM   10  C   UNL     1       4.413  12.605  21.945  0.00  0.00     0.140 A 
ENDROOT
BRANCH   1  11
HETATM   11  C   UNL     1       8.347  15.180  23.845  0.00  0.00    -0.018 A 
HETATM   12  C   UNL     1       9.341  15.744  22.977  0.00  0.00    -0.022 A 
HETATM   13  C   UNL     1      10.693  15.769  23.395  0.00  0.00     0.010 A 
HETATM   14  C   UNL     1      11.088  15.223  24.616  0.00  0.00     0.001 A 
HETATM   15  C   UNL     1      10.140  14.672  25.459  0.00  0.00     0.001 A 
HETATM   16  C   UNL     1       8.795  14.663  25.082  0.00  0.00     0.013 A 
BRANCH  12  17
HETATM   17  C   UNL     1       8.962  16.392  21.661  0.00  0.00     0.271 C 
BRANCH  17  18
HETATM   18  N   UNL     1       9.842  17.480  21.140  0.00  0.00    -0.075 N 
HETATM   19  C   UNL     1       9.041  18.622  20.610  0.00  0.00     0.267 C 
HETATM   20  H   UNL     1      10.433  17.091  20.395  0.00  0.00     0.277 HD
HETATM   21  H   UNL     1      10.461  17.821  21.878  0.00  0.00     0.277 HD
ENDBRANCH  17  18
ENDBRANCH  12  17
ENDBRANCH   1  11
BRANCH  10  22
HETATM   22  C   UNL     1       5.271  11.389  21.631  0.00  0.00     0.273 C 
HETATM   23  O   UNL     1       5.862  10.822  22.561  0.00  0.00    -0.266 OA
HETATM   24  N   UNL     1       5.348  10.847  20.352  0.00  0.00    -0.342 N 
HETATM   25  C   UNL     1       4.844  11.330  19.058  0.00  0.00     0.139 C 
HETATM   26  C   UNL     1       5.995   9.559  20.169  0.00  0.00     0.161 C 
HETATM   27  C   UNL     1       4.387  10.049  18.360  0.00  0.00     0.056 C 
HETATM   28  C   UNL     1       5.313   9.013  18.959  0.00  0.00    -0.056 C 
HETATM   29  C   UNL     1       4.381   9.968  16.859  0.00  0.00    -0.020 C 
HETATM   30  C   UNL     1       5.477   7.810  18.383  0.00  0.00    -0.018 C 
HETATM   31  C   UNL     1       4.831   7.509  17.051  0.00  0.00     0.054 C 
HETATM   32  C   UNL     1       4.545   8.770  16.261  0.00  0.00    -0.026 C 
ENDBRANCH  10  22
BRANCH   8  33
HETATM   33  N   UNL     1       0.945  13.174  22.346  0.00  0.00    -0.271 NA
HETATM   34  H   UNL     1       0.656  12.331  22.823  0.00  0.00     0.127 HD
HETATM   35  H   UNL     1       0.436  14.022  22.544  0.00  0.00     0.127 HD
ENDBRANCH   8  33
TORSDOF 5
ENDMDL
MODEL 3
REMARK VINA RESULT:    -9.072      2.351      3.725
REMARK INTER + INTRA:         -12.801
REMARK INTER:                 -11.958
REMARK INTRA:                  -0.843
REMARK UNBOUND:                -1.343
REMARK  5 active torsions:
REMARK  status: ('A' for Active; 'I' for Inactive)
REMARK    1  A    between atoms: N_2  and  C_5 
REMARK    2  A    between atoms: C_5  and  C_6 
REMARK    3  A    between atoms: C_11  and  C_12 
REMARK    4  A    between atoms: C_19  and  N_20 
REMARK    5  A    between atoms: C_22  and  C_23 
REMARK       I    between atoms: C_23  and  N_25 
ROOT
HETATM    1  C   UNL     1       6.454  15.184  22.927  0.00  0.00    -0.024 C 
HETATM    2  C   UNL     1       5.843  14.080  22.317  0.00  0.00     0.028 C 
HETATM    3  C   UNL     1       5.590  16.015  23.651  0.00  0.00     0.014 C 
HETATM    4  C   UNL     1       4.223  15.722  23.777  0.00  0.00     0.033 C 
HETATM    5  C   UNL     1       3.674  14.542  23.296  0.00  0.00     0.073 A 
HETATM    6  C   UNL     1       4.506  13.670  22.599  0.00  0.00     0.028 A 
HETATM    7  N   UNL     1       2.397  14.277  23.558  0.00  0.00    -0.218 NA
HETATM    8  C   UNL     1       1.916  13.090  23.204  0.00  0.00     0.200 A 
HETATM    9  N   UNL     1       2.616  12.142  22.596  0.00  0.00    -0.212 NA
HETATM   10  C   UNL     1       3.901  12.426  22.302  0.00  0.00     0.140 A 
ENDROOT
BRANCH   1  11
HETATM   11  C   UNL     1       7.932  15.450  22.874  0.00  0.00    -0.018 A 
HETATM   12  C   UNL     1       8.829  15.309  23.986  0.00  0.00    -0.022 A 
HETATM   13  C   UNL     1      10.196  15.639  23.820  0.00  0.00     0.010 A 
HETATM   14  C   UNL     1      10.684  16.136  22.613  0.00  0.00     0.001 A 
HETATM   15  C   UNL     1       9.828  16.282  21.536  0.00  0.00     0.001 A 
HETATM   16  C   UNL     1       8.482  15.933  21.664  0.00  0.00     0.013 A 
BRANCH  12  17
HETATM   17  C   UNL     1       8.363  14.731  25.306  0.00  0.00     0.271 C 
BRANCH  17  18
HETATM   18  N   UNL     1       9.403  14.343  26.305  0.00  0.00    -0.075 N 
HETATM   19  C   UNL     1       9.777  15.495  27.177  0.00  0.00     0.267 C 
HETATM   20  H   UNL     1      10.229  14.004  25.798  0.00  0.00     0.277 HD
HETATM   21  H   UNL     1       9.064  13.577  26.891  0.00  0.00     0.277 HD
ENDBRANCH  17  18
ENDBRANCH  12  17
ENDBRANCH   1  11
BRANCH  10  22
HETATM   22  C   UNL     1       4.762  11.235  21.909  0.00  0.00     0.273 C 
HETATM   23  O   UNL     1       4.457  10.590  20.896  0.00  0.00    -0.266 OA
HETATM   24  N   UNL     1       5.922  10.899  22.601  0.00  0.00    -0.342 N 
HETATM   25  C   UNL     1       6.486  11.407  23.860  0.00  0.00     0.139 C 
HETATM   26  C   UNL     1       6.814   9.901  22.038  0.00  0.00     0.161 C 
HETATM   27  C   UNL     1       7.990  11.420  23.588  0.00  0.00     0.056 C 
HETATM   28  C   UNL     1       8.144  10.294  22.591  0.00  0.00    -0.056 C 
HETATM   29  C   UNL     1       8.964  11.275  24.725  0.00  0.00    -0.020 C 
HETATM   30  C   UNL     1       9.345   9.746  22.337  0.00  0.00    -0.018 C 
HETATM   31  C   UNL     1      10.556  10.165  23.138  0.00  0.00     0.054 C 
HETATM   32  C   UNL     1      10.174  10.727  24.492  0.00  0.00    -0.026 C 
ENDBRANCH  10  22
BRANCH   8  33
HETATM   33  N   UNL     1       0.598  12.827  23.502  0.00  0.00    -0.271 NA
HETATM   34  H   UNL     1       0.516  12.172  24.268  0.00  0.00     0.127 HD
HETATM   35  H   UNL     1       0.034  13.663  23.538  0.00  0.00     0.127 HD
ENDBRANCH   8  33
TORSDOF 5
ENDMDL
MODEL 4
REMARK VINA RESULT:    -8.972      2.024      3.109
REMARK INTER + INTRA:         -12.676
REMARK INTER:                 -11.623
REMARK INTRA:                  -1.053
REMARK UNBOUND:                -1.343
REMARK  5 active torsions:
REMARK  status: ('A' for Active; 'I' for Inactive)
REMARK    1  A    between atoms: N_2  and  C_5 
REMARK    2  A    between atoms: C_5  and  C_6 
REMARK    3  A    between atoms: C_11  and  C_12 
REMARK    4  A    between atoms: C_19  and  N_20 
REMARK    5  A    between atoms: C_22  and  C_23 
REMARK       I    between atoms: C_23  and  N_25 
ROOT
HETATM    1  C   UNL     1       6.318  15.212  23.232  0.00  0.00    -0.024 C 
HETATM    2  C   UNL     1       5.620  14.337  22.387  0.00  0.00     0.028 C 
HETATM    3  C   UNL     1       5.524  15.903  24.155  0.00  0.00     0.014 C 
HETATM    4  C   UNL     1       4.139  15.690  24.240  0.00  0.00     0.033 C 
HETATM    5  C   UNL     1       3.499  14.706  23.501  0.00  0.00     0.073 A 
HETATM    6  C   UNL     1       4.257  13.970  22.593  0.00  0.00     0.028 A 
HETATM    7  N   UNL     1       2.207  14.480  23.722  0.00  0.00    -0.218 NA
HETATM    8  C   UNL     1       1.633  13.453  23.102  0.00  0.00     0.200 A 
HETATM    9  N   UNL     1       2.255  12.633  22.267  0.00  0.00    -0.212 NA
HETATM   10  C   UNL     1       3.557  12.884  22.019  0.00  0.00     0.140 A 
ENDROOT
BRANCH   1  11
HETATM   11  C   UNL     1       7.812  15.373  23.209  0.00  0.00    -0.018 A 
HETATM   12  C   UNL     1       8.677  15.136  24.330  0.00  0.00    -0.022 A 
HETATM   13  C   UNL     1      10.066  15.372  24.195  0.00  0.00     0.010 A 
HETATM   14  C   UNL     1      10.609  15.869  23.011  0.00  0.00     0.001 A 
HETATM   15  C   UNL     1       9.784  16.107  21.926  0.00  0.00     0.001 A 
HETATM   16  C   UNL     1       8.415  15.851  22.023  0.00  0.00     0.013 A 
BRANCH  12  17
HETATM   17  C   UNL     1       8.148  14.554  25.624  0.00  0.00     0.271 C 
BRANCH  17  18
HETATM   18  N   UNL     1       7.999  13.070  25.713  0.00  0.00    -0.075 N 
HETATM   19  C   UNL     1       6.563  12.667  25.728  0.00  0.00     0.267 C 
HETATM   20  H   UNL     1       8.463  12.748  26.571  0.00  0.00     0.277 HD
HETATM   21  H   UNL     1       8.464  12.619  24.923  0.00  0.00     0.277 HD
ENDBRANCH  17  18
ENDBRANCH  12  17
ENDBRANCH   1  11
BRANCH  10  22
HETATM   22  C   UNL     1       4.321  11.765  21.330  0.00  0.00     0.273 C 
HETATM   23  O   UNL     1       4.801  11.977  20.207  0.00  0.00    -0.266 OA
HETATM   24  N   UNL     1       4.566  10.543  21.949  0.00  0.00    -0.342 N 
HETATM   25  C   UNL     1       4.067   9.974  23.210  0.00  0.00     0.139 C 
HETATM   26  C   UNL     1       5.493   9.612  21.330  0.00  0.00     0.161 C 
HETATM   27  C   UNL     1       5.281   9.226  23.760  0.00  0.00     0.056 C 
HETATM   28  C   UNL     1       6.018   8.842  22.496  0.00  0.00    -0.056 C 
HETATM   29  C   UNL     1       5.091   8.037  24.661  0.00  0.00    -0.020 C 
HETATM   30  C   UNL     1       6.966   7.889  22.505  0.00  0.00    -0.018 C 
HETATM   31  C   UNL     1       7.231   7.091  23.760  0.00  0.00     0.054 C 
HETATM   32  C   UNL     1       6.030   7.070  24.683  0.00  0.00    -0.026 C 
ENDBRANCH  10  22
BRANCH   8  33
HETATM   33  N   UNL     1       0.300  13.224  23.360  0.00  0.00    -0.271 NA
HETATM   34  H   UNL     1      -0.171  14.070  23.649  0.00  0.00     0.127 HD
HETATM   35  H   UNL     1      -0.141  12.661  22.649  0.00  0.00     0.127 HD
ENDBRANCH   8  33
TORSDOF 5
ENDMDL
MODEL 5
REMARK VINA RESULT:    -8.255      2.483      4.313
REMARK INTER + INTRA:         -11.770
REMARK INTER:                 -11.227
REMARK INTRA:                  -0.543
REMARK UNBOUND:                -1.343
REMARK  5 active torsions:
REMARK  status: ('A' for Active; 'I' for Inactive)
REMARK    1  A    between atoms: N_2  and  C_5 
REMARK    2  A    between atoms: C_5  and  C_6 
REMARK    3  A    between atoms: C_11  and  C_12 
REMARK    4  A    between atoms: C_19  and  N_20 
REMARK    5  A    between atoms: C_22  and  C_23 
REMARK       I    between atoms: C_23  and  N_25 
ROOT
HETATM    1  C   UNL     1       6.655  15.128  23.544  0.00  0.00    -0.024 C 
HETATM    2  C   UNL     1       6.152  14.171  22.650  0.00  0.00     0.028 C 
HETATM    3  C   UNL     1       5.686  15.920  24.171  0.00  0.00     0.014 C 
HETATM    4  C   UNL     1       4.315  15.727  23.940  0.00  0.00     0.033 C 
HETATM    5  C   UNL     1       3.839  14.673  23.174  0.00  0.00     0.073 A 
HETATM    6  C   UNL     1       4.767  13.838  22.557  0.00  0.00     0.028 A 
HETATM    7  N   UNL     1       2.525  14.481  23.098  0.00  0.00    -0.218 NA
HETATM    8  C   UNL     1       2.083  13.397  22.467  0.00  0.00     0.200 A 
HETATM    9  N   UNL     1       2.860  12.487  21.896  0.00  0.00    -0.212 NA
HETATM   10  C   UNL     1       4.190  12.702  21.946  0.00  0.00     0.140 A 
ENDROOT
BRANCH   1  11
HETATM   11  C   UNL     1       8.116  15.275  23.867  0.00  0.00    -0.018 A 
HETATM   12  C   UNL     1       9.107  15.784  22.962  0.00  0.00    -0.022 A 
HETATM   13  C   UNL     1      10.461  15.825  23.370  0.00  0.00     0.010 A 
HETATM   14  C   UNL     1      10.862  15.346  24.616  0.00  0.00     0.001 A 
HETATM   15  C   UNL     1       9.917  14.847  25.495  0.00  0.00     0.001 A 
HETATM   16  C   UNL     1       8.570  14.825  25.129  0.00  0.00     0.013 A 
BRANCH  12  17
HETATM   17  C   UNL     1       8.721  16.360  21.616  0.00  0.00     0.271 C 
BRANCH  17  18
HETATM   18  N   UNL     1       9.680  17.297  20.957  0.00  0.00    -0.075 N 
HETATM   19  C   UNL     1       9.001  18.549  20.514  0.00  0.00     0.267 C 
HETATM   20  H   UNL     1      10.097  16.819  20.148  0.00  0.00     0.277 HD
HETATM   21  H   UNL     1      10.439  17.537  21.598  0.00  0.00     0.277 HD
ENDBRANCH  17  18
ENDBRANCH  12  17
ENDBRANCH   1  11
BRANCH  10  22
HETATM   22  C   UNL     1       5.061  11.509  21.581  0.00  0.00     0.273 C 
HETATM   23  O   UNL     1       4.846  10.923  20.510  0.00  0.00    -0.266 OA
HETATM   24  N   UNL     1       6.136  11.107  22.367  0.00  0.00    -0.342 N 
HETATM   25  C   UNL     1       6.579  11.537  23.702  0.00  0.00     0.139 C 
HETATM   26  C   UNL     1       7.059  10.114  21.846  0.00  0.00     0.161 C 
HETATM   27  C   UNL     1       8.103  11.523  23.584  0.00  0.00     0.056 C 
HETATM   28  C   UNL     1       8.333  10.444  22.550  0.00  0.00    -0.056 C 
HETATM   29  C   UNL     1       8.952  11.295  24.805  0.00  0.00    -0.020 C 
HETATM   30  C   UNL     1       9.542   9.877  22.391  0.00  0.00    -0.018 C 
HETATM   31  C   UNL     1      10.673  10.222  23.331  0.00  0.00     0.054 C 
HETATM   32  C   UNL     1      10.168  10.727  24.666  0.00  0.00    -0.026 C 
ENDBRANCH  10  22
BRANCH   8  33
HETATM   33  N   UNL     1       0.721  13.206  22.417  0.00  0.00    -0.271 NA
HETATM   34  H   UNL     1       0.331  13.552  21.550  0.00  0.00     0.127 HD
HETATM   35  H   UNL     1       0.447  12.284  22.719  0.00  0.00     0.127 HD
ENDBRANCH   8  33
TORSDOF 5
ENDMDL
MODEL 6
REMARK VINA RESULT:    -8.140      4.088      7.420
REMARK INTER + INTRA:         -11.625
REMARK INTER:                 -10.225
REMARK INTRA:                  -1.400
REMARK UNBOUND:                -1.343
REMARK  5 active torsions:
REMARK  status: ('A' for Active; 'I' for Inactive)
REMARK    1  A    between atoms: N_2  and  C_5 
REMARK    2  A    between atoms: C_5  and  C_6 
REMARK    3  A    between atoms: C_11  and  C_12 
REMARK    4  A    between atoms: C_19  and  N_20 
REMARK    5  A    between atoms: C_22  and  C_23 
REMARK       I    between atoms: C_23  and  N_25 
ROOT
HETATM    1  C   UNL     1       5.788  12.208  23.520  0.00  0.00    -0.024 C 
HETATM    2  C   UNL     1       6.943  11.748  22.871  0.00  0.00     0.028 C 
HETATM    3  C   UNL     1       5.065  11.226  24.209  0.00  0.00     0.014 C 
HETATM    4  C   UNL     1       5.505   9.894  24.268  0.00  0.00     0.033 C 
HETATM    5  C   UNL     1       6.730   9.500  23.751  0.00  0.00     0.073 A 
HETATM    6  C   UNL     1       7.499  10.452  23.086  0.00  0.00     0.028 A 
HETATM    7  N   UNL     1       7.135   8.248  23.950  0.00  0.00    -0.218 NA
HETATM    8  C   UNL     1       8.363   7.915  23.563  0.00  0.00     0.200 A 
HETATM    9  N   UNL     1       9.221   8.741  22.981  0.00  0.00    -0.212 NA
HETATM   10  C   UNL     1       8.796  10.000  22.751  0.00  0.00     0.140 A 
ENDROOT
BRANCH   1  11
HETATM   11  C   UNL     1       5.364  13.649  23.540  0.00  0.00    -0.018 A 
HETATM   12  C   UNL     1       6.250  14.760  23.738  0.00  0.00    -0.022 A 
HETATM   13  C   UNL     1       5.719  16.071  23.787  0.00  0.00     0.010 A 
HETATM   14  C   UNL     1       4.348  16.306  23.685  0.00  0.00     0.001 A 
HETATM   15  C   UNL     1       3.483  15.243  23.499  0.00  0.00     0.001 A 
HETATM   16  C   UNL     1       3.985  13.943  23.417  0.00  0.00     0.013 A 
BRANCH  12  17
HETATM   17  C   UNL     1       7.750  14.567  23.809  0.00  0.00     0.271 C 
BRANCH  17  18
HETATM   18  N   UNL     1       8.602  15.372  22.882  0.00  0.00    -0.075 N 
HETATM   19  C   UNL     1       8.650  14.766  21.520  0.00  0.00     0.267 C 
HETATM   20  H   UNL     1       9.550  15.425  23.276  0.00  0.00     0.277 HD
HETATM   21  H   UNL     1       8.244  16.327  22.810  0.00  0.00     0.277 HD
ENDBRANCH  17  18
ENDBRANCH  12  17
ENDBRANCH   1  11
BRANCH  10  22
HETATM   22  C   UNL     1       9.881  11.003  22.389  0.00  0.00     0.273 C 
HETATM   23  O   UNL     1      10.074  11.263  21.192  0.00  0.00    -0.266 OA
HETATM   24  N   UNL     1      10.605  11.692  23.356  0.00  0.00    -0.342 N 
HETATM   25  C   UNL     1      10.664  11.544  24.817  0.00  0.00     0.139 C 
HETATM   26  C   UNL     1      11.457  12.795  22.946  0.00  0.00     0.161 C 
HETATM   27  C   UNL     1      10.774  12.987  25.311  0.00  0.00     0.056 C 
HETATM   28  C   UNL     1      11.483  13.664  24.159  0.00  0.00    -0.056 C 
HETATM   29  C   UNL     1      11.452  13.288  26.619  0.00  0.00    -0.020 C 
HETATM   30  C   UNL     1      12.073  14.863  24.312  0.00  0.00    -0.018 C 
HETATM   31  C   UNL     1      12.146  15.506  25.677  0.00  0.00     0.054 C 
HETATM   32  C   UNL     1      12.051  14.484  26.792  0.00  0.00    -0.026 C 
ENDBRANCH  10  22
BRANCH   8  33
HETATM   33  N   UNL     1       8.770   6.621  23.796  0.00  0.00    -0.271 NA
HETATM   34  H   UNL     1       8.814   6.420  24.786  0.00  0.00     0.127 HD
HETATM   35  H   UNL     1       8.301   5.954  23.203  0.00  0.00     0.127 HD
ENDBRANCH   8  33
TORSDOF 5
ENDMDL
MODEL 7
REMARK VINA RESULT:    -8.136      1.952      5.389
REMARK INTER + INTRA:         -11.620
REMARK INTER:                 -10.306
REMARK INTRA:                  -1.313
REMARK UNBOUND:                -1.343
REMARK  5 active torsions:
REMARK  status: ('A' for Active; 'I' for Inactive)
REMARK    1  A    between atoms: N_2  and  C_5 
REMARK    2  A    between atoms: C_5  and  C_6 
REMARK    3  A    between atoms: C_11  and  C_12 
REMARK    4  A    between atoms: C_19  and  N_20 
REMARK    5  A    between atoms: C_22  and  C_23 
REMARK       I    between atoms: C_23  and  N_25 
ROOT
HETATM    1  C   UNL     1       4.627  14.243  23.702  0.00  0.00    -0.024 C 
HETATM    2  C   UNL     1       5.679  13.335  23.891  0.00  0.00     0.028 C 
HETATM    3  C   UNL     1       5.021  15.569  23.483  0.00  0.00     0.014 C 
HETATM    4  C   UNL     1       6.374  15.933  23.419  0.00  0.00     0.033 C 
HETATM    5  C   UNL     1       7.393  14.992  23.452  0.00  0.00     0.073 A 
HETATM    6  C   UNL     1       7.045  13.656  23.635  0.00  0.00     0.028 A 
HETATM    7  N   UNL     1       8.646  15.399  23.264  0.00  0.00    -0.218 NA
HETATM    8  C   UNL     1       9.599  14.477  23.171  0.00  0.00     0.200 A 
HETATM    9  N   UNL     1       9.396  13.170  23.259  0.00  0.00    -0.212 NA
HETATM   10  C   UNL     1       8.130  12.762  23.482  0.00  0.00     0.140 A 
ENDROOT
BRANCH   1  11
HETATM   11  C   UNL     1       3.179  13.842  23.675  0.00  0.00    -0.018 A 
HETATM   12  C   UNL     1       2.684  12.597  23.161  0.00  0.00    -0.022 A 
HETATM   13  C   UNL     1       1.289  12.359  23.145  0.00  0.00     0.010 A 
HETATM   14  C   UNL     1       0.380  13.322  23.581  0.00  0.00     0.001 A 
HETATM   15  C   UNL     1       0.845  14.529  24.073  0.00  0.00     0.001 A 
HETATM   16  C   UNL     1       2.218  14.776  24.129  0.00  0.00     0.013 A 
BRANCH  12  17
HETATM   17  C   UNL     1       3.627  11.498  22.719  0.00  0.00     0.271 C 
BRANCH  17  18
HETATM   18  N   UNL     1       3.430  10.134  23.295  0.00  0.00    -0.075 N 
HETATM   19  C   UNL     1       4.318   9.907  24.472  0.00  0.00     0.267 C 
HETATM   20  H   UNL     1       3.632   9.440  22.565  0.00  0.00     0.277 HD
HETATM   21  H   UNL     1       2.457  10.007  23.581  0.00  0.00     0.277 HD
ENDBRANCH  17  18
ENDBRANCH  12  17
ENDBRANCH   1  11
BRANCH  10  22
HETATM   22  C   UNL     1       7.870  11.280  23.258  0.00  0.00     0.273 C 
HETATM   23  O   UNL     1       7.979  10.506  24.219  0.00  0.00    -0.266 OA
HETATM   24  N   UNL     1       7.436  10.781  22.034  0.00  0.00    -0.342 N 
HETATM   25  C   UNL     1       7.298  11.419  20.716  0.00  0.00     0.139 C 
HETATM   26  C   UNL     1       6.987   9.402  21.954  0.00  0.00     0.161 C 
HETATM   27  C   UNL     1       6.021  10.792  20.156  0.00  0.00     0.056 C 
HETATM   28  C   UNL     1       6.015   9.434  20.821  0.00  0.00    -0.056 C 
HETATM   29  C   UNL     1       5.830  10.670  18.670  0.00  0.00    -0.020 C 
HETATM   30  C   UNL     1       5.245   8.434  20.357  0.00  0.00    -0.018 C 
HETATM   31  C   UNL     1       4.459   8.611  19.079  0.00  0.00     0.054 C 
HETATM   32  C   UNL     1       5.062   9.674  18.183  0.00  0.00    -0.026 C 
ENDBRANCH  10  22
BRANCH   8  33
HETATM   33  N   UNL     1      10.885  14.917  22.957  0.00  0.00    -0.271 NA
HETATM   34  H   UNL     1      11.430  14.235  22.447  0.00  0.00     0.127 HD
HETATM   35  H   UNL     1      10.921  15.874  22.642  0.00  0.00     0.127 HD
ENDBRANCH   8  33
TORSDOF 5
ENDMDL
MODEL 8
REMARK VINA RESULT:    -8.121      2.302      3.729
REMARK INTER + INTRA:         -11.601
REMARK INTER:                 -10.294
REMARK INTRA:                  -1.306
REMARK UNBOUND:                -1.343
REMARK  5 active torsions:
REMARK  status: ('A' for Active; 'I' for Inactive)
REMARK    1  A    between atoms: N_2  and  C_5 
REMARK    2  A    between atoms: C_5  and  C_6 
REMARK    3  A    between atoms: C_11  and  C_12 
REMARK    4  A    between atoms: C_19  and  N_20 
REMARK    5  A    between atoms: C_22  and  C_23 
REMARK       I    between atoms: C_23  and  N_25 
ROOT
HETATM    1  C   UNL     1       7.089  14.530  23.234  0.00  0.00    -0.024 C 
HETATM    2  C   UNL     1       6.281  13.862  22.302  0.00  0.00     0.028 C 
HETATM    3  C   UNL     1       6.394  15.272  24.196  0.00  0.00     0.014 C 
HETATM    4  C   UNL     1       4.991  15.298  24.233  0.00  0.00     0.033 C 
HETATM    5  C   UNL     1       4.217  14.504  23.399  0.00  0.00     0.073 A 
HETATM    6  C   UNL     1       4.869  13.724  22.447  0.00  0.00     0.028 A 
HETATM    7  N   UNL     1       2.898  14.490  23.572  0.00  0.00    -0.218 NA
HETATM    8  C   UNL     1       2.179  13.633  22.854  0.00  0.00     0.200 A 
HETATM    9  N   UNL     1       2.680  12.787  21.964  0.00  0.00    -0.212 NA
HETATM   10  C   UNL     1       4.013  12.827  21.767  0.00  0.00     0.140 A 
ENDROOT
BRANCH   1  11
HETATM   11  C   UNL     1       8.589  14.428  23.256  0.00  0.00    -0.018 A 
HETATM   12  C   UNL     1       9.476  15.236  22.469  0.00  0.00    -0.022 A 
HETATM   13  C   UNL     1      10.870  15.008  22.543  0.00  0.00     0.010 A 
HETATM   14  C   UNL     1      11.402  13.990  23.334  0.00  0.00     0.001 A 
HETATM   15  C   UNL     1      10.556  13.201  24.093  0.00  0.00     0.001 A 
HETATM   16  C   UNL     1       9.179  13.426  24.062  0.00  0.00     0.013 A 
BRANCH  12  17
HETATM   17  C   UNL     1       8.957  16.385  21.629  0.00  0.00     0.271 C 
BRANCH  17  18
HETATM   18  N   UNL     1       9.910  17.483  21.283  0.00  0.00    -0.075 N 
HETATM   19  C   UNL     1       9.247  18.542  20.468  0.00  0.00     0.267 C 
HETATM   20  H   UNL     1      10.696  17.078  20.760  0.00  0.00     0.277 HD
HETATM   21  H   UNL     1      10.289  17.904  22.134  0.00  0.00     0.277 HD
ENDBRANCH  17  18
ENDBRANCH  12  17
ENDBRANCH   1  11
BRANCH  10  22
HETATM   22  C   UNL     1       4.597  11.651  20.999  0.00  0.00     0.273 C 
HETATM   23  O   UNL     1       4.856  11.796  19.796  0.00  0.00    -0.266 OA
HETATM   24  N   UNL     1       4.923  10.449  21.620  0.00  0.00    -0.342 N 
HETATM   25  C   UNL     1       4.663   9.954  22.980  0.00  0.00     0.139 C 
HETATM   26  C   UNL     1       5.686   9.458  20.882  0.00  0.00     0.161 C 
HETATM   27  C   UNL     1       5.940   9.186  23.322  0.00  0.00     0.056 C 
HETATM   28  C   UNL     1       6.406   8.720  21.961  0.00  0.00    -0.056 C 
HETATM   29  C   UNL     1       5.895   8.045  24.301  0.00  0.00    -0.020 C 
HETATM   30  C   UNL     1       7.310   7.734  21.834  0.00  0.00    -0.018 C 
HETATM   31  C   UNL     1       7.792   6.982  23.053  0.00  0.00     0.054 C 
HETATM   32  C   UNL     1       6.793   7.046  24.190  0.00  0.00    -0.026 C 
ENDBRANCH  10  22
BRANCH   8  33
HETATM   33  N   UNL     1       0.818  13.620  23.063  0.00  0.00    -0.271 NA
HETATM   34  H   UNL     1       0.496  14.495  23.453  0.00  0.00     0.127 HD
HETATM   35  H   UNL     1       0.309  13.240  22.280  0.00  0.00     0.127 HD
ENDBRANCH   8  33
TORSDOF 5
ENDMDL
MODEL 9
REMARK VINA RESULT:    -7.995      3.117      5.967
REMARK INTER + INTRA:         -11.442
REMARK INTER:                 -10.099
REMARK INTRA:                  -1.343
REMARK UNBOUND:                -1.343
REMARK  5 active torsions:
REMARK  status: ('A' for Active; 'I' for Inactive)
REMARK    1  A    between atoms: N_2  and  C_5 
REMARK    2  A    between atoms: C_5  and  C_6 
REMARK    3  A    between atoms: C_11  and  C_12 
REMARK    4  A    between atoms: C_19  and  N_20 
REMARK    5  A    between atoms: C_22  and  C_23 
REMARK       I    between atoms: C_23  and  N_25 
ROOT
HETATM    1  C   UNL     1       9.293  10.135  23.457  0.00  0.00    -0.024 C 
HETATM    2  C   UNL     1       7.900  10.249  23.334  0.00  0.00     0.028 C 
HETATM    3  C   UNL     1       9.750   8.878  23.872  0.00  0.00     0.014 C 
HETATM    4  C   UNL     1       8.865   7.813  24.103  0.00  0.00     0.033 C 
HETATM    5  C   UNL     1       7.509   7.908  23.824  0.00  0.00     0.073 A 
HETATM    6  C   UNL     1       7.016   9.130  23.376  0.00  0.00     0.028 A 
HETATM    7  N   UNL     1       6.753   6.821  23.954  0.00  0.00    -0.218 NA
HETATM    8  C   UNL     1       5.484   6.888  23.563  0.00  0.00     0.200 A 
HETATM    9  N   UNL     1       4.906   7.969  23.056  0.00  0.00    -0.212 NA
HETATM   10  C   UNL     1       5.667   9.078  22.957  0.00  0.00     0.140 A 
ENDROOT
BRANCH   1  11
HETATM   11  C   UNL     1      10.250  11.243  23.118  0.00  0.00    -0.018 A 
HETATM   12  C   UNL     1      10.652  12.282  24.023  0.00  0.00    -0.022 A 
HETATM   13  C   UNL     1      11.523  13.300  23.566  0.00  0.00     0.010 A 
HETATM   14  C   UNL     1      11.969  13.339  22.246  0.00  0.00     0.001 A 
HETATM   15  C   UNL     1      11.584  12.346  21.363  0.00  0.00     0.001 A 
HETATM   16  C   UNL     1      10.751  11.314  21.797  0.00  0.00     0.013 A 
BRANCH  12  17
HETATM   17  C   UNL     1      10.235  12.263  25.479  0.00  0.00     0.271 C 
BRANCH  17  18
HETATM   18  N   UNL     1       9.405  13.398  25.982  0.00  0.00    -0.075 N 
HETATM   19  C   UNL     1       8.088  13.462  25.282  0.00  0.00     0.267 C 
HETATM   20  H   UNL     1       9.924  14.271  25.833  0.00  0.00     0.277 HD
HETATM   21  H   UNL     1       9.244  13.301  26.987  0.00  0.00     0.277 HD
ENDBRANCH  17  18
ENDBRANCH  12  17
ENDBRANCH   1  11
BRANCH  10  22
HETATM   22  C   UNL     1       5.096  10.189  22.089  0.00  0.00     0.273 C 
HETATM   23  O   UNL     1       4.966   9.986  20.873  0.00  0.00    -0.266 OA
HETATM   24  N   UNL     1       4.642  11.389  22.626  0.00  0.00    -0.342 N 
HETATM   25  C   UNL     1       4.737  11.947  23.983  0.00  0.00     0.139 C 
HETATM   26  C   UNL     1       3.901  12.306  21.777  0.00  0.00     0.161 C 
HETATM   27  C   UNL     1       3.391  12.647  24.169  0.00  0.00     0.056 C 
HETATM   28  C   UNL     1       3.036  13.036  22.751  0.00  0.00    -0.056 C 
HETATM   29  C   UNL     1       3.275  13.822  25.100  0.00  0.00    -0.020 C 
HETATM   30  C   UNL     1       2.094  13.961  22.497  0.00  0.00    -0.018 C 
HETATM   31  C   UNL     1       1.453  14.724  23.632  0.00  0.00     0.054 C 
HETATM   32  C   UNL     1       2.336  14.762  24.862  0.00  0.00    -0.026 C 
ENDBRANCH  10  22
BRANCH   8  33
HETATM   33  N   UNL     1       4.723   5.748  23.686  0.00  0.00    -0.271 NA
HETATM   34  H   UNL     1       5.163   5.075  24.300  0.00  0.00     0.127 HD
HETATM   35  H   UNL     1       3.746   5.947  23.833  0.00  0.00     0.127 HD
ENDBRANCH   8  33
TORSDOF 5
ENDMDL
