MODEL 1
REMARK VINA RESULT:    -8.237      0.000      0.000
REMARK INTER + INTRA:         -10.949
REMARK INTER:                 -10.067
REMARK INTRA:                  -0.882
REMARK UNBOUND:                -1.026
REMARK  4 active torsions:
REMARK  status: ('A' for Active; 'I' for Inactive)
REMARK    1  A    between atoms: N_1  and  C_2 
REMARK    2  A    between atoms: C_7  and  C_8 
REMARK       I    between atoms: C_8  and  N_10 
REMARK    3  A    between atoms: N_10  and  C_11 
REMARK    4  A    between atoms: C_23  and  C_24 
ROOT
HETATM    1  C   UNL     1       3.645   6.865  22.873  0.00  0.00     0.153 C 
HETATM    2  C   UNL     1       3.195   5.811  23.869  0.00  0.00    -0.020 A 
HETATM    3  C   UNL     1       3.180   4.429  23.702  0.00  0.00     0.010 A 
HETATM    4  C   UNL     1       2.938   3.622  24.812  0.00  0.00     0.001 A 
HETATM    5  C   UNL     1       2.751   4.199  26.071  0.00  0.00     0.001 A 
HETATM    6  C   UNL     1       2.768   5.591  26.229  0.00  0.00     0.013 A 
HETATM    7  C   UNL     1       2.948   6.417  25.127  0.00  0.00    -0.016 A 
HETATM    8  C   UNL     1       2.990   7.881  24.981  0.00  0.00    -0.003 A 
HETATM    9  C   UNL     1       3.325   8.152  23.615  0.00  0.00    -0.019 A 
HETATM   10  C   UNL     1       3.476   9.441  23.124  0.00  0.00     0.010 A 
HETATM   11  C   UNL     1       3.281  10.498  24.001  0.00  0.00     0.002 A 
HETATM   12  C   UNL     1       2.945  10.259  25.345  0.00  0.00     0.016 A 
HETATM   13  C   UNL     1       2.788   8.953  25.870  0.00  0.00     0.022 A 
ENDROOT
BRANCH   1  14
HETATM   14  N   UNL     1       3.135   6.749  21.520  0.00  0.00    -0.343 N 
HETATM   15  C   UNL     1       3.922   7.229  20.482  0.00  0.00     0.273 C 
HETATM   16  O   UNL     1       5.059   7.621  20.702  0.00  0.00    -0.266 OA
HETATM   17  H   UNL     1       2.188   6.431  21.341  0.00  0.00     0.163 HD
BRANCH  15  18
HETATM   18  C   UNL     1       3.362   7.266  19.084  0.00  0.00     0.150 A 
HETATM   19  C   UNL     1       3.586   6.216  18.201  0.00  0.00     0.086 A 
HETATM   20  C   UNL     1       2.996   6.363  16.968  0.00  0.00     0.146 A 
HETATM   21 CL   UNL     1       4.514   4.793  18.465  0.00  0.00    -0.080 Cl
HETATM   22  N   UNL     1       2.280   7.441  16.603  0.00  0.00    -0.229 NA
HETATM   23  C   UNL     1       2.158   8.417  17.505  0.00  0.00     0.199 A 
HETATM   24  N   UNL     1       2.648   8.383  18.754  0.00  0.00    -0.211 NA
BRANCH  23  25
HETATM   25  N   UNL     1       1.453   9.524  17.090  0.00  0.00    -0.271 NA
HETATM   26  H   UNL     1       2.001  10.361  17.250  0.00  0.00     0.127 HD
HETATM   27  H   UNL     1       1.055   9.401  16.173  0.00  0.00     0.127 HD
ENDBRANCH  23  25
ENDBRANCH  15  18
ENDBRANCH   1  14
BRANCH  13  28
HETATM   28  C   UNL     1       2.405   8.806  27.287  0.00  0.00     0.140 A 
HETATM   29  N   UNL     1       1.185   8.862  27.782  0.00  0.00    -0.227 NA
HETATM   30  C   UNL     1       1.282   8.601  29.125  0.00  0.00     0.103 A 
HETATM   31  C   UNL     1       0.287   8.442  30.093  0.00  0.00     0.150 A 
HETATM   32  C   UNL     1       2.612   8.485  29.502  0.00  0.00     0.065 A 
HETATM   33  N   UNL     1       0.626   8.212  31.390  0.00  0.00    -0.271 NA
HETATM   34  C   UNL     1       1.939   8.147  31.716  0.00  0.00     0.118 A 
HETATM   35  C   UNL     1       2.998   8.270  30.822  0.00  0.00     0.051 A 
HETATM   36  N   UNL     1       3.305   8.617  28.323  0.00  0.00    -0.338 N 
HETATM   37  H   UNL     1       4.306   8.547  28.221  0.00  0.00     0.167 HD
ENDBRANCH  13  28
TORSDOF 4
ENDMDL
MODEL 2
REMARK VINA RESULT:    -8.083      1.565      1.664
REMARK INTER + INTRA:         -10.763
REMARK INTER:                  -9.761
REMARK INTRA:                  -1.001
REMARK UNBOUND:                -1.026
REMARK  4 active torsions:
REMARK  status: ('A' for Active; 'I' for Inactive)
REMARK    1  A    between atoms: N_1  and  C_2 
REMARK    2  A    between atoms: C_7  and  C_8 
REMARK       I    between atoms: C_8  and  N_10 
REMARK    3  A    between atoms: N_10  and  C_11 
REMARK    4  A    between atoms: C_23  and  C_24 
ROOT
HETATM    1  C   UNL     1       4.218   7.196  22.986  0.00  0.00     0.153 C 
HETATM    2  C   UNL     1       4.526   5.915  23.739  0.00  0.00    -0.020 A 
HETATM    3  C   UNL     1       5.166   4.775  23.261  0.00  0.00     0.010 A 
HETATM    4  C   UNL     1       5.550   3.790  24.168  0.00  0.00     0.001 A 
HETATM    5  C   UNL     1       5.325   3.971  25.535  0.00  0.00     0.001 A 
HETATM    6  C   UNL     1       4.681   5.121  26.008  0.00  0.00     0.013 A 
HETATM    7  C   UNL     1       4.236   6.089  25.117  0.00  0.00    -0.016 A 
HETATM    8  C   UNL     1       3.525   7.363  25.309  0.00  0.00    -0.003 A 
HETATM    9  C   UNL     1       3.439   7.988  24.023  0.00  0.00    -0.019 A 
HETATM   10  C   UNL     1       2.847   9.229  23.832  0.00  0.00     0.010 A 
HETATM   11  C   UNL     1       2.312   9.871  24.940  0.00  0.00     0.002 A 
HETATM   12  C   UNL     1       2.378   9.276  26.212  0.00  0.00     0.016 A 
HETATM   13  C   UNL     1       2.979   8.012  26.431  0.00  0.00     0.022 A 
ENDROOT
BRANCH   1  14
HETATM   14  N   UNL     1       3.605   7.056  21.678  0.00  0.00    -0.343 N 
HETATM   15  C   UNL     1       4.107   7.823  20.635  0.00  0.00     0.273 C 
HETATM   16  O   UNL     1       5.114   8.497  20.797  0.00  0.00    -0.266 OA
HETATM   17  H   UNL     1       2.764   6.502  21.548  0.00  0.00     0.163 HD
BRANCH  15  18
HETATM   18  C   UNL     1       3.400   7.820  19.306  0.00  0.00     0.150 A 
HETATM   19  C   UNL     1       3.485   6.720  18.459  0.00  0.00     0.086 A 
HETATM   20  C   UNL     1       2.771   6.835  17.290  0.00  0.00     0.146 A 
HETATM   21 CL   UNL     1       4.380   5.271  18.695  0.00  0.00    -0.080 Cl
HETATM   22  N   UNL     1       2.062   7.926  16.949  0.00  0.00    -0.229 NA
HETATM   23  C   UNL     1       2.077   8.948  17.808  0.00  0.00     0.199 A 
HETATM   24  N   UNL     1       2.698   8.950  18.997  0.00  0.00    -0.211 NA
BRANCH  23  25
HETATM   25  N   UNL     1       1.375  10.065  17.414  0.00  0.00    -0.271 NA
HETATM   26  H   UNL     1       0.939   9.897  16.514  0.00  0.00     0.127 HD
HETATM   27  H   UNL     1       0.791  10.428  18.149  0.00  0.00     0.127 HD
ENDBRANCH  23  25
ENDBRANCH  15  18
ENDBRANCH   1  14
BRANCH  13  28
HETATM   28  C   UNL     1       2.970   7.457  27.798  0.00  0.00     0.140 A 
HETATM   29  N   UNL     1       1.918   7.037  28.471  0.00  0.00    -0.227 NA
HETATM   30  C   UNL     1       2.375   6.536  29.664  0.00  0.00     0.103 A 
HETATM   31  C   UNL     1       1.695   5.882  30.694  0.00  0.00     0.150 A 
HETATM   32  C   UNL     1       3.741   6.748  29.788  0.00  0.00     0.065 A 
HETATM   33  N   UNL     1       2.360   5.493  31.813  0.00  0.00    -0.271 NA
HETATM   34  C   UNL     1       3.685   5.759  31.906  0.00  0.00     0.118 A 
HETATM   35  C   UNL     1       4.452   6.382  30.927  0.00  0.00     0.051 A 
HETATM   36  N   UNL     1       4.097   7.331  28.596  0.00  0.00    -0.338 N 
HETATM   37  H   UNL     1       5.034   7.589  28.327  0.00  0.00     0.167 HD
ENDBRANCH  13  28
TORSDOF 4
ENDMDL
MODEL 3
REMARK VINA RESULT:    -7.937      2.406      3.263
REMARK INTER + INTRA:         -10.587
REMARK INTER:                 -10.178
REMARK INTRA:                  -0.409
REMARK UNBOUND:                -1.026
REMARK  4 active torsions:
REMARK  status: ('A' for Active; 'I' for Inactive)
REMARK    1  A    between atoms: N_1  and  C_2 
REMARK    2  A    between atoms: C_7  and  C_8 
REMARK       I    between atoms: C_8  and  N_10 
REMARK    3  A    between atoms: N_10  and  C_11 
REMARK    4  A    between atoms: C_23  and  C_24 
ROOT
HETATM    1  C   UNL     1       4.867   6.247  20.378  0.00  0.00     0.153 C 
HETATM    2  C   UNL     1       4.567   5.034  21.238  0.00  0.00    -0.020 A 
HETATM    3  C   UNL     1       4.659   3.690  20.882  0.00  0.00     0.010 A 
HETATM    4  C   UNL     1       4.552   2.724  21.880  0.00  0.00     0.001 A 
HETATM    5  C   UNL     1       4.391   3.108  23.213  0.00  0.00     0.001 A 
HETATM    6  C   UNL     1       4.299   4.461  23.562  0.00  0.00     0.013 A 
HETATM    7  C   UNL     1       4.344   5.440  22.578  0.00  0.00    -0.016 A 
HETATM    8  C   UNL     1       4.253   6.908  22.634  0.00  0.00    -0.003 A 
HETATM    9  C   UNL     1       4.483   7.389  21.304  0.00  0.00    -0.019 A 
HETATM   10  C   UNL     1       4.495   8.740  20.990  0.00  0.00     0.010 A 
HETATM   11  C   UNL     1       4.263   9.648  22.013  0.00  0.00     0.002 A 
HETATM   12  C   UNL     1       4.029   9.202  23.325  0.00  0.00     0.016 A 
HETATM   13  C   UNL     1       4.014   7.828  23.671  0.00  0.00     0.022 A 
ENDROOT
BRANCH   1  14
HETATM   14  N   UNL     1       4.290   6.267  19.047  0.00  0.00    -0.343 N 
HETATM   15  C   UNL     1       2.915   6.117  18.928  0.00  0.00     0.273 C 
HETATM   16  O   UNL     1       2.210   6.095  19.927  0.00  0.00    -0.266 OA
HETATM   17  H   UNL     1       4.877   6.278  18.219  0.00  0.00     0.163 HD
BRANCH  15  18
HETATM   18  C   UNL     1       2.299   5.979  17.561  0.00  0.00     0.150 A 
HETATM   19  C   UNL     1       1.830   7.095  16.876  0.00  0.00     0.086 A 
HETATM   20  C   UNL     1       1.318   6.833  15.628  0.00  0.00     0.146 A 
HETATM   21 CL   UNL     1       1.800   8.727  17.413  0.00  0.00    -0.080 Cl
HETATM   22  N   UNL     1       1.235   5.602  15.095  0.00  0.00    -0.229 NA
HETATM   23  C   UNL     1       1.671   4.588  15.847  0.00  0.00     0.199 A 
HETATM   24  N   UNL     1       2.227   4.709  17.061  0.00  0.00    -0.211 NA
BRANCH  23  25
HETATM   25  N   UNL     1       1.536   3.336  15.291  0.00  0.00    -0.271 NA
HETATM   26  H   UNL     1       1.418   2.646  16.023  0.00  0.00     0.127 HD
HETATM   27  H   UNL     1       0.873   3.324  14.532  0.00  0.00     0.127 HD
ENDBRANCH  23  25
ENDBRANCH  15  18
ENDBRANCH   1  14
BRANCH  13  28
HETATM   28  C   UNL     1       3.728   7.459  25.070  0.00  0.00     0.140 A 
HETATM   29  N   UNL     1       2.552   7.476  25.665  0.00  0.00    -0.227 NA
HETATM   30  C   UNL     1       2.735   6.988  26.934  0.00  0.00     0.103 A 
HETATM   31  C   UNL     1       1.807   6.705  27.939  0.00  0.00     0.150 A 
HETATM   32  C   UNL     1       4.081   6.760  27.178  0.00  0.00     0.065 A 
HETATM   33  N   UNL     1       2.227   6.247  29.148  0.00  0.00    -0.271 NA
HETATM   34  C   UNL     1       3.556   6.079  29.353  0.00  0.00     0.118 A 
HETATM   35  C   UNL     1       4.551   6.312  28.409  0.00  0.00     0.051 A 
HETATM   36  N   UNL     1       4.692   7.064  25.985  0.00  0.00    -0.338 N 
HETATM   37  H   UNL     1       5.678   6.975  25.793  0.00  0.00     0.167 HD
ENDBRANCH  13  28
TORSDOF 4
ENDMDL
MODEL 4
REMARK VINA RESULT:    -7.893      0.895      1.252
REMARK INTER + INTRA:         -10.534
REMARK INTER:                  -9.579
REMARK INTRA:                  -0.955
REMARK UNBOUND:                -1.026
REMARK  4 active torsions:
REMARK  status: ('A' for Active; 'I' for Inactive)
REMARK    1  A    between atoms: N_1  and  C_2 
REMARK    2  A    between atoms: C_7  and  C_8 
REMARK       I    between atoms: C_8  and  N_10 
REMARK    3  A    between atoms: N_10  and  C_11 
REMARK    4  A    between atoms: C_23  and  C_24 
ROOT
HETATM    1  C   UNL     1       3.664   6.705  23.025  0.00  0.00     0.153 C 
HETATM    2  C   UNL     1       3.404   5.480  23.881  0.00  0.00    -0.020 A 
HETATM    3  C   UNL     1       3.586   4.143  23.537  0.00  0.00     0.010 A 
HETATM    4  C   UNL     1       3.499   3.175  24.536  0.00  0.00     0.001 A 
HETATM    5  C   UNL     1       3.269   3.555  25.861  0.00  0.00     0.001 A 
HETATM    6  C   UNL     1       3.087   4.902  26.198  0.00  0.00     0.013 A 
HETATM    7  C   UNL     1       3.110   5.878  25.210  0.00  0.00    -0.016 A 
HETATM    8  C   UNL     1       2.933   7.338  25.255  0.00  0.00    -0.003 A 
HETATM    9  C   UNL     1       3.181   7.826  23.931  0.00  0.00    -0.019 A 
HETATM   10  C   UNL     1       3.127   9.175  23.609  0.00  0.00     0.010 A 
HETATM   11  C   UNL     1       2.807  10.072  24.618  0.00  0.00     0.002 A 
HETATM   12  C   UNL     1       2.552   9.618  25.923  0.00  0.00     0.016 A 
HETATM   13  C   UNL     1       2.604   8.247  26.277  0.00  0.00     0.022 A 
ENDROOT
BRANCH   1  14
HETATM   14  N   UNL     1       3.134   6.687  21.674  0.00  0.00    -0.343 N 
HETATM   15  C   UNL     1       3.904   7.244  20.662  0.00  0.00     0.273 C 
HETATM   16  O   UNL     1       5.043   7.623  20.894  0.00  0.00    -0.266 OA
HETATM   17  H   UNL     1       2.185   6.379  21.486  0.00  0.00     0.163 HD
BRANCH  15  18
HETATM   18  C   UNL     1       3.324   7.381  19.279  0.00  0.00     0.150 A 
HETATM   19  C   UNL     1       3.497   6.377  18.333  0.00  0.00     0.086 A 
HETATM   20  C   UNL     1       2.893   6.615  17.122  0.00  0.00     0.146 A 
HETATM   21 CL   UNL     1       4.379   4.911  18.499  0.00  0.00    -0.080 Cl
HETATM   22  N   UNL     1       2.209   7.735  16.833  0.00  0.00    -0.229 NA
HETATM   23  C   UNL     1       2.134   8.661  17.791  0.00  0.00     0.199 A 
HETATM   24  N   UNL     1       2.643   8.538  19.027  0.00  0.00    -0.211 NA
BRANCH  23  25
HETATM   25  N   UNL     1       1.461   9.814  17.453  0.00  0.00    -0.271 NA
HETATM   26  H   UNL     1       0.480   9.720  17.687  0.00  0.00     0.127 HD
HETATM   27  H   UNL     1       1.936  10.641  17.774  0.00  0.00     0.127 HD
ENDBRANCH  23  25
ENDBRANCH  15  18
ENDBRANCH   1  14
BRANCH  13  28
HETATM   28  C   UNL     1       2.291   7.867  27.667  0.00  0.00     0.140 A 
HETATM   29  N   UNL     1       3.023   8.114  28.735  0.00  0.00    -0.227 NA
HETATM   30  C   UNL     1       2.322   7.652  29.820  0.00  0.00     0.103 A 
HETATM   31  C   UNL     1       2.597   7.750  31.186  0.00  0.00     0.150 A 
HETATM   32  C   UNL     1       1.168   7.000  29.411  0.00  0.00     0.065 A 
HETATM   33  N   UNL     1       1.759   7.183  32.094  0.00  0.00    -0.271 NA
HETATM   34  C   UNL     1       0.666   6.522  31.645  0.00  0.00     0.118 A 
HETATM   35  C   UNL     1       0.297   6.390  30.310  0.00  0.00     0.051 A 
HETATM   36  N   UNL     1       1.167   7.150  28.045  0.00  0.00    -0.338 N 
HETATM   37  H   UNL     1       0.445   6.825  27.421  0.00  0.00     0.167 HD
ENDBRANCH  13  28
TORSDOF 4
ENDMDL
MODEL 5
REMARK VINA RESULT:    -7.752      2.393      4.107
REMARK INTER + INTRA:         -10.364
REMARK INTER:                  -9.416
REMARK INTRA:                  -0.948
REMARK UNBOUND:                -1.026
REMARK  4 active torsions:
REMARK  status: ('A' for Active; 'I' for Inactive)
REMARK    1  A    between atoms: N_1  and  C_2 
REMARK    2  A    between atoms: C_7  and  C_8 
REMARK       I    between atoms: C_8  and  N_10 
REMARK    3  A    between atoms: N_10  and  C_11 
REMARK    4  A    between atoms: C_23  and  C_24 
ROOT
HETATM    1  C   UNL     1       1.925   6.946  24.844  0.00  0.00     0.153 C 
HETATM    2  C   UNL     1       1.141   8.057  25.516  0.00  0.00    -0.020 A 
HETATM    3  C   UNL     1       0.423   9.085  24.909  0.00  0.00     0.010 A 
HETATM    4  C   UNL     1      -0.409   9.877  25.696  0.00  0.00     0.001 A 
HETATM    5  C   UNL     1      -0.542   9.614  27.062  0.00  0.00     0.001 A 
HETATM    6  C   UNL     1       0.184   8.578  27.664  0.00  0.00     0.013 A 
HETATM    7  C   UNL     1       1.065   7.813  26.911  0.00  0.00    -0.016 A 
HETATM    8  C   UNL     1       1.959   6.698  27.261  0.00  0.00    -0.003 A 
HETATM    9  C   UNL     1       2.539   6.232  26.037  0.00  0.00    -0.019 A 
HETATM   10  C   UNL     1       3.421   5.162  25.987  0.00  0.00     0.010 A 
HETATM   11  C   UNL     1       3.754   4.538  27.181  0.00  0.00     0.002 A 
HETATM   12  C   UNL     1       3.204   4.980  28.396  0.00  0.00     0.016 A 
HETATM   13  C   UNL     1       2.300   6.067  28.472  0.00  0.00     0.022 A 
ENDROOT
BRANCH   1  14
HETATM   14  N   UNL     1       2.833   7.334  23.780  0.00  0.00    -0.343 N 
HETATM   15  C   UNL     1       3.076   6.421  22.763  0.00  0.00     0.273 C 
HETATM   16  O   UNL     1       2.443   5.376  22.710  0.00  0.00    -0.266 OA
HETATM   17  H   UNL     1       3.362   8.199  23.830  0.00  0.00     0.163 HD
BRANCH  15  18
HETATM   18  C   UNL     1       4.126   6.728  21.727  0.00  0.00     0.150 A 
HETATM   19  C   UNL     1       5.463   6.423  21.959  0.00  0.00     0.086 A 
HETATM   20  C   UNL     1       6.312   6.729  20.923  0.00  0.00     0.146 A 
HETATM   21 CL   UNL     1       6.160   5.741  23.375  0.00  0.00    -0.080 Cl
HETATM   22  N   UNL     1       5.917   7.306  19.775  0.00  0.00    -0.229 NA
HETATM   23  C   UNL     1       4.620   7.600  19.663  0.00  0.00     0.199 A 
HETATM   24  N   UNL     1       3.681   7.321  20.580  0.00  0.00    -0.211 NA
BRANCH  23  25
HETATM   25  N   UNL     1       4.252   8.226  18.493  0.00  0.00    -0.271 NA
HETATM   26  H   UNL     1       3.555   7.671  18.011  0.00  0.00     0.127 HD
HETATM   27  H   UNL     1       4.051   9.203  18.630  0.00  0.00     0.127 HD
ENDBRANCH  23  25
ENDBRANCH  15  18
ENDBRANCH   1  14
BRANCH  13  28
HETATM   28  C   UNL     1       1.801   6.476  29.798  0.00  0.00     0.140 A 
HETATM   29  N   UNL     1       0.951   5.816  30.558  0.00  0.00    -0.227 NA
HETATM   30  C   UNL     1       0.825   6.518  31.729  0.00  0.00     0.103 A 
HETATM   31  C   UNL     1       0.132   6.210  32.902  0.00  0.00     0.150 A 
HETATM   32  C   UNL     1       1.533   7.709  31.660  0.00  0.00     0.065 A 
HETATM   33  N   UNL     1       0.126   7.085  33.943  0.00  0.00    -0.271 NA
HETATM   34  C   UNL     1       0.798   8.254  33.812  0.00  0.00     0.118 A 
HETATM   35  C   UNL     1       1.534   8.639  32.696  0.00  0.00     0.051 A 
HETATM   36  N   UNL     1       2.144   7.662  30.429  0.00  0.00    -0.338 N 
HETATM   37  H   UNL     1       2.773   8.359  30.061  0.00  0.00     0.167 HD
ENDBRANCH  13  28
TORSDOF 4
ENDMDL
MODEL 6
REMARK VINA RESULT:    -7.704      4.558      8.606
REMARK INTER + INTRA:         -10.306
REMARK INTER:                  -9.423
REMARK INTRA:                  -0.883
REMARK UNBOUND:                -1.026
REMARK  4 active torsions:
REMARK  status: ('A' for Active; 'I' for Inactive)
REMARK    1  A    between atoms: N_1  and  C_2 
REMARK    2  A    between atoms: C_7  and  C_8 
REMARK       I    between atoms: C_8  and  N_10 
REMARK    3  A    between atoms: N_10  and  C_11 
REMARK    4  A    between atoms: C_23  and  C_24 
ROOT
HETATM    1  C   UNL     1       3.521   6.618  27.472  0.00  0.00     0.153 C 
HETATM    2  C   UNL     1       3.674   7.071  26.031  0.00  0.00    -0.020 A 
HETATM    3  C   UNL     1       4.592   6.619  25.087  0.00  0.00     0.010 A 
HETATM    4  C   UNL     1       4.429   7.001  23.757  0.00  0.00     0.001 A 
HETATM    5  C   UNL     1       3.341   7.793  23.384  0.00  0.00     0.001 A 
HETATM    6  C   UNL     1       2.422   8.243  24.340  0.00  0.00     0.013 A 
HETATM    7  C   UNL     1       2.597   7.924  25.680  0.00  0.00    -0.016 A 
HETATM    8  C   UNL     1       1.828   8.262  26.889  0.00  0.00    -0.003 A 
HETATM    9  C   UNL     1       2.429   7.548  27.976  0.00  0.00    -0.019 A 
HETATM   10  C   UNL     1       1.942   7.613  29.274  0.00  0.00     0.010 A 
HETATM   11  C   UNL     1       0.834   8.414  29.513  0.00  0.00     0.002 A 
HETATM   12  C   UNL     1       0.230   9.130  28.465  0.00  0.00     0.016 A 
HETATM   13  C   UNL     1       0.708   9.077  27.133  0.00  0.00     0.022 A 
ENDROOT
BRANCH   1  14
HETATM   14  N   UNL     1       4.731   6.543  28.269  0.00  0.00    -0.343 N 
HETATM   15  C   UNL     1       4.937   5.407  29.039  0.00  0.00     0.273 C 
HETATM   16  O   UNL     1       4.177   4.454  28.944  0.00  0.00    -0.266 OA
HETATM   17  H   UNL     1       5.356   7.339  28.351  0.00  0.00     0.163 HD
BRANCH  15  18
HETATM   18  C   UNL     1       6.101   5.359  29.993  0.00  0.00     0.150 A 
HETATM   19  C   UNL     1       7.144   4.462  29.797  0.00  0.00     0.086 A 
HETATM   20  C   UNL     1       8.156   4.541  30.724  0.00  0.00     0.146 A 
HETATM   21 CL   UNL     1       7.298   3.274  28.564  0.00  0.00    -0.080 Cl
HETATM   22  N   UNL     1       8.152   5.389  31.768  0.00  0.00    -0.229 NA
HETATM   23  C   UNL     1       7.085   6.182  31.896  0.00  0.00     0.199 A 
HETATM   24  N   UNL     1       6.052   6.232  31.043  0.00  0.00    -0.211 NA
BRANCH  23  25
HETATM   25  N   UNL     1       7.091   7.010  32.996  0.00  0.00    -0.271 NA
HETATM   26  H   UNL     1       6.865   7.957  32.714  0.00  0.00     0.127 HD
HETATM   27  H   UNL     1       6.576   6.622  33.769  0.00  0.00     0.127 HD
ENDBRANCH  23  25
ENDBRANCH  15  18
ENDBRANCH   1  14
BRANCH  13  28
HETATM   28  C   UNL     1       0.024   9.889  26.108  0.00  0.00     0.140 A 
HETATM   29  N   UNL     1      -1.229   9.771  25.717  0.00  0.00    -0.227 NA
HETATM   30  C   UNL     1      -1.464  10.769  24.806  0.00  0.00     0.103 A 
HETATM   31  C   UNL     1      -2.644  11.153  24.164  0.00  0.00     0.150 A 
HETATM   32  C   UNL     1      -0.295  11.467  24.538  0.00  0.00     0.065 A 
HETATM   33  N   UNL     1      -2.632  12.172  23.264  0.00  0.00    -0.271 NA
HETATM   34  C   UNL     1      -1.458  12.796  23.005  0.00  0.00     0.118 A 
HETATM   35  C   UNL     1      -0.240  12.502  23.609  0.00  0.00     0.051 A 
HETATM   36  N   UNL     1       0.633  10.894  25.374  0.00  0.00    -0.338 N 
HETATM   37  H   UNL     1       1.595  11.184  25.468  0.00  0.00     0.167 HD
ENDBRANCH  13  28
TORSDOF 4
ENDMDL
MODEL 7
REMARK VINA RESULT:    -7.693      4.474      6.312
REMARK INTER + INTRA:         -10.293
REMARK INTER:                  -9.253
REMARK INTRA:                  -1.039
REMARK UNBOUND:                -1.026
REMARK  4 active torsions:
REMARK  status: ('A' for Active; 'I' for Inactive)
REMARK    1  A    between atoms: N_1  and  C_2 
REMARK    2  A    between atoms: C_7  and  C_8 
REMARK       I    between atoms: C_8  and  N_10 
REMARK    3  A    between atoms: N_10  and  C_11 
REMARK    4  A    between atoms: C_23  and  C_24 
ROOT
HETATM    1  C   UNL     1       2.082   9.241  25.604  0.00  0.00     0.153 C 
HETATM    2  C   UNL     1       3.027   8.339  24.832  0.00  0.00    -0.020 A 
HETATM    3  C   UNL     1       3.427   8.457  23.503  0.00  0.00     0.010 A 
HETATM    4  C   UNL     1       4.470   7.657  23.043  0.00  0.00     0.001 A 
HETATM    5  C   UNL     1       5.120   6.781  23.917  0.00  0.00     0.001 A 
HETATM    6  C   UNL     1       4.711   6.668  25.252  0.00  0.00     0.013 A 
HETATM    7  C   UNL     1       3.635   7.413  25.718  0.00  0.00    -0.016 A 
HETATM    8  C   UNL     1       2.978   7.490  27.032  0.00  0.00    -0.003 A 
HETATM    9  C   UNL     1       1.991   8.525  26.942  0.00  0.00    -0.019 A 
HETATM   10  C   UNL     1       1.191   8.891  28.015  0.00  0.00     0.010 A 
HETATM   11  C   UNL     1       1.357   8.210  29.212  0.00  0.00     0.002 A 
HETATM   12  C   UNL     1       2.313   7.185  29.324  0.00  0.00     0.016 A 
HETATM   13  C   UNL     1       3.143   6.796  28.245  0.00  0.00     0.022 A 
ENDROOT
BRANCH   1  14
HETATM   14  N   UNL     1       0.827   9.580  24.961  0.00  0.00    -0.343 N 
HETATM   15  C   UNL     1       0.630  10.896  24.564  0.00  0.00     0.273 C 
HETATM   16  O   UNL     1       1.543  11.706  24.646  0.00  0.00    -0.266 OA
HETATM   17  H   UNL     1       0.068   8.908  24.901  0.00  0.00     0.163 HD
BRANCH  15  18
HETATM   18  C   UNL     1      -0.715  11.317  24.034  0.00  0.00     0.150 A 
HETATM   19  C   UNL     1      -1.865  11.140  24.795  0.00  0.00     0.086 A 
HETATM   20  C   UNL     1      -3.022  11.593  24.206  0.00  0.00     0.146 A 
HETATM   21 CL   UNL     1      -2.004  10.415  26.347  0.00  0.00    -0.080 Cl
HETATM   22  N   UNL     1      -3.074  12.140  22.979  0.00  0.00    -0.229 NA
HETATM   23  C   UNL     1      -1.923  12.227  22.308  0.00  0.00     0.199 A 
HETATM   24  N   UNL     1      -0.723  11.861  22.781  0.00  0.00    -0.211 NA
BRANCH  23  25
HETATM   25  N   UNL     1      -2.015  12.755  21.040  0.00  0.00    -0.271 NA
HETATM   26  H   UNL     1      -2.836  13.344  20.971  0.00  0.00     0.127 HD
HETATM   27  H   UNL     1      -1.140  13.142  20.724  0.00  0.00     0.127 HD
ENDBRANCH  23  25
ENDBRANCH  15  18
ENDBRANCH   1  14
BRANCH  13  28
HETATM   28  C   UNL     1       4.095   5.689  28.453  0.00  0.00     0.140 A 
HETATM   29  N   UNL     1       3.953   4.442  28.051  0.00  0.00    -0.227 NA
HETATM   30  C   UNL     1       5.102   3.774  28.391  0.00  0.00     0.103 A 
HETATM   31  C   UNL     1       5.509   2.468  28.111  0.00  0.00     0.150 A 
HETATM   32  C   UNL     1       5.944   4.599  29.123  0.00  0.00     0.065 A 
HETATM   33  N   UNL     1       6.698   2.006  28.582  0.00  0.00    -0.271 NA
HETATM   34  C   UNL     1       7.467   2.836  29.327  0.00  0.00     0.118 A 
HETATM   35  C   UNL     1       7.159   4.156  29.639  0.00  0.00     0.051 A 
HETATM   36  N   UNL     1       5.287   5.806  29.149  0.00  0.00    -0.338 N 
HETATM   37  H   UNL     1       5.635   6.653  29.573  0.00  0.00     0.167 HD
ENDBRANCH  13  28
TORSDOF 4
ENDMDL
MODEL 8
REMARK VINA RESULT:    -7.583      4.920      9.015
REMARK INTER + INTRA:         -10.161
REMARK INTER:                  -9.208
REMARK INTRA:                  -0.953
REMARK UNBOUND:                -1.026
REMARK  4 active torsions:
REMARK  status: ('A' for Active; 'I' for Inactive)
REMARK    1  A    between atoms: N_1  and  C_2 
REMARK    2  A    between atoms: C_7  and  C_8 
REMARK       I    between atoms: C_8  and  N_10 
REMARK    3  A    between atoms: N_10  and  C_11 
REMARK    4  A    between atoms: C_23  and  C_24 
ROOT
HETATM    1  C   UNL     1       2.808   7.001  28.058  0.00  0.00     0.153 C 
HETATM    2  C   UNL     1       3.131   7.342  26.615  0.00  0.00    -0.020 A 
HETATM    3  C   UNL     1       4.127   6.794  25.809  0.00  0.00     0.010 A 
HETATM    4  C   UNL     1       4.121   7.083  24.447  0.00  0.00     0.001 A 
HETATM    5  C   UNL     1       3.110   7.879  23.903  0.00  0.00     0.001 A 
HETATM    6  C   UNL     1       2.112   8.426  24.720  0.00  0.00     0.013 A 
HETATM    7  C   UNL     1       2.132   8.201  26.090  0.00  0.00    -0.016 A 
HETATM    8  C   UNL     1       1.252   8.649  27.182  0.00  0.00    -0.003 A 
HETATM    9  C   UNL     1       1.707   7.999  28.375  0.00  0.00    -0.019 A 
HETATM   10  C   UNL     1       1.087   8.173  29.604  0.00  0.00     0.010 A 
HETATM   11  C   UNL     1      -0.008   9.023  29.665  0.00  0.00     0.002 A 
HETATM   12  C   UNL     1      -0.470   9.679  28.511  0.00  0.00     0.016 A 
HETATM   13  C   UNL     1       0.145   9.515  27.245  0.00  0.00     0.022 A 
ENDROOT
BRANCH   1  14
HETATM   14  N   UNL     1       3.923   6.947  28.985  0.00  0.00    -0.343 N 
HETATM   15  C   UNL     1       4.270   5.713  29.518  0.00  0.00     0.273 C 
HETATM   16  O   UNL     1       3.727   4.695  29.117  0.00  0.00    -0.266 OA
HETATM   17  H   UNL     1       4.368   7.795  29.322  0.00  0.00     0.163 HD
BRANCH  15  18
HETATM   18  C   UNL     1       5.319   5.641  30.597  0.00  0.00     0.150 A 
HETATM   19  C   UNL     1       4.964   5.717  31.939  0.00  0.00     0.086 A 
HETATM   20  C   UNL     1       6.014   5.610  32.820  0.00  0.00     0.146 A 
HETATM   21 CL   UNL     1       3.397   5.946  32.606  0.00  0.00    -0.080 Cl
HETATM   22  N   UNL     1       7.297   5.473  32.445  0.00  0.00    -0.229 NA
HETATM   23  C   UNL     1       7.543   5.454  31.133  0.00  0.00     0.199 A 
HETATM   24  N   UNL     1       6.610   5.510  30.170  0.00  0.00    -0.211 NA
BRANCH  23  25
HETATM   25  N   UNL     1       8.870   5.353  30.779  0.00  0.00    -0.271 NA
HETATM   26  H   UNL     1       8.994   4.587  30.127  0.00  0.00     0.127 HD
HETATM   27  H   UNL     1       9.266   6.243  30.526  0.00  0.00     0.127 HD
ENDBRANCH  23  25
ENDBRANCH  15  18
ENDBRANCH   1  14
BRANCH  13  28
HETATM   28  C   UNL     1      -0.395  10.270  26.099  0.00  0.00     0.140 A 
HETATM   29  N   UNL     1      -1.606  10.171  25.590  0.00  0.00    -0.227 NA
HETATM   30  C   UNL     1      -1.702  11.104  24.589  0.00  0.00     0.103 A 
HETATM   31  C   UNL     1      -2.792  11.482  23.802  0.00  0.00     0.150 A 
HETATM   32  C   UNL     1      -0.480  11.732  24.392  0.00  0.00     0.065 A 
HETATM   33  N   UNL     1      -2.643  12.426  22.835  0.00  0.00    -0.271 NA
HETATM   34  C   UNL     1      -1.421  12.982  22.654  0.00  0.00     0.118 A 
HETATM   35  C   UNL     1      -0.284  12.689  23.400  0.00  0.00     0.051 A 
HETATM   36  N   UNL     1       0.332  11.190  25.359  0.00  0.00    -0.338 N 
HETATM   37  H   UNL     1       1.292  11.449  25.530  0.00  0.00     0.167 HD
ENDBRANCH  13  28
TORSDOF 4
ENDMDL
MODEL 9
REMARK VINA RESULT:    -7.400      3.695      9.543
REMARK INTER + INTRA:          -9.940
REMARK INTER:                  -8.914
REMARK INTRA:                  -1.026
REMARK UNBOUND:                -1.026
REMARK  4 active torsions:
REMARK  status: ('A' for Active; 'I' for Inactive)
REMARK    1  A    between atoms: N_1  and  C_2 
REMARK    2  A    between atoms: C_7  and  C_8 
REMARK       I    between atoms: C_8  and  N_10 
REMARK    3  A    between atoms: N_10  and  C_11 
REMARK    4  A    between atoms: C_23  and  C_24 
ROOT
HETATM    1  C   UNL     1       2.786   5.740  27.533  0.00  0.00     0.153 C 
HETATM    2  C   UNL     1       3.924   5.088  26.770  0.00  0.00    -0.020 A 
HETATM    3  C   UNL     1       4.716   4.015  27.169  0.00  0.00     0.010 A 
HETATM    4  C   UNL     1       5.564   3.423  26.236  0.00  0.00     0.001 A 
HETATM    5  C   UNL     1       5.584   3.883  24.916  0.00  0.00     0.001 A 
HETATM    6  C   UNL     1       4.784   4.963  24.523  0.00  0.00     0.013 A 
HETATM    7  C   UNL     1       3.975   5.607  25.451  0.00  0.00    -0.016 A 
HETATM    8  C   UNL     1       3.062   6.755  25.342  0.00  0.00    -0.003 A 
HETATM    9  C   UNL     1       2.411   6.889  26.612  0.00  0.00    -0.019 A 
HETATM   10  C   UNL     1       1.456   7.864  26.863  0.00  0.00     0.010 A 
HETATM   11  C   UNL     1       1.139   8.743  25.838  0.00  0.00     0.002 A 
HETATM   12  C   UNL     1       1.768   8.638  24.585  0.00  0.00     0.016 A 
HETATM   13  C   UNL     1       2.743   7.650  24.304  0.00  0.00     0.022 A 
ENDROOT
BRANCH   1  14
HETATM   14  N   UNL     1       3.034   6.074  28.922  0.00  0.00    -0.343 N 
HETATM   15  C   UNL     1       2.082   5.706  29.863  0.00  0.00     0.273 C 
HETATM   16  O   UNL     1       1.129   5.013  29.536  0.00  0.00    -0.266 OA
HETATM   17  H   UNL     1       3.821   6.656  29.191  0.00  0.00     0.163 HD
BRANCH  15  18
HETATM   18  C   UNL     1       2.230   6.170  31.289  0.00  0.00     0.150 A 
HETATM   19  C   UNL     1       2.949   5.416  32.210  0.00  0.00     0.086 A 
HETATM   20  C   UNL     1       3.031   5.965  33.467  0.00  0.00     0.146 A 
HETATM   21 CL   UNL     1       3.713   3.895  31.964  0.00  0.00    -0.080 Cl
HETATM   22  N   UNL     1       2.447   7.124  33.818  0.00  0.00    -0.229 NA
HETATM   23  C   UNL     1       1.741   7.753  32.876  0.00  0.00     0.199 A 
HETATM   24  N   UNL     1       1.614   7.348  31.604  0.00  0.00    -0.211 NA
BRANCH  23  25
HETATM   25  N   UNL     1       1.122   8.916  33.276  0.00  0.00    -0.271 NA
HETATM   26  H   UNL     1       0.441   8.712  33.997  0.00  0.00     0.127 HD
HETATM   27  H   UNL     1       1.780   9.656  33.458  0.00  0.00     0.127 HD
ENDBRANCH  23  25
ENDBRANCH  15  18
ENDBRANCH   1  14
BRANCH  13  28
HETATM   28  C   UNL     1       3.369   7.640  22.968  0.00  0.00     0.140 A 
HETATM   29  N   UNL     1       4.264   8.492  22.511  0.00  0.00    -0.227 NA
HETATM   30  C   UNL     1       4.623   8.067  21.258  0.00  0.00     0.103 A 
HETATM   31  C   UNL     1       5.599   8.549  20.381  0.00  0.00     0.150 A 
HETATM   32  C   UNL     1       3.852   6.980  20.873  0.00  0.00     0.065 A 
HETATM   33  N   UNL     1       5.761   7.977  19.158  0.00  0.00    -0.271 NA
HETATM   34  C   UNL     1       4.956   6.945  18.812  0.00  0.00     0.118 A 
HETATM   35  C   UNL     1       3.974   6.382  19.622  0.00  0.00     0.051 A 
HETATM   36  N   UNL     1       3.065   6.726  21.971  0.00  0.00    -0.338 N 
HETATM   37  H   UNL     1       2.402   5.970  22.054  0.00  0.00     0.167 HD
ENDBRANCH  13  28
TORSDOF 4
ENDMDL
