MODEL 1
REMARK VINA RESULT:    -9.350      0.000      0.000
REMARK INTER + INTRA:         -10.591
REMARK INTER:                 -10.843
REMARK INTRA:                   0.252
REMARK UNBOUND:                -0.421
REMARK  2 active torsions:
REMARK  status: ('A' for Active; 'I' for Inactive)
REMARK    1  A    between atoms: C_7  and  N_8 
REMARK    2  A    between atoms: C_10  and  C_11 
REMARK       I    between atoms: C_11  and  N_13 
ROOT
HETATM    1  C   UNL     1      -1.500  17.504  19.683  0.00  0.00     0.048 C 
HETATM    2  C   UNL     1      -2.336  16.434  20.320  0.00  0.00    -0.061 A 
HETATM    3  C   UNL     1      -3.609  16.131  19.853  0.00  0.00     0.009 A 
HETATM    4  C   UNL     1      -4.349  15.113  20.462  0.00  0.00     0.033 A 
HETATM    5  C   UNL     1      -3.860  14.378  21.538  0.00  0.00     0.073 A 
HETATM    6  N   UNL     1      -4.633  13.413  22.046  0.00  0.00    -0.218 NA
HETATM    7  C   UNL     1      -4.166  12.703  23.072  0.00  0.00     0.200 A 
HETATM    8  N   UNL     1      -2.997  12.901  23.670  0.00  0.00    -0.212 NA
HETATM    9  C   UNL     1      -2.229  13.889  23.154  0.00  0.00     0.140 A 
HETATM   10  C   UNL     1      -2.595  14.677  22.041  0.00  0.00     0.028 A 
HETATM   11  C   UNL     1      -1.834  15.702  21.401  0.00  0.00     0.023 A 
ENDROOT
BRANCH   9  12
HETATM   12  C   UNL     1      -0.971  14.202  23.918  0.00  0.00     0.274 C 
HETATM   13  O   UNL     1      -1.053  14.452  25.124  0.00  0.00    -0.266 OA
HETATM   14  N   UNL     1       0.274  14.214  23.308  0.00  0.00    -0.338 N 
HETATM   15  C   UNL     1       0.654  13.901  21.922  0.00  0.00     0.165 A 
HETATM   16  C   UNL     1       1.417  14.615  24.119  0.00  0.00     0.165 A 
HETATM   17  C   UNL     1       2.140  14.151  21.907  0.00  0.00    -0.032 A 
HETATM   18  C   UNL     1       3.052  14.015  20.873  0.00  0.00     0.011 A 
HETATM   19  C   UNL     1       2.568  14.568  23.174  0.00  0.00    -0.031 A 
HETATM   20  C   UNL     1       4.399  14.314  21.126  0.00  0.00     0.019 A 
HETATM   21  C   UNL     1       4.809  14.742  22.399  0.00  0.00     0.011 A 
HETATM   22 BR   UNL     1       6.630  15.150  22.714  0.00  0.00    -0.051 Br
HETATM   23  C   UNL     1       3.893  14.871  23.439  0.00  0.00     0.028 A 
ENDBRANCH   9  12
BRANCH   7  24
HETATM   24  N   UNL     1      -4.990  11.716  23.566  0.00  0.00    -0.271 NA
HETATM   25  H   UNL     1      -4.441  11.055  24.097  0.00  0.00     0.127 HD
HETATM   26  H   UNL     1      -5.568  11.338  22.826  0.00  0.00     0.127 HD
ENDBRANCH   7  24
TORSDOF 2
ENDMDL
MODEL 2
REMARK VINA RESULT:    -8.758      3.537      4.841
REMARK INTER + INTRA:          -9.947
REMARK INTER:                  -9.462
REMARK INTRA:                  -0.485
REMARK UNBOUND:                -0.421
REMARK  2 active torsions:
REMARK  status: ('A' for Active; 'I' for Inactive)
REMARK    1  A    between atoms: C_7  and  N_8 
REMARK    2  A    between atoms: C_10  and  C_11 
REMARK       I    between atoms: C_11  and  N_13 
ROOT
HETATM    1  C   UNL     1       0.293  17.275  22.428  0.00  0.00     0.048 C 
HETATM    2  C   UNL     1      -0.850  16.683  21.660  0.00  0.00    -0.061 A 
HETATM    3  C   UNL     1      -1.180  17.129  20.386  0.00  0.00     0.009 A 
HETATM    4  C   UNL     1      -2.241  16.537  19.694  0.00  0.00     0.033 A 
HETATM    5  C   UNL     1      -3.000  15.505  20.236  0.00  0.00     0.073 A 
HETATM    6  N   UNL     1      -3.986  14.990  19.495  0.00  0.00    -0.218 NA
HETATM    7  C   UNL     1      -4.710  13.997  20.009  0.00  0.00     0.200 A 
HETATM    8  N   UNL     1      -4.563  13.492  21.228  0.00  0.00    -0.212 NA
HETATM    9  C   UNL     1      -3.569  14.030  21.973  0.00  0.00     0.140 A 
HETATM   10  C   UNL     1      -2.706  15.053  21.523  0.00  0.00     0.028 A 
HETATM   11  C   UNL     1      -1.607  15.645  22.216  0.00  0.00     0.023 A 
ENDROOT
BRANCH   9  12
HETATM   12  C   UNL     1      -3.495  13.556  23.399  0.00  0.00     0.274 C 
HETATM   13  O   UNL     1      -4.157  14.144  24.259  0.00  0.00    -0.266 OA
HETATM   14  N   UNL     1      -2.708  12.476  23.772  0.00  0.00    -0.338 N 
HETATM   15  C   UNL     1      -1.880  11.578  22.954  0.00  0.00     0.165 A 
HETATM   16  C   UNL     1      -2.638  12.153  25.192  0.00  0.00     0.165 A 
HETATM   17  C   UNL     1      -1.259  10.658  23.973  0.00  0.00    -0.032 A 
HETATM   18  C   UNL     1      -0.387   9.595  23.794  0.00  0.00     0.011 A 
HETATM   19  C   UNL     1      -1.697  11.002  25.258  0.00  0.00    -0.031 A 
HETATM   20  C   UNL     1       0.046   8.888  24.924  0.00  0.00     0.019 A 
HETATM   21  C   UNL     1      -0.393   9.253  26.207  0.00  0.00     0.011 A 
HETATM   22 BR   UNL     1       0.213   8.292  27.720  0.00  0.00    -0.051 Br
HETATM   23  C   UNL     1      -1.274  10.317  26.385  0.00  0.00     0.028 A 
ENDBRANCH   9  12
BRANCH   7  24
HETATM   24  N   UNL     1      -5.715  13.490  19.213  0.00  0.00    -0.271 NA
HETATM   25  H   UNL     1      -6.453  13.123  19.798  0.00  0.00     0.127 HD
HETATM   26  H   UNL     1      -5.331  12.865  18.517  0.00  0.00     0.127 HD
ENDBRANCH   7  24
TORSDOF 2
ENDMDL
MODEL 3
REMARK VINA RESULT:    -8.438      3.830      6.050
REMARK INTER + INTRA:          -9.599
REMARK INTER:                  -9.108
REMARK INTRA:                  -0.490
REMARK UNBOUND:                -0.421
REMARK  2 active torsions:
REMARK  status: ('A' for Active; 'I' for Inactive)
REMARK    1  A    between atoms: C_7  and  N_8 
REMARK    2  A    between atoms: C_10  and  C_11 
REMARK       I    between atoms: C_11  and  N_13 
ROOT
HETATM    1  C   UNL     1       1.206   9.277  24.928  0.00  0.00     0.048 C 
HETATM    2  C   UNL     1      -0.049   9.640  25.665  0.00  0.00    -0.061 A 
HETATM    3  C   UNL     1      -0.308   9.158  26.942  0.00  0.00     0.009 A 
HETATM    4  C   UNL     1      -1.480   9.536  27.604  0.00  0.00     0.033 A 
HETATM    5  C   UNL     1      -2.419  10.386  27.028  0.00  0.00     0.073 A 
HETATM    6  N   UNL     1      -3.504  10.705  27.742  0.00  0.00    -0.218 NA
HETATM    7  C   UNL     1      -4.402  11.524  27.196  0.00  0.00     0.200 A 
HETATM    8  N   UNL     1      -4.333  12.027  25.969  0.00  0.00    -0.212 NA
HETATM    9  C   UNL     1      -3.237  11.687  25.252  0.00  0.00     0.140 A 
HETATM   10  C   UNL     1      -2.195  10.866  25.738  0.00  0.00     0.028 A 
HETATM   11  C   UNL     1      -0.986  10.495  25.076  0.00  0.00     0.023 A 
ENDROOT
BRANCH   9  12
HETATM   12  C   UNL     1      -3.230  12.143  23.818  0.00  0.00     0.274 C 
HETATM   13  O   UNL     1      -3.888  11.509  22.988  0.00  0.00    -0.266 OA
HETATM   14  N   UNL     1      -2.510  13.254  23.405  0.00  0.00    -0.338 N 
HETATM   15  C   UNL     1      -1.703  14.205  24.185  0.00  0.00     0.165 A 
HETATM   16  C   UNL     1      -2.500  13.558  21.980  0.00  0.00     0.165 A 
HETATM   17  C   UNL     1      -1.160  15.139  23.135  0.00  0.00    -0.032 A 
HETATM   18  C   UNL     1      -0.338  16.246  23.271  0.00  0.00     0.011 A 
HETATM   19  C   UNL     1      -1.620  14.754  21.869  0.00  0.00    -0.031 A 
HETATM   20  C   UNL     1       0.025  16.956  22.118  0.00  0.00     0.019 A 
HETATM   21  C   UNL     1      -0.435  16.550  20.855  0.00  0.00     0.011 A 
HETATM   22 BR   UNL     1       0.076  17.516  19.310  0.00  0.00    -0.051 Br
HETATM   23  C   UNL     1      -1.266  15.441  20.719  0.00  0.00     0.028 A 
ENDBRANCH   9  12
BRANCH   7  24
HETATM   24  N   UNL     1      -5.504  11.831  27.964  0.00  0.00    -0.271 NA
HETATM   25  H   UNL     1      -5.708  11.058  28.582  0.00  0.00     0.127 HD
HETATM   26  H   UNL     1      -6.260  12.159  27.378  0.00  0.00     0.127 HD
ENDBRANCH   7  24
TORSDOF 2
ENDMDL
MODEL 4
REMARK VINA RESULT:    -8.363      3.532      5.316
REMARK INTER + INTRA:          -9.517
REMARK INTER:                  -9.137
REMARK INTRA:                  -0.379
REMARK UNBOUND:                -0.421
REMARK  2 active torsions:
REMARK  status: ('A' for Active; 'I' for Inactive)
REMARK    1  A    between atoms: C_7  and  N_8 
REMARK    2  A    between atoms: C_10  and  C_11 
REMARK       I    between atoms: C_11  and  N_13 
ROOT
HETATM    1  C   UNL     1      -4.174  16.420  20.367  0.00  0.00     0.048 C 
HETATM    2  C   UNL     1      -2.686  16.569  20.478  0.00  0.00    -0.061 A 
HETATM    3  C   UNL     1      -1.933  17.135  19.457  0.00  0.00     0.009 A 
HETATM    4  C   UNL     1      -0.550  17.275  19.608  0.00  0.00     0.033 A 
HETATM    5  C   UNL     1       0.120  16.860  20.755  0.00  0.00     0.073 A 
HETATM    6  N   UNL     1       1.442  17.047  20.816  0.00  0.00    -0.218 NA
HETATM    7  C   UNL     1       2.085  16.658  21.915  0.00  0.00     0.200 A 
HETATM    8  N   UNL     1       1.526  16.052  22.956  0.00  0.00    -0.212 NA
HETATM    9  C   UNL     1       0.189  15.857  22.877  0.00  0.00     0.140 A 
HETATM   10  C   UNL     1      -0.609  16.267  21.786  0.00  0.00     0.028 A 
HETATM   11  C   UNL     1      -2.024  16.148  21.637  0.00  0.00     0.023 A 
ENDROOT
BRANCH   9  12
HETATM   12  C   UNL     1      -0.418  15.048  23.991  0.00  0.00     0.274 C 
HETATM   13  O   UNL     1      -1.075  15.629  24.860  0.00  0.00    -0.266 OA
HETATM   14  N   UNL     1      -0.263  13.672  24.067  0.00  0.00    -0.338 N 
HETATM   15  C   UNL     1       0.410  12.741  23.149  0.00  0.00     0.165 A 
HETATM   16  C   UNL     1      -0.816  12.996  25.234  0.00  0.00     0.165 A 
HETATM   17  C   UNL     1       0.256  11.408  23.835  0.00  0.00    -0.032 A 
HETATM   18  C   UNL     1       0.683  10.151  23.437  0.00  0.00     0.011 A 
HETATM   19  C   UNL     1      -0.446  11.567  25.037  0.00  0.00    -0.031 A 
HETATM   20  C   UNL     1       0.405   9.057  24.268  0.00  0.00     0.019 A 
HETATM   21  C   UNL     1      -0.289   9.235  25.476  0.00  0.00     0.011 A 
HETATM   22 BR   UNL     1      -0.645   7.745  26.588  0.00  0.00    -0.051 Br
HETATM   23  C   UNL     1      -0.724  10.497  25.871  0.00  0.00     0.028 A 
ENDBRANCH   9  12
BRANCH   7  24
HETATM   24  N   UNL     1       3.446  16.871  21.942  0.00  0.00    -0.271 NA
HETATM   25  H   UNL     1       3.709  17.456  21.162  0.00  0.00     0.127 HD
HETATM   26  H   UNL     1       3.938  15.993  22.039  0.00  0.00     0.127 HD
ENDBRANCH   7  24
TORSDOF 2
ENDMDL
MODEL 5
REMARK VINA RESULT:    -8.287      1.833      2.285
REMARK INTER + INTRA:          -9.435
REMARK INTER:                  -9.233
REMARK INTRA:                  -0.201
REMARK UNBOUND:                -0.421
REMARK  2 active torsions:
REMARK  status: ('A' for Active; 'I' for Inactive)
REMARK    1  A    between atoms: C_7  and  N_8 
REMARK    2  A    between atoms: C_10  and  C_11 
REMARK       I    between atoms: C_11  and  N_13 
ROOT
HETATM    1  C   UNL     1      -3.326  16.931  19.381  0.00  0.00     0.048 C 
HETATM    2  C   UNL     1      -3.661  15.830  20.342  0.00  0.00    -0.061 A 
HETATM    3  C   UNL     1      -4.795  15.884  21.144  0.00  0.00     0.009 A 
HETATM    4  C   UNL     1      -5.083  14.827  22.013  0.00  0.00     0.033 A 
HETATM    5  C   UNL     1      -4.268  13.704  22.116  0.00  0.00     0.073 A 
HETATM    6  N   UNL     1      -4.632  12.736  22.963  0.00  0.00    -0.218 NA
HETATM    7  C   UNL     1      -3.858  11.656  23.058  0.00  0.00     0.200 A 
HETATM    8  N   UNL     1      -2.716  11.472  22.406  0.00  0.00    -0.212 NA
HETATM    9  C   UNL     1      -2.353  12.464  21.561  0.00  0.00     0.140 A 
HETATM   10  C   UNL     1      -3.112  13.634  21.339  0.00  0.00     0.028 A 
HETATM   11  C   UNL     1      -2.834  14.705  20.437  0.00  0.00     0.023 A 
ENDROOT
BRANCH   9  12
HETATM   12  C   UNL     1      -0.994  12.317  20.931  0.00  0.00     0.274 C 
HETATM   13  O   UNL     1      -0.822  11.435  20.085  0.00  0.00    -0.266 OA
HETATM   14  N   UNL     1       0.066  13.146  21.270  0.00  0.00    -0.338 N 
HETATM   15  C   UNL     1       0.116  14.293  22.189  0.00  0.00     0.165 A 
HETATM   16  C   UNL     1       1.362  12.862  20.666  0.00  0.00     0.165 A 
HETATM   17  C   UNL     1       1.562  14.713  22.136  0.00  0.00    -0.032 A 
HETATM   18  C   UNL     1       2.209  15.750  22.790  0.00  0.00     0.011 A 
HETATM   19  C   UNL     1       2.271  13.880  21.262  0.00  0.00    -0.031 A 
HETATM   20  C   UNL     1       3.580  15.932  22.561  0.00  0.00     0.019 A 
HETATM   21  C   UNL     1       4.279  15.080  21.691  0.00  0.00     0.011 A 
HETATM   22 BR   UNL     1       6.132  15.337  21.405  0.00  0.00    -0.051 Br
HETATM   23  C   UNL     1       3.627  14.043  21.029  0.00  0.00     0.028 A 
ENDBRANCH   9  12
BRANCH   7  24
HETATM   24  N   UNL     1      -4.268  10.679  23.940  0.00  0.00    -0.271 NA
HETATM   25  H   UNL     1      -5.222  10.859  24.220  0.00  0.00     0.127 HD
HETATM   26  H   UNL     1      -3.589  10.566  24.680  0.00  0.00     0.127 HD
ENDBRANCH   7  24
TORSDOF 2
ENDMDL
MODEL 6
REMARK VINA RESULT:    -8.277      3.673      5.292
REMARK INTER + INTRA:          -9.424
REMARK INTER:                  -8.936
REMARK INTRA:                  -0.487
REMARK UNBOUND:                -0.421
REMARK  2 active torsions:
REMARK  status: ('A' for Active; 'I' for Inactive)
REMARK    1  A    between atoms: C_7  and  N_8 
REMARK    2  A    between atoms: C_10  and  C_11 
REMARK       I    between atoms: C_11  and  N_13 
ROOT
HETATM    1  C   UNL     1       0.686  17.147  21.408  0.00  0.00     0.048 C 
HETATM    2  C   UNL     1      -0.648  16.612  20.980  0.00  0.00    -0.061 A 
HETATM    3  C   UNL     1      -1.627  17.440  20.445  0.00  0.00     0.009 A 
HETATM    4  C   UNL     1      -2.851  16.899  20.039  0.00  0.00     0.033 A 
HETATM    5  C   UNL     1      -3.140  15.542  20.154  0.00  0.00     0.073 A 
HETATM    6  N   UNL     1      -4.331  15.113  19.726  0.00  0.00    -0.218 NA
HETATM    7  C   UNL     1      -4.608  13.814  19.828  0.00  0.00     0.200 A 
HETATM    8  N   UNL     1      -3.808  12.900  20.365  0.00  0.00    -0.212 NA
HETATM    9  C   UNL     1      -2.610  13.349  20.805  0.00  0.00     0.140 A 
HETATM   10  C   UNL     1      -2.184  14.692  20.709  0.00  0.00     0.028 A 
HETATM   11  C   UNL     1      -0.927  15.246  21.100  0.00  0.00     0.023 A 
ENDROOT
BRANCH   9  12
HETATM   12  C   UNL     1      -1.766  12.341  21.536  0.00  0.00     0.274 C 
HETATM   13  O   UNL     1      -0.914  11.708  20.906  0.00  0.00    -0.266 OA
HETATM   14  N   UNL     1      -1.915  12.107  22.895  0.00  0.00    -0.338 N 
HETATM   15  C   UNL     1      -2.799  12.753  23.878  0.00  0.00     0.165 A 
HETATM   16  C   UNL     1      -1.109  11.047  23.488  0.00  0.00     0.165 A 
HETATM   17  C   UNL     1      -2.502  12.005  25.152  0.00  0.00    -0.032 A 
HETATM   18  C   UNL     1      -3.027  12.176  26.423  0.00  0.00     0.011 A 
HETATM   19  C   UNL     1      -1.533  11.022  24.915  0.00  0.00    -0.031 A 
HETATM   20  C   UNL     1      -2.573  11.338  27.451  0.00  0.00     0.019 A 
HETATM   21  C   UNL     1      -1.609  10.349  27.195  0.00  0.00     0.011 A 
HETATM   22 BR   UNL     1      -1.018   9.223  28.596  0.00  0.00    -0.051 Br
HETATM   23  C   UNL     1      -1.078  10.183  25.919  0.00  0.00     0.028 A 
ENDBRANCH   9  12
BRANCH   7  24
HETATM   24  N   UNL     1      -5.845  13.410  19.373  0.00  0.00    -0.271 NA
HETATM   25  H   UNL     1      -6.311  14.189  18.931  0.00  0.00     0.127 HD
HETATM   26  H   UNL     1      -6.351  12.933  20.108  0.00  0.00     0.127 HD
ENDBRANCH   7  24
TORSDOF 2
ENDMDL
MODEL 7
REMARK VINA RESULT:    -8.211      3.729      6.623
REMARK INTER + INTRA:          -9.352
REMARK INTER:                  -8.944
REMARK INTRA:                  -0.408
REMARK UNBOUND:                -0.421
REMARK  2 active torsions:
REMARK  status: ('A' for Active; 'I' for Inactive)
REMARK    1  A    between atoms: C_7  and  N_8 
REMARK    2  A    between atoms: C_10  and  C_11 
REMARK       I    between atoms: C_11  and  N_13 
ROOT
HETATM    1  C   UNL     1      -3.272  16.863  19.905  0.00  0.00     0.048 C 
HETATM    2  C   UNL     1      -1.832  16.558  20.191  0.00  0.00    -0.061 A 
HETATM    3  C   UNL     1      -0.839  17.516  20.028  0.00  0.00     0.009 A 
HETATM    4  C   UNL     1       0.490  17.198  20.326  0.00  0.00     0.033 A 
HETATM    5  C   UNL     1       0.871  15.940  20.783  0.00  0.00     0.073 A 
HETATM    6  N   UNL     1       2.163  15.732  21.056  0.00  0.00    -0.218 NA
HETATM    7  C   UNL     1       2.529  14.531  21.500  0.00  0.00     0.200 A 
HETATM    8  N   UNL     1       1.718  13.492  21.658  0.00  0.00    -0.212 NA
HETATM    9  C   UNL     1       0.414  13.712  21.367  0.00  0.00     0.140 A 
HETATM   10  C   UNL     1      -0.103  14.953  20.934  0.00  0.00     0.028 A 
HETATM   11  C   UNL     1      -1.461  15.289  20.651  0.00  0.00     0.023 A 
ENDROOT
BRANCH   9  12
HETATM   12  C   UNL     1      -0.476  12.500  21.413  0.00  0.00     0.274 C 
HETATM   13  O   UNL     1      -0.354  11.637  20.539  0.00  0.00    -0.266 OA
HETATM   14  N   UNL     1      -1.425  12.324  22.410  0.00  0.00    -0.338 N 
HETATM   15  C   UNL     1      -1.733  13.155  23.583  0.00  0.00     0.165 A 
HETATM   16  C   UNL     1      -2.295  11.159  22.313  0.00  0.00     0.165 A 
HETATM   17  C   UNL     1      -2.888  12.432  24.225  0.00  0.00    -0.032 A 
HETATM   18  C   UNL     1      -3.599  12.739  25.374  0.00  0.00     0.011 A 
HETATM   19  C   UNL     1      -3.208  11.288  23.483  0.00  0.00    -0.031 A 
HETATM   20  C   UNL     1      -4.643  11.888  25.762  0.00  0.00     0.019 A 
HETATM   21  C   UNL     1      -4.959  10.751  25.000  0.00  0.00     0.011 A 
HETATM   22 BR   UNL     1      -6.379   9.621  25.536  0.00  0.00    -0.051 Br
HETATM   23  C   UNL     1      -4.239  10.439  23.849  0.00  0.00     0.028 A 
ENDBRANCH   9  12
BRANCH   7  24
HETATM   24  N   UNL     1       3.869  14.357  21.774  0.00  0.00    -0.271 NA
HETATM   25  H   UNL     1       4.358  15.227  21.621  0.00  0.00     0.127 HD
HETATM   26  H   UNL     1       4.224  13.543  21.289  0.00  0.00     0.127 HD
ENDBRANCH   7  24
TORSDOF 2
ENDMDL
MODEL 8
REMARK VINA RESULT:    -7.982      3.882      5.561
REMARK INTER + INTRA:          -9.103
REMARK INTER:                  -8.682
REMARK INTRA:                  -0.421
REMARK UNBOUND:                -0.421
REMARK  2 active torsions:
REMARK  status: ('A' for Active; 'I' for Inactive)
REMARK    1  A    between atoms: C_7  and  N_8 
REMARK    2  A    between atoms: C_10  and  C_11 
REMARK       I    between atoms: C_11  and  N_13 
ROOT
HETATM    1  C   UNL     1      -4.927  13.766  19.569  0.00  0.00     0.048 C 
HETATM    2  C   UNL     1      -3.794  14.618  20.055  0.00  0.00    -0.061 A 
HETATM    3  C   UNL     1      -3.825  16.003  19.946  0.00  0.00     0.009 A 
HETATM    4  C   UNL     1      -2.756  16.763  20.429  0.00  0.00     0.033 A 
HETATM    5  C   UNL     1      -1.638  16.184  21.023  0.00  0.00     0.073 A 
HETATM    6  N   UNL     1      -0.672  16.992  21.470  0.00  0.00    -0.218 NA
HETATM    7  C   UNL     1       0.396  16.442  22.045  0.00  0.00     0.200 A 
HETATM    8  N   UNL     1       0.608  15.137  22.178  0.00  0.00    -0.212 NA
HETATM    9  C   UNL     1      -0.373  14.330  21.711  0.00  0.00     0.140 A 
HETATM   10  C   UNL     1      -1.571  14.795  21.125  0.00  0.00     0.028 A 
HETATM   11  C   UNL     1      -2.675  14.025  20.650  0.00  0.00     0.023 A 
ENDROOT
BRANCH   9  12
HETATM   12  C   UNL     1      -0.070  12.856  21.736  0.00  0.00     0.274 C 
HETATM   13  O   UNL     1       0.336  12.313  20.705  0.00  0.00    -0.266 OA
HETATM   14  N   UNL     1      -0.230  12.094  22.885  0.00  0.00    -0.338 N 
HETATM   15  C   UNL     1      -0.636  12.495  24.240  0.00  0.00     0.165 A 
HETATM   16  C   UNL     1       0.007  10.660  22.779  0.00  0.00     0.165 A 
HETATM   17  C   UNL     1      -0.655  11.191  24.994  0.00  0.00    -0.032 A 
HETATM   18  C   UNL     1      -0.956  10.938  26.323  0.00  0.00     0.011 A 
HETATM   19  C   UNL     1      -0.289  10.140  24.142  0.00  0.00    -0.031 A 
HETATM   20  C   UNL     1      -0.895   9.615  26.782  0.00  0.00     0.019 A 
HETATM   21  C   UNL     1      -0.538   8.572  25.913  0.00  0.00     0.011 A 
HETATM   22 BR   UNL     1      -0.473   6.792  26.552  0.00  0.00    -0.051 Br
HETATM   23  C   UNL     1      -0.229   8.827  24.579  0.00  0.00     0.028 A 
ENDBRANCH   9  12
BRANCH   7  24
HETATM   24  N   UNL     1       1.369  17.307  22.496  0.00  0.00    -0.271 NA
HETATM   25  H   UNL     1       1.440  18.091  21.863  0.00  0.00     0.127 HD
HETATM   26  H   UNL     1       2.223  16.803  22.695  0.00  0.00     0.127 HD
ENDBRANCH   7  24
TORSDOF 2
ENDMDL
