MODEL 1
REMARK VINA RESULT:    -7.760      0.000      0.000
REMARK INTER + INTRA:         -11.694
REMARK INTER:                 -10.143
REMARK INTRA:                  -1.551
REMARK UNBOUND:                -1.667
REMARK  6 active torsions:
REMARK  status: ('A' for Active; 'I' for Inactive)
REMARK    1  A    between atoms: N_4  and  S_6 
REMARK    2  A    between atoms: S_6  and  C_9 
REMARK    3  A    between atoms: C_11  and  C_17 
REMARK    4  A    between atoms: C_12  and  O_13 
REMARK    5  A    between atoms: C_15  and  O_16 
REMARK    6  A    between atoms: N_23  and  C_24 
ROOT
HETATM    1  C   UNL     1      -0.098  14.136  23.329  0.00  0.00     0.121 A 
HETATM    2  C   UNL     1      -1.141  13.332  23.814  0.00  0.00     0.046 A 
HETATM    3  C   UNL     1      -1.642  13.494  25.108  0.00  0.00     0.047 A 
HETATM    4  C   UNL     1      -1.069  14.489  25.915  0.00  0.00     0.082 A 
HETATM    5  C   UNL     1       0.000  15.264  25.456  0.00  0.00     0.075 A 
HETATM    6  C   UNL     1       0.480  15.101  24.154  0.00  0.00     0.091 A 
ENDROOT
BRANCH   3   7
HETATM    7  C   UNL     1      -2.882  12.795  25.533  0.00  0.00     0.172 A 
HETATM    8  N   UNL     1      -4.030  13.427  25.541  0.00  0.00    -0.151 NA
HETATM    9  N   UNL     1      -4.950  12.453  25.796  0.00  0.00    -0.226 N 
HETATM   10  H   UNL     1      -5.945  12.623  25.840  0.00  0.00     0.194 HD
HETATM   11  C   UNL     1      -4.338  11.214  25.945  0.00  0.00     0.349 A 
HETATM   12  O   UNL     1      -4.920  10.165  26.176  0.00  0.00    -0.245 OA
HETATM   13  N   UNL     1      -2.988  11.454  25.799  0.00  0.00    -0.241 N 
BRANCH  13  14
HETATM   14  C   UNL     1      -2.003  10.487  26.067  0.00  0.00     0.084 A 
HETATM   15  C   UNL     1      -1.388   9.763  25.041  0.00  0.00     0.143 A 
HETATM   16  F   UNL     1      -1.686  10.022  23.759  0.00  0.00    -0.204 F 
HETATM   17  C   UNL     1      -0.443   8.779  25.322  0.00  0.00     0.044 A 
HETATM   18  C   UNL     1      -0.116   8.495  26.647  0.00  0.00     0.003 A 
HETATM   19  C   UNL     1      -0.721   9.209  27.682  0.00  0.00     0.002 A 
HETATM   20  C   UNL     1      -1.645  10.217  27.394  0.00  0.00     0.033 A 
ENDBRANCH  13  14
ENDBRANCH   3   7
BRANCH   4  21
HETATM   21  O   UNL     1      -1.541  14.811  27.159  0.00  0.00    -0.360 OA
HETATM   22  H   UNL     1      -2.468  14.493  27.231  0.00  0.00     0.217 HD
ENDBRANCH   4  21
BRANCH   1  23
HETATM   23  S   UNL     1       0.329  13.937  21.605  0.00  0.00     0.349 S 
HETATM   24  O   UNL     1       0.039  12.560  21.255  0.00  0.00    -0.193 OA
HETATM   25  O   UNL     1       1.643  14.486  21.357  0.00  0.00    -0.193 OA
BRANCH  23  26
HETATM   26  N   UNL     1      -0.865  14.940  20.832  0.00  0.00     0.028 N 
HETATM   27  C   UNL     1      -3.295  14.941  20.057  0.00  0.00     0.178 A 
HETATM   28  C   UNL     1      -3.771  16.386  20.019  0.00  0.00     0.036 C 
HETATM   29  C   UNL     1      -2.281  14.576  21.144  0.00  0.00     0.366 A 
HETATM   30  C   UNL     1      -0.558  16.382  20.962  0.00  0.00     0.293 C 
ENDBRANCH  23  26
ENDBRANCH   1  23
BRANCH   6  31
HETATM   31  O   UNL     1       1.431  15.952  23.691  0.00  0.00    -0.359 OA
HETATM   32  H   UNL     1       1.091  16.864  23.677  0.00  0.00     0.217 HD
ENDBRANCH   6  31
TORSDOF 6
ENDMDL
MODEL 2
REMARK VINA RESULT:    -7.752      3.264      6.728
REMARK INTER + INTRA:         -11.684
REMARK INTER:                  -9.807
REMARK INTRA:                  -1.877
REMARK UNBOUND:                -1.667
REMARK  6 active torsions:
REMARK  status: ('A' for Active; 'I' for Inactive)
REMARK    1  A    between atoms: N_4  and  S_6 
REMARK    2  A    between atoms: S_6  and  C_9 
REMARK    3  A    between atoms: C_11  and  C_17 
REMARK    4  A    between atoms: C_12  and  O_13 
REMARK    5  A    between atoms: C_15  and  O_16 
REMARK    6  A    between atoms: N_23  and  C_24 
ROOT
HETATM    1  C   UNL     1      -1.279   9.711  26.844  0.00  0.00     0.121 A 
HETATM    2  C   UNL     1      -1.415   9.993  25.476  0.00  0.00     0.046 A 
HETATM    3  C   UNL     1      -2.312  10.962  25.020  0.00  0.00     0.047 A 
HETATM    4  C   UNL     1      -3.078  11.650  25.973  0.00  0.00     0.082 A 
HETATM    5  C   UNL     1      -2.981  11.345  27.334  0.00  0.00     0.075 A 
HETATM    6  C   UNL     1      -2.069  10.385  27.776  0.00  0.00     0.091 A 
ENDROOT
BRANCH   3   7
HETATM    7  C   UNL     1      -2.291  11.404  23.602  0.00  0.00     0.172 A 
HETATM    8  N   UNL     1      -3.089  10.849  22.722  0.00  0.00    -0.151 NA
HETATM    9  N   UNL     1      -2.938  11.610  21.601  0.00  0.00    -0.226 N 
HETATM   10  H   UNL     1      -3.447  11.449  20.743  0.00  0.00     0.194 HD
HETATM   11  C   UNL     1      -2.029  12.641  21.814  0.00  0.00     0.349 A 
HETATM   12  O   UNL     1      -1.704  13.476  20.984  0.00  0.00    -0.245 OA
HETATM   13  N   UNL     1      -1.594  12.479  23.113  0.00  0.00    -0.241 N 
BRANCH  13  14
HETATM   14  C   UNL     1      -0.524  13.209  23.661  0.00  0.00     0.084 A 
HETATM   15  C   UNL     1      -0.731  14.410  24.348  0.00  0.00     0.143 A 
HETATM   16  F   UNL     1      -1.976  14.863  24.553  0.00  0.00    -0.204 F 
HETATM   17  C   UNL     1       0.341  15.144  24.850  0.00  0.00     0.044 A 
HETATM   18  C   UNL     1       1.643  14.688  24.650  0.00  0.00     0.003 A 
HETATM   19  C   UNL     1       1.866  13.493  23.966  0.00  0.00     0.002 A 
HETATM   20  C   UNL     1       0.786  12.743  23.492  0.00  0.00     0.033 A 
ENDBRANCH  13  14
ENDBRANCH   3   7
BRANCH   4  21
HETATM   21  O   UNL     1      -3.912  12.690  25.657  0.00  0.00    -0.360 OA
HETATM   22  H   UNL     1      -4.057  12.687  24.685  0.00  0.00     0.217 HD
ENDBRANCH   4  21
BRANCH   1  23
HETATM   23  S   UNL     1       0.022   8.575  27.301  0.00  0.00     0.349 S 
HETATM   24  O   UNL     1      -0.381   7.954  28.549  0.00  0.00    -0.193 OA
HETATM   25  O   UNL     1       1.307   9.229  27.200  0.00  0.00    -0.193 OA
BRANCH  23  26
HETATM   26  N   UNL     1      -0.109   7.374  26.048  0.00  0.00     0.028 N 
HETATM   27  C   UNL     1       0.695   6.833  23.689  0.00  0.00     0.178 A 
HETATM   28  C   UNL     1       0.628   5.323  23.509  0.00  0.00     0.036 C 
HETATM   29  C   UNL     1       1.038   7.348  25.089  0.00  0.00     0.366 A 
HETATM   30  C   UNL     1      -0.497   6.048  26.578  0.00  0.00     0.293 C 
ENDBRANCH  23  26
ENDBRANCH   1  23
BRANCH   6  31
HETATM   31  O   UNL     1      -1.903  10.199  29.111  0.00  0.00    -0.359 OA
HETATM   32  H   UNL     1      -1.651   9.278  29.296  0.00  0.00     0.217 HD
ENDBRANCH   6  31
TORSDOF 6
ENDMDL
MODEL 3
REMARK VINA RESULT:    -7.716      3.166      6.658
REMARK INTER + INTRA:         -11.638
REMARK INTER:                  -9.784
REMARK INTRA:                  -1.854
REMARK UNBOUND:                -1.667
REMARK  6 active torsions:
REMARK  status: ('A' for Active; 'I' for Inactive)
REMARK    1  A    between atoms: N_4  and  S_6 
REMARK    2  A    between atoms: S_6  and  C_9 
REMARK    3  A    between atoms: C_11  and  C_17 
REMARK    4  A    between atoms: C_12  and  O_13 
REMARK    5  A    between atoms: C_15  and  O_16 
REMARK    6  A    between atoms: N_23  and  C_24 
ROOT
HETATM    1  C   UNL     1      -1.316   9.737  26.833  0.00  0.00     0.121 A 
HETATM    2  C   UNL     1      -1.459  10.020  25.465  0.00  0.00     0.046 A 
HETATM    3  C   UNL     1      -2.371  10.977  25.014  0.00  0.00     0.047 A 
HETATM    4  C   UNL     1      -3.145  11.651  25.970  0.00  0.00     0.082 A 
HETATM    5  C   UNL     1      -3.041  11.345  27.330  0.00  0.00     0.075 A 
HETATM    6  C   UNL     1      -2.114  10.396  27.768  0.00  0.00     0.091 A 
ENDROOT
BRANCH   3   7
HETATM    7  C   UNL     1      -2.360  11.423  23.597  0.00  0.00     0.172 A 
HETATM    8  N   UNL     1      -3.081  10.798  22.698  0.00  0.00    -0.151 NA
HETATM    9  N   UNL     1      -2.976  11.573  21.582  0.00  0.00    -0.226 N 
HETATM   10  H   UNL     1      -3.449  11.366  20.712  0.00  0.00     0.194 HD
HETATM   11  C   UNL     1      -2.175  12.684  21.817  0.00  0.00     0.349 A 
HETATM   12  O   UNL     1      -1.911  13.548  20.995  0.00  0.00    -0.245 OA
HETATM   13  N   UNL     1      -1.756  12.561  23.125  0.00  0.00    -0.241 N 
BRANCH  13  14
HETATM   14  C   UNL     1      -0.773  13.387  23.698  0.00  0.00     0.084 A 
HETATM   15  C   UNL     1       0.590  13.107  23.563  0.00  0.00     0.143 A 
HETATM   16  F   UNL     1       0.995  12.065  22.823  0.00  0.00    -0.204 F 
HETATM   17  C   UNL     1       1.553  13.912  24.169  0.00  0.00     0.044 A 
HETATM   18  C   UNL     1       1.154  15.002  24.940  0.00  0.00     0.003 A 
HETATM   19  C   UNL     1      -0.203  15.294  25.085  0.00  0.00     0.002 A 
HETATM   20  C   UNL     1      -1.164  14.504  24.449  0.00  0.00     0.033 A 
ENDBRANCH  13  14
ENDBRANCH   3   7
BRANCH   4  21
HETATM   21  O   UNL     1      -3.995  12.680  25.659  0.00  0.00    -0.360 OA
HETATM   22  H   UNL     1      -3.791  12.985  24.747  0.00  0.00     0.217 HD
ENDBRANCH   4  21
BRANCH   1  23
HETATM   23  S   UNL     1       0.001   8.617  27.284  0.00  0.00     0.349 S 
HETATM   24  O   UNL     1      -0.383   7.998  28.538  0.00  0.00    -0.193 OA
HETATM   25  O   UNL     1       1.278   9.286  27.168  0.00  0.00    -0.193 OA
BRANCH  23  26
HETATM   26  N   UNL     1      -0.126   7.409  26.038  0.00  0.00     0.028 N 
HETATM   27  C   UNL     1       0.665   6.865  23.674  0.00  0.00     0.178 A 
HETATM   28  C   UNL     1       0.613   5.354  23.503  0.00  0.00     0.036 C 
HETATM   29  C   UNL     1       1.014   7.391  25.069  0.00  0.00     0.366 A 
HETATM   30  C   UNL     1      -0.495   6.081  26.577  0.00  0.00     0.293 C 
ENDBRANCH  23  26
ENDBRANCH   1  23
BRANCH   6  31
HETATM   31  O   UNL     1      -1.942  10.210  29.102  0.00  0.00    -0.359 OA
HETATM   32  H   UNL     1      -1.087  10.575  29.388  0.00  0.00     0.217 HD
ENDBRANCH   6  31
TORSDOF 6
ENDMDL
MODEL 4
REMARK VINA RESULT:    -7.647      2.103      6.628
REMARK INTER + INTRA:         -11.549
REMARK INTER:                 -10.235
REMARK INTRA:                  -1.314
REMARK UNBOUND:                -1.667
REMARK  6 active torsions:
REMARK  status: ('A' for Active; 'I' for Inactive)
REMARK    1  A    between atoms: N_4  and  S_6 
REMARK    2  A    between atoms: S_6  and  C_9 
REMARK    3  A    between atoms: C_11  and  C_17 
REMARK    4  A    between atoms: C_12  and  O_13 
REMARK    5  A    between atoms: C_15  and  O_16 
REMARK    6  A    between atoms: N_23  and  C_24 
ROOT
HETATM    1  C   UNL     1      -2.460  13.448  25.607  0.00  0.00     0.121 A 
HETATM    2  C   UNL     1      -1.628  13.817  24.538  0.00  0.00     0.046 A 
HETATM    3  C   UNL     1      -0.562  14.701  24.719  0.00  0.00     0.047 A 
HETATM    4  C   UNL     1      -0.344  15.215  26.007  0.00  0.00     0.082 A 
HETATM    5  C   UNL     1      -1.194  14.888  27.068  0.00  0.00     0.075 A 
HETATM    6  C   UNL     1      -2.247  13.991  26.875  0.00  0.00     0.091 A 
ENDROOT
BRANCH   3   7
HETATM    7  C   UNL     1       0.438  14.912  23.640  0.00  0.00     0.172 A 
HETATM    8  N   UNL     1       1.714  14.996  23.926  0.00  0.00    -0.151 NA
HETATM    9  N   UNL     1       2.333  14.999  22.711  0.00  0.00    -0.226 N 
HETATM   10  H   UNL     1       3.337  15.030  22.596  0.00  0.00     0.194 HD
HETATM   11  C   UNL     1       1.407  14.917  21.678  0.00  0.00     0.349 A 
HETATM   12  O   UNL     1       1.680  14.897  20.487  0.00  0.00    -0.245 OA
HETATM   13  N   UNL     1       0.173  14.889  22.295  0.00  0.00    -0.241 N 
BRANCH  13  14
HETATM   14  C   UNL     1      -1.040  14.996  21.592  0.00  0.00     0.084 A 
HETATM   15  C   UNL     1      -1.746  13.866  21.170  0.00  0.00     0.143 A 
HETATM   16  F   UNL     1      -1.305  12.639  21.484  0.00  0.00    -0.204 F 
HETATM   17  C   UNL     1      -2.926  13.986  20.439  0.00  0.00     0.044 A 
HETATM   18  C   UNL     1      -3.403  15.253  20.104  0.00  0.00     0.003 A 
HETATM   19  C   UNL     1      -2.709  16.390  20.518  0.00  0.00     0.002 A 
HETATM   20  C   UNL     1      -1.544  16.265  21.278  0.00  0.00     0.033 A 
ENDBRANCH  13  14
ENDBRANCH   3   7
BRANCH   4  21
HETATM   21  O   UNL     1       0.727  16.006  26.328  0.00  0.00    -0.360 OA
HETATM   22  H   UNL     1       1.350  15.477  26.874  0.00  0.00     0.217 HD
ENDBRANCH   4  21
BRANCH   1  23
HETATM   23  S   UNL     1      -3.676  12.183  25.275  0.00  0.00     0.349 S 
HETATM   24  O   UNL     1      -3.963  12.237  23.854  0.00  0.00    -0.193 OA
HETATM   25  O   UNL     1      -4.754  12.271  26.234  0.00  0.00    -0.193 OA
BRANCH  23  26
HETATM   26  N   UNL     1      -2.761  10.733  25.573  0.00  0.00     0.028 N 
HETATM   27  C   UNL     1      -0.923   9.273  24.575  0.00  0.00     0.178 A 
HETATM   28  C   UNL     1      -0.261   8.513  25.716  0.00  0.00     0.036 C 
HETATM   29  C   UNL     1      -1.433  10.682  24.887  0.00  0.00     0.366 A 
HETATM   30  C   UNL     1      -2.726  10.375  27.008  0.00  0.00     0.293 C 
ENDBRANCH  23  26
ENDBRANCH   1  23
BRANCH   6  31
HETATM   31  O   UNL     1      -2.977  13.592  27.948  0.00  0.00    -0.359 OA
HETATM   32  H   UNL     1      -3.769  13.107  27.657  0.00  0.00     0.217 HD
ENDBRANCH   6  31
TORSDOF 6
ENDMDL
MODEL 5
REMARK VINA RESULT:    -7.504      2.712      4.195
REMARK INTER + INTRA:         -11.364
REMARK INTER:                  -9.795
REMARK INTRA:                  -1.569
REMARK UNBOUND:                -1.667
REMARK  6 active torsions:
REMARK  status: ('A' for Active; 'I' for Inactive)
REMARK    1  A    between atoms: N_4  and  S_6 
REMARK    2  A    between atoms: S_6  and  C_9 
REMARK    3  A    between atoms: C_11  and  C_17 
REMARK    4  A    between atoms: C_12  and  O_13 
REMARK    5  A    between atoms: C_15  and  O_16 
REMARK    6  A    between atoms: N_23  and  C_24 
ROOT
HETATM    1  C   UNL     1      -2.623  11.495  24.013  0.00  0.00     0.121 A 
HETATM    2  C   UNL     1      -1.852  11.064  25.104  0.00  0.00     0.046 A 
HETATM    3  C   UNL     1      -2.431  10.828  26.354  0.00  0.00     0.047 A 
HETATM    4  C   UNL     1      -3.811  11.036  26.490  0.00  0.00     0.082 A 
HETATM    5  C   UNL     1      -4.579  11.508  25.420  0.00  0.00     0.075 A 
HETATM    6  C   UNL     1      -3.990  11.724  24.173  0.00  0.00     0.091 A 
ENDROOT
BRANCH   3   7
HETATM    7  C   UNL     1      -1.654  10.167  27.435  0.00  0.00     0.172 A 
HETATM    8  N   UNL     1      -1.875  10.470  28.691  0.00  0.00    -0.151 NA
HETATM    9  N   UNL     1      -1.140   9.562  29.392  0.00  0.00    -0.226 N 
HETATM   10  H   UNL     1      -1.121   9.518  30.402  0.00  0.00     0.194 HD
HETATM   11  C   UNL     1      -0.464   8.698  28.537  0.00  0.00     0.349 A 
HETATM   12  O   UNL     1       0.266   7.785  28.892  0.00  0.00    -0.245 OA
HETATM   13  N   UNL     1      -0.785   9.120  27.264  0.00  0.00    -0.241 N 
BRANCH  13  14
HETATM   14  C   UNL     1      -0.155   8.624  26.109  0.00  0.00     0.084 A 
HETATM   15  C   UNL     1       0.922   9.291  25.518  0.00  0.00     0.143 A 
HETATM   16  F   UNL     1       1.422  10.400  26.083  0.00  0.00    -0.204 F 
HETATM   17  C   UNL     1       1.512   8.811  24.351  0.00  0.00     0.044 A 
HETATM   18  C   UNL     1       1.009   7.659  23.748  0.00  0.00     0.003 A 
HETATM   19  C   UNL     1      -0.066   6.983  24.325  0.00  0.00     0.002 A 
HETATM   20  C   UNL     1      -0.633   7.449  25.514  0.00  0.00     0.033 A 
ENDBRANCH  13  14
ENDBRANCH   3   7
BRANCH   4  21
HETATM   21  O   UNL     1      -4.507  10.741  27.632  0.00  0.00    -0.360 OA
HETATM   22  H   UNL     1      -5.390  10.395  27.377  0.00  0.00     0.217 HD
ENDBRANCH   4  21
BRANCH   1  23
HETATM   23  S   UNL     1      -1.790  11.593  22.436  0.00  0.00     0.349 S 
HETATM   24  O   UNL     1      -2.712  11.080  21.440  0.00  0.00    -0.193 OA
HETATM   25  O   UNL     1      -0.460  11.038  22.545  0.00  0.00    -0.193 OA
BRANCH  23  26
HETATM   26  N   UNL     1      -1.674  13.315  22.209  0.00  0.00     0.028 N 
HETATM   27  C   UNL     1      -0.213  15.325  22.782  0.00  0.00     0.178 A 
HETATM   28  C   UNL     1      -0.452  16.391  21.721  0.00  0.00     0.036 C 
HETATM   29  C   UNL     1      -0.289  13.867  22.324  0.00  0.00     0.366 A 
HETATM   30  C   UNL     1      -2.423  13.778  21.020  0.00  0.00     0.293 C 
ENDBRANCH  23  26
ENDBRANCH   1  23
BRANCH   6  31
HETATM   31  O   UNL     1      -4.779  12.058  23.120  0.00  0.00    -0.359 OA
HETATM   32  H   UNL     1      -4.236  12.361  22.372  0.00  0.00     0.217 HD
ENDBRANCH   6  31
TORSDOF 6
ENDMDL
MODEL 6
REMARK VINA RESULT:    -7.357      3.224      6.428
REMARK INTER + INTRA:         -11.173
REMARK INTER:                  -9.330
REMARK INTRA:                  -1.844
REMARK UNBOUND:                -1.667
REMARK  6 active torsions:
REMARK  status: ('A' for Active; 'I' for Inactive)
REMARK    1  A    between atoms: N_4  and  S_6 
REMARK    2  A    between atoms: S_6  and  C_9 
REMARK    3  A    between atoms: C_11  and  C_17 
REMARK    4  A    between atoms: C_12  and  O_13 
REMARK    5  A    between atoms: C_15  and  O_16 
REMARK    6  A    between atoms: N_23  and  C_24 
ROOT
HETATM    1  C   UNL     1      -0.201   9.645  26.286  0.00  0.00     0.121 A 
HETATM    2  C   UNL     1      -1.046  10.250  25.343  0.00  0.00     0.046 A 
HETATM    3  C   UNL     1      -2.314  10.718  25.699  0.00  0.00     0.047 A 
HETATM    4  C   UNL     1      -2.721  10.565  27.033  0.00  0.00     0.082 A 
HETATM    5  C   UNL     1      -1.904   9.924  27.968  0.00  0.00     0.075 A 
HETATM    6  C   UNL     1      -0.633   9.475  27.602  0.00  0.00     0.091 A 
ENDROOT
BRANCH   3   7
HETATM    7  C   UNL     1      -3.106  11.548  24.755  0.00  0.00     0.172 A 
HETATM    8  N   UNL     1      -4.188  11.064  24.194  0.00  0.00    -0.151 NA
HETATM    9  N   UNL     1      -4.745  12.133  23.558  0.00  0.00    -0.226 N 
HETATM   10  H   UNL     1      -5.616  12.087  23.046  0.00  0.00     0.194 HD
HETATM   11  C   UNL     1      -3.979  13.279  23.739  0.00  0.00     0.349 A 
HETATM   12  O   UNL     1      -4.242  14.381  23.283  0.00  0.00    -0.245 OA
HETATM   13  N   UNL     1      -2.899  12.879  24.498  0.00  0.00    -0.241 N 
BRANCH  13  14
HETATM   14  C   UNL     1      -1.787  13.703  24.745  0.00  0.00     0.084 A 
HETATM   15  C   UNL     1      -1.605  14.339  25.977  0.00  0.00     0.143 A 
HETATM   16  F   UNL     1      -2.468  14.124  26.981  0.00  0.00    -0.204 F 
HETATM   17  C   UNL     1      -0.520  15.185  26.196  0.00  0.00     0.044 A 
HETATM   18  C   UNL     1       0.390  15.420  25.166  0.00  0.00     0.003 A 
HETATM   19  C   UNL     1       0.221  14.793  23.931  0.00  0.00     0.002 A 
HETATM   20  C   UNL     1      -0.850  13.920  23.727  0.00  0.00     0.033 A 
ENDBRANCH  13  14
ENDBRANCH   3   7
BRANCH   4  21
HETATM   21  O   UNL     1      -3.894  11.075  27.523  0.00  0.00    -0.360 OA
HETATM   22  H   UNL     1      -4.641  10.595  27.101  0.00  0.00     0.217 HD
ENDBRANCH   4  21
BRANCH   1  23
HETATM   23  S   UNL     1       1.453   9.247  25.739  0.00  0.00     0.349 S 
HETATM   24  O   UNL     1       2.310   9.312  26.907  0.00  0.00    -0.193 OA
HETATM   25  O   UNL     1       1.780  10.016  24.559  0.00  0.00    -0.193 OA
BRANCH  23  26
HETATM   26  N   UNL     1       1.282   7.572  25.302  0.00  0.00     0.028 N 
HETATM   27  C   UNL     1       0.327   6.053  23.488  0.00  0.00     0.178 A 
HETATM   28  C   UNL     1       1.103   4.744  23.522  0.00  0.00     0.036 C 
HETATM   29  C   UNL     1       1.104   7.325  23.837  0.00  0.00     0.366 A 
HETATM   30  C   UNL     1       2.299   6.715  25.950  0.00  0.00     0.293 C 
ENDBRANCH  23  26
ENDBRANCH   1  23
BRANCH   6  31
HETATM   31  O   UNL     1       0.190   8.972  28.558  0.00  0.00    -0.359 OA
HETATM   32  H   UNL     1      -0.318   8.437  29.193  0.00  0.00     0.217 HD
ENDBRANCH   6  31
TORSDOF 6
ENDMDL
MODEL 7
REMARK VINA RESULT:    -7.313      3.004      5.637
REMARK INTER + INTRA:         -11.117
REMARK INTER:                  -9.314
REMARK INTRA:                  -1.803
REMARK UNBOUND:                -1.667
REMARK  6 active torsions:
REMARK  status: ('A' for Active; 'I' for Inactive)
REMARK    1  A    between atoms: N_4  and  S_6 
REMARK    2  A    between atoms: S_6  and  C_9 
REMARK    3  A    between atoms: C_11  and  C_17 
REMARK    4  A    between atoms: C_12  and  O_13 
REMARK    5  A    between atoms: C_15  and  O_16 
REMARK    6  A    between atoms: N_23  and  C_24 
ROOT
HETATM    1  C   UNL     1      -1.191  11.159  24.776  0.00  0.00     0.121 A 
HETATM    2  C   UNL     1      -1.944  11.774  23.764  0.00  0.00     0.046 A 
HETATM    3  C   UNL     1      -3.233  12.256  24.008  0.00  0.00     0.047 A 
HETATM    4  C   UNL     1      -3.757  12.106  25.301  0.00  0.00     0.082 A 
HETATM    5  C   UNL     1      -3.032  11.455  26.303  0.00  0.00     0.075 A 
HETATM    6  C   UNL     1      -1.739  10.993  26.049  0.00  0.00     0.091 A 
ENDROOT
BRANCH   3   7
HETATM    7  C   UNL     1      -3.930  13.095  23.000  0.00  0.00     0.172 A 
HETATM    8  N   UNL     1      -5.123  12.762  22.571  0.00  0.00    -0.151 NA
HETATM    9  N   UNL     1      -5.522  13.827  21.820  0.00  0.00    -0.226 N 
HETATM   10  H   UNL     1      -6.424  13.885  21.367  0.00  0.00     0.194 HD
HETATM   11  C   UNL     1      -4.546  14.817  21.798  0.00  0.00     0.349 A 
HETATM   12  O   UNL     1      -4.637  15.882  21.205  0.00  0.00    -0.245 OA
HETATM   13  N   UNL     1      -3.502  14.316  22.547  0.00  0.00    -0.241 N 
BRANCH  13  14
HETATM   14  C   UNL     1      -2.241  14.935  22.617  0.00  0.00     0.084 A 
HETATM   15  C   UNL     1      -1.722  15.406  23.827  0.00  0.00     0.143 A 
HETATM   16  F   UNL     1      -2.398  15.221  24.969  0.00  0.00    -0.204 F 
HETATM   17  C   UNL     1      -0.489  16.053  23.875  0.00  0.00     0.044 A 
HETATM   18  C   UNL     1       0.232  16.254  22.699  0.00  0.00     0.003 A 
HETATM   19  C   UNL     1      -0.274  15.790  21.485  0.00  0.00     0.002 A 
HETATM   20  C   UNL     1      -1.495  15.113  21.445  0.00  0.00     0.033 A 
ENDBRANCH  13  14
ENDBRANCH   3   7
BRANCH   4  21
HETATM   21  O   UNL     1      -4.963  12.629  25.687  0.00  0.00    -0.360 OA
HETATM   22  H   UNL     1      -5.664  12.245  25.116  0.00  0.00     0.217 HD
ENDBRANCH   4  21
BRANCH   1  23
HETATM   23  S   UNL     1       0.500  10.744  24.375  0.00  0.00     0.349 S 
HETATM   24  O   UNL     1       0.458   9.904  23.193  0.00  0.00    -0.193 OA
HETATM   25  O   UNL     1       1.191  10.290  25.561  0.00  0.00    -0.193 OA
BRANCH  23  26
HETATM   26  N   UNL     1       1.136  12.292  23.900  0.00  0.00     0.028 N 
HETATM   27  C   UNL     1       2.666  14.170  24.700  0.00  0.00     0.178 A 
HETATM   28  C   UNL     1       3.188  14.900  23.470  0.00  0.00     0.036 C 
HETATM   29  C   UNL     1       2.426  12.665  24.559  0.00  0.00     0.366 A 
HETATM   30  C   UNL     1       1.118  12.482  22.433  0.00  0.00     0.293 C 
ENDBRANCH  23  26
ENDBRANCH   1  23
BRANCH   6  31
HETATM   31  O   UNL     1      -1.009  10.480  27.073  0.00  0.00    -0.359 OA
HETATM   32  H   UNL     1      -1.303  10.858  27.920  0.00  0.00     0.217 HD
ENDBRANCH   6  31
TORSDOF 6
ENDMDL
MODEL 8
REMARK VINA RESULT:    -7.075      3.083      6.560
REMARK INTER + INTRA:         -10.809
REMARK INTER:                  -9.399
REMARK INTRA:                  -1.411
REMARK UNBOUND:                -1.667
REMARK  6 active torsions:
REMARK  status: ('A' for Active; 'I' for Inactive)
REMARK    1  A    between atoms: N_4  and  S_6 
REMARK    2  A    between atoms: S_6  and  C_9 
REMARK    3  A    between atoms: C_11  and  C_17 
REMARK    4  A    between atoms: C_12  and  O_13 
REMARK    5  A    between atoms: C_15  and  O_16 
REMARK    6  A    between atoms: N_23  and  C_24 
ROOT
HETATM    1  C   UNL     1      -1.208   9.420  25.893  0.00  0.00     0.121 A 
HETATM    2  C   UNL     1      -1.842  10.154  24.878  0.00  0.00     0.046 A 
HETATM    3  C   UNL     1      -2.715  11.203  25.178  0.00  0.00     0.047 A 
HETATM    4  C   UNL     1      -2.942  11.504  26.529  0.00  0.00     0.082 A 
HETATM    5  C   UNL     1      -2.350  10.750  27.547  0.00  0.00     0.075 A 
HETATM    6  C   UNL     1      -1.467   9.714  27.232  0.00  0.00     0.091 A 
ENDROOT
BRANCH   3   7
HETATM    7  C   UNL     1      -3.205  12.109  24.107  0.00  0.00     0.172 A 
HETATM    8  N   UNL     1      -4.300  11.821  23.445  0.00  0.00    -0.151 NA
HETATM    9  N   UNL     1      -4.543  12.933  22.696  0.00  0.00    -0.226 N 
HETATM   10  H   UNL     1      -5.344  13.032  22.086  0.00  0.00     0.194 HD
HETATM   11  C   UNL     1      -3.573  13.905  22.912  0.00  0.00     0.349 A 
HETATM   12  O   UNL     1      -3.544  15.002  22.376  0.00  0.00    -0.245 OA
HETATM   13  N   UNL     1      -2.692  13.346  23.814  0.00  0.00    -0.241 N 
BRANCH  13  14
HETATM   14  C   UNL     1      -1.461  13.937  24.153  0.00  0.00     0.084 A 
HETATM   15  C   UNL     1      -0.309  13.718  23.393  0.00  0.00     0.143 A 
HETATM   16  F   UNL     1      -0.367  12.979  22.275  0.00  0.00    -0.204 F 
HETATM   17  C   UNL     1       0.913  14.277  23.762  0.00  0.00     0.044 A 
HETATM   18  C   UNL     1       0.995  15.051  24.919  0.00  0.00     0.003 A 
HETATM   19  C   UNL     1      -0.147  15.277  25.688  0.00  0.00     0.002 A 
HETATM   20  C   UNL     1      -1.376  14.742  25.296  0.00  0.00     0.033 A 
ENDBRANCH  13  14
ENDBRANCH   3   7
BRANCH   4  21
HETATM   21  O   UNL     1      -3.693  12.571  26.945  0.00  0.00    -0.360 OA
HETATM   22  H   UNL     1      -3.839  13.166  26.176  0.00  0.00     0.217 HD
ENDBRANCH   4  21
BRANCH   1  23
HETATM   23  S   UNL     1       0.010   8.222  25.371  0.00  0.00     0.349 S 
HETATM   24  O   UNL     1       0.336   8.526  23.990  0.00  0.00    -0.193 OA
HETATM   25  O   UNL     1      -0.420   6.891  25.736  0.00  0.00    -0.193 OA
BRANCH  23  26
HETATM   26  N   UNL     1       1.380   8.669  26.346  0.00  0.00     0.028 N 
HETATM   27  C   UNL     1       2.822   7.849  28.285  0.00  0.00     0.178 A 
HETATM   28  C   UNL     1       4.185   8.516  28.164  0.00  0.00     0.036 C 
HETATM   29  C   UNL     1       2.097   7.518  26.978  0.00  0.00     0.366 A 
HETATM   30  C   UNL     1       2.261   9.643  25.667  0.00  0.00     0.293 C 
ENDBRANCH  23  26
ENDBRANCH   1  23
BRANCH   6  31
HETATM   31  O   UNL     1      -0.808   9.082  28.236  0.00  0.00    -0.359 OA
HETATM   32  H   UNL     1       0.122   9.367  28.262  0.00  0.00     0.217 HD
ENDBRANCH   6  31
TORSDOF 6
ENDMDL
MODEL 9
REMARK VINA RESULT:    -7.050      3.692      7.012
REMARK INTER + INTRA:         -10.777
REMARK INTER:                  -9.110
REMARK INTRA:                  -1.667
REMARK UNBOUND:                -1.667
REMARK  6 active torsions:
REMARK  status: ('A' for Active; 'I' for Inactive)
REMARK    1  A    between atoms: N_4  and  S_6 
REMARK    2  A    between atoms: S_6  and  C_9 
REMARK    3  A    between atoms: C_11  and  C_17 
REMARK    4  A    between atoms: C_12  and  O_13 
REMARK    5  A    between atoms: C_15  and  O_16 
REMARK    6  A    between atoms: N_23  and  C_24 
ROOT
HETATM    1  C   UNL     1       0.669   8.401  24.998  0.00  0.00     0.121 A 
HETATM    2  C   UNL     1      -0.459   9.083  24.512  0.00  0.00     0.046 A 
HETATM    3  C   UNL     1      -0.409  10.446  24.210  0.00  0.00     0.047 A 
HETATM    4  C   UNL     1       0.805  11.119  24.407  0.00  0.00     0.082 A 
HETATM    5  C   UNL     1       1.921  10.460  24.932  0.00  0.00     0.075 A 
HETATM    6  C   UNL     1       1.861   9.093  25.215  0.00  0.00     0.091 A 
ENDROOT
BRANCH   3   7
HETATM    7  C   UNL     1      -1.533  11.104  23.496  0.00  0.00     0.172 A 
HETATM    8  N   UNL     1      -1.870  10.717  22.289  0.00  0.00    -0.151 NA
HETATM    9  N   UNL     1      -3.025  11.390  22.029  0.00  0.00    -0.226 N 
HETATM   10  H   UNL     1      -3.553  11.285  21.172  0.00  0.00     0.194 HD
HETATM   11  C   UNL     1      -3.388  12.198  23.101  0.00  0.00     0.349 A 
HETATM   12  O   UNL     1      -4.380  12.910  23.143  0.00  0.00    -0.245 OA
HETATM   13  N   UNL     1      -2.393  12.024  24.040  0.00  0.00    -0.241 N 
BRANCH  13  14
HETATM   14  C   UNL     1      -2.286  12.811  25.201  0.00  0.00     0.084 A 
HETATM   15  C   UNL     1      -2.671  12.325  26.454  0.00  0.00     0.143 A 
HETATM   16  F   UNL     1      -3.100  11.061  26.585  0.00  0.00    -0.204 F 
HETATM   17  C   UNL     1      -2.598  13.129  27.589  0.00  0.00     0.044 A 
HETATM   18  C   UNL     1      -2.154  14.445  27.475  0.00  0.00     0.003 A 
HETATM   19  C   UNL     1      -1.766  14.944  26.231  0.00  0.00     0.002 A 
HETATM   20  C   UNL     1      -1.810  14.125  25.101  0.00  0.00     0.033 A 
ENDBRANCH  13  14
ENDBRANCH   3   7
BRANCH   4  21
HETATM   21  O   UNL     1       1.005  12.427  24.051  0.00  0.00    -0.360 OA
HETATM   22  H   UNL     1       0.814  12.519  23.092  0.00  0.00     0.217 HD
ENDBRANCH   4  21
BRANCH   1  23
HETATM   23  S   UNL     1       0.516   6.631  25.181  0.00  0.00     0.349 S 
HETATM   24  O   UNL     1       1.732   6.045  24.649  0.00  0.00    -0.193 OA
HETATM   25  O   UNL     1      -0.772   6.194  24.690  0.00  0.00    -0.193 OA
BRANCH  23  26
HETATM   26  N   UNL     1       0.558   6.454  26.911  0.00  0.00     0.028 N 
HETATM   27  C   UNL     1      -0.560   7.290  29.047  0.00  0.00     0.178 A 
HETATM   28  C   UNL     1      -0.376   6.222  30.116  0.00  0.00     0.036 C 
HETATM   29  C   UNL     1      -0.721   6.803  27.605  0.00  0.00     0.366 A 
HETATM   30  C   UNL     1       1.153   5.167  27.331  0.00  0.00     0.293 C 
ENDBRANCH  23  26
ENDBRANCH   1  23
BRANCH   6  31
HETATM   31  O   UNL     1       2.993   8.450  25.601  0.00  0.00    -0.359 OA
HETATM   32  H   UNL     1       2.970   8.271  26.557  0.00  0.00     0.217 HD
ENDBRANCH   6  31
TORSDOF 6
ENDMDL
