REMARK  6 active torsions:
REMARK  status: ('A' for Active; 'I' for Inactive)
REMARK    1  A    between atoms: O_1  and  C_2 
REMARK    2  A    between atoms: C_2  and  C_4 
REMARK    3  A    between atoms: C_6  and  C_7 
REMARK    4  A    between atoms: N_13  and  C_14 
REMARK    5  A    between atoms: C_21  and  O_22 
REMARK    6  A    between atoms: C_24  and  O_25 
ROOT
HETATM    1  C   UNL     1       4.602  -1.238  -2.701  0.00  0.00     0.071 C 
HETATM    2  C   UNL     1       4.863  -0.099  -3.487  0.00  0.00     0.039 C 
HETATM    3  C   UNL     1       4.074   1.043  -3.347  0.00  0.00     0.046 C 
HETATM    4  C   UNL     1       3.062   1.034  -2.362  0.00  0.00     0.082 C 
HETATM    5  C   UNL     1       2.716  -0.129  -1.677  0.00  0.00     0.075 C 
HETATM    6  C   UNL     1       3.487  -1.267  -1.857  0.00  0.00     0.085 C 
ENDROOT
BRANCH   3   7
HETATM    7  C   UNL     1       4.343   2.301  -4.088  0.00  0.00     0.172 A 
HETATM    8  N   UNL     1       4.023   3.451  -3.547  0.00  0.00    -0.151 NA
HETATM    9  N   UNL     1       4.431   4.382  -4.444  0.00  0.00    -0.226 N 
HETATM   10  H   UNL     1       4.189   5.364  -4.378  0.00  0.00     0.194 HD
HETATM   11  C   UNL     1       4.963   3.781  -5.573  0.00  0.00     0.349 A 
HETATM   12  O   UNL     1       5.258   4.373  -6.597  0.00  0.00    -0.245 OA
HETATM   13  N   UNL     1       4.971   2.419  -5.302  0.00  0.00    -0.241 N 
BRANCH  13  14
HETATM   14  C   UNL     1       5.246   1.514  -6.345  0.00  0.00     0.084 A 
HETATM   15  C   UNL     1       6.456   1.661  -7.047  0.00  0.00     0.033 A 
HETATM   16  C   UNL     1       6.695   0.952  -8.226  0.00  0.00     0.002 A 
HETATM   17  C   UNL     1       5.715   0.105  -8.734  0.00  0.00     0.003 A 
HETATM   18  C   UNL     1       4.521  -0.071  -8.033  0.00  0.00     0.044 A 
HETATM   19  C   UNL     1       4.297   0.616  -6.838  0.00  0.00     0.143 A 
HETATM   20  F   UNL     1       3.108   0.480  -6.229  0.00  0.00    -0.204 F 
ENDBRANCH  13  14
ENDBRANCH   3   7
BRANCH   4  21
HETATM   21  O   UNL     1       2.399   2.161  -1.948  0.00  0.00    -0.360 OA
HETATM   22  H   UNL     1       2.924   2.939  -2.244  0.00  0.00     0.217 HD
ENDBRANCH   4  21
BRANCH   1  23
HETATM   23  C   UNL     1       5.596  -2.349  -2.745  0.00  0.00     0.179 C 
HETATM   24  O   UNL     1       6.361  -2.499  -3.673  0.00  0.00    -0.646 OA
BRANCH  23  25
HETATM   25  O   UNL     1       5.655  -3.077  -1.611  0.00  0.00    -0.773 OA
HETATM   26  H   UNL     1       4.906  -2.896  -0.997  0.00  0.00     0.167 HD
ENDBRANCH  23  25
ENDBRANCH   1  23
BRANCH   6  27
HETATM   27  O   UNL     1       3.187  -2.397  -1.144  0.00  0.00    -0.360 OA
HETATM   28  H   UNL     1       2.247  -2.352  -0.877  0.00  0.00     0.217 HD
ENDBRANCH   6  27
TORSDOF 6
