MODEL 1
REMARK VINA RESULT:    -9.273      0.000      0.000
REMARK INTER + INTRA:         -13.231
REMARK INTER:                 -12.022
REMARK INTRA:                  -1.209
REMARK UNBOUND:                -0.976
REMARK  6 active torsions:
REMARK  status: ('A' for Active; 'I' for Inactive)
REMARK    1  A    between atoms: O_2  and  C_3 
REMARK    2  A    between atoms: C_8  and  N_9 
REMARK       I    between atoms: N_9  and  C_11 
REMARK    3  A    between atoms: C_11  and  C_13 
REMARK    4  A    between atoms: C_15  and  O_16 
REMARK    5  A    between atoms: C_23  and  C_24 
REMARK    6  A    between atoms: C_24  and  C_25 
ROOT
HETATM    1  C   UNL     1       2.361   8.187  25.193  0.00  0.00     0.066 C 
HETATM    2  C   UNL     1       1.235   9.049  25.090  0.00  0.00     0.035 C 
HETATM    3  C   UNL     1       2.657   7.638  26.446  0.00  0.00     0.083 C 
HETATM    4  C   UNL     1       1.994   8.044  27.612  0.00  0.00     0.069 C 
HETATM    5  C   UNL     1       0.862   8.846  27.453  0.00  0.00     0.065 A 
HETATM    6  C   UNL     1       0.426   9.303  26.217  0.00  0.00     0.020 A 
HETATM    7  N   UNL     1      -0.064   9.295  28.353  0.00  0.00    -0.277 N 
HETATM    8  H   UNL     1      -0.061   9.168  29.357  0.00  0.00     0.189 HD
HETATM    9  N   UNL     1      -1.111   9.924  27.798  0.00  0.00    -0.178 NA
HETATM   10  C   UNL     1      -0.854   9.875  26.479  0.00  0.00     0.071 A 
ENDROOT
BRANCH   1  11
HETATM   11  C   UNL     1       2.958   7.749  23.890  0.00  0.00     0.260 C 
HETATM   12  N   UNL     1       3.818   8.549  23.093  0.00  0.00    -0.318 N 
HETATM   13  C   UNL     1       4.155   9.949  23.379  0.00  0.00     0.159 C 
HETATM   14  O   UNL     1       2.670   6.581  23.612  0.00  0.00    -0.267 OA
BRANCH  12  15
HETATM   15  C   UNL     1       4.423   7.987  21.893  0.00  0.00     0.039 A 
HETATM   16  C   UNL     1       3.942   8.290  20.605  0.00  0.00     0.066 A 
HETATM   17  C   UNL     1       4.599   7.822  19.453  0.00  0.00     0.070 A 
HETATM   18  C   UNL     1       5.702   6.980  19.572  0.00  0.00     0.037 A 
HETATM   19  C   UNL     1       6.158   6.625  20.833  0.00  0.00     0.005 A 
HETATM   20  C   UNL     1       5.525   7.121  21.973  0.00  0.00     0.030 A 
BRANCH  17  21
HETATM   21  O   UNL     1       4.069   8.221  18.250  0.00  0.00    -0.356 OA
HETATM   22  C   UNL     1       2.657   8.432  18.257  0.00  0.00     0.210 C 
ENDBRANCH  17  21
ENDBRANCH  12  15
ENDBRANCH   1  11
BRANCH   3  23
HETATM   23  O   UNL     1       3.509   6.584  26.628  0.00  0.00    -0.360 OA
HETATM   24  H   UNL     1       3.758   6.257  25.741  0.00  0.00     0.217 HD
ENDBRANCH   3  23
BRANCH  10  25
HETATM   25  C   UNL     1      -1.851  10.434  25.517  0.00  0.00     0.100 C 
BRANCH  25  26
HETATM   26  C   UNL     1      -1.179  11.520  24.692  0.00  0.00    -0.052 A 
HETATM   27  C   UNL     1      -0.324  12.445  25.312  0.00  0.00     0.007 A 
HETATM   28  C   UNL     1       0.185  13.532  24.603  0.00  0.00     0.001 A 
HETATM   29  C   UNL     1      -0.133  13.710  23.258  0.00  0.00     0.007 A 
HETATM   30  C   UNL     1      -0.949  12.782  22.600  0.00  0.00    -0.061 A 
HETATM   31  C   UNL     1      -1.466  11.694  23.321  0.00  0.00     0.014 A 
HETATM   32  C   UNL     1      -1.215  12.934  21.128  0.00  0.00     0.048 C 
ENDBRANCH  25  26
ENDBRANCH  10  25
TORSDOF 6
ENDMDL
MODEL 2
REMARK VINA RESULT:    -9.163      0.547      1.297
REMARK INTER + INTRA:         -13.084
REMARK INTER:                 -12.054
REMARK INTRA:                  -1.030
REMARK UNBOUND:                -0.976
REMARK  6 active torsions:
REMARK  status: ('A' for Active; 'I' for Inactive)
REMARK    1  A    between atoms: O_2  and  C_3 
REMARK    2  A    between atoms: C_8  and  N_9 
REMARK       I    between atoms: N_9  and  C_11 
REMARK    3  A    between atoms: C_11  and  C_13 
REMARK    4  A    between atoms: C_15  and  O_16 
REMARK    5  A    between atoms: C_23  and  C_24 
REMARK    6  A    between atoms: C_24  and  C_25 
ROOT
HETATM    1  C   UNL     1       2.092   8.441  25.331  0.00  0.00     0.066 C 
HETATM    2  C   UNL     1       0.931   9.223  25.079  0.00  0.00     0.035 C 
HETATM    3  C   UNL     1       2.336   8.031  26.646  0.00  0.00     0.083 C 
HETATM    4  C   UNL     1       1.579   8.505  27.727  0.00  0.00     0.069 C 
HETATM    5  C   UNL     1       0.420   9.222  27.424  0.00  0.00     0.065 A 
HETATM    6  C   UNL     1       0.040   9.535  26.127  0.00  0.00     0.020 A 
HETATM    7  N   UNL     1      -0.584   9.699  28.221  0.00  0.00    -0.277 N 
HETATM    8  H   UNL     1      -0.638   9.668  29.231  0.00  0.00     0.189 HD
HETATM    9  N   UNL     1      -1.625  10.212  27.547  0.00  0.00    -0.178 NA
HETATM   10  C   UNL     1      -1.282  10.054  26.256  0.00  0.00     0.071 A 
ENDROOT
BRANCH   1  11
HETATM   11  C   UNL     1       2.793   7.918  24.114  0.00  0.00     0.260 C 
HETATM   12  N   UNL     1       3.715   8.666  23.336  0.00  0.00    -0.318 N 
HETATM   13  C   UNL     1       4.028  10.084  23.552  0.00  0.00     0.159 C 
HETATM   14  O   UNL     1       2.527   6.732  23.894  0.00  0.00    -0.267 OA
BRANCH  12  15
HETATM   15  C   UNL     1       4.415   8.026  22.231  0.00  0.00     0.039 A 
HETATM   16  C   UNL     1       4.118   8.326  20.888  0.00  0.00     0.066 A 
HETATM   17  C   UNL     1       4.871   7.777  19.835  0.00  0.00     0.070 A 
HETATM   18  C   UNL     1       5.884   6.860  20.104  0.00  0.00     0.037 A 
HETATM   19  C   UNL     1       6.156   6.509  21.418  0.00  0.00     0.005 A 
HETATM   20  C   UNL     1       5.430   7.084  22.462  0.00  0.00     0.030 A 
BRANCH  17  21
HETATM   21  O   UNL     1       4.523   8.179  18.568  0.00  0.00    -0.356 OA
HETATM   22  C   UNL     1       3.122   8.143  18.291  0.00  0.00     0.210 C 
ENDBRANCH  17  21
ENDBRANCH  12  15
ENDBRANCH   1  11
BRANCH   3  23
HETATM   23  O   UNL     1       3.229   7.050  26.979  0.00  0.00    -0.360 OA
HETATM   24  H   UNL     1       3.751   6.850  26.178  0.00  0.00     0.217 HD
ENDBRANCH   3  23
BRANCH  10  25
HETATM   25  C   UNL     1      -2.243  10.460  25.188  0.00  0.00     0.100 C 
BRANCH  25  26
HETATM   26  C   UNL     1      -1.622  11.583  24.372  0.00  0.00    -0.052 A 
HETATM   27  C   UNL     1      -1.994  11.764  23.030  0.00  0.00     0.007 A 
HETATM   28  C   UNL     1      -1.333  12.692  22.226  0.00  0.00     0.001 A 
HETATM   29  C   UNL     1      -0.300  13.469  22.747  0.00  0.00     0.007 A 
HETATM   30  C   UNL     1       0.066  13.342  24.092  0.00  0.00    -0.061 A 
HETATM   31  C   UNL     1      -0.597  12.400  24.895  0.00  0.00     0.014 A 
HETATM   32  C   UNL     1       1.120  14.246  24.667  0.00  0.00     0.048 C 
ENDBRANCH  25  26
ENDBRANCH  10  25
TORSDOF 6
ENDMDL
MODEL 3
REMARK VINA RESULT:    -8.587      2.362      7.673
REMARK INTER + INTRA:         -12.324
REMARK INTER:                 -11.158
REMARK INTRA:                  -1.167
REMARK UNBOUND:                -0.976
REMARK  6 active torsions:
REMARK  status: ('A' for Active; 'I' for Inactive)
REMARK    1  A    between atoms: O_2  and  C_3 
REMARK    2  A    between atoms: C_8  and  N_9 
REMARK       I    between atoms: N_9  and  C_11 
REMARK    3  A    between atoms: C_11  and  C_13 
REMARK    4  A    between atoms: C_15  and  O_16 
REMARK    5  A    between atoms: C_23  and  C_24 
REMARK    6  A    between atoms: C_24  and  C_25 
ROOT
HETATM    1  C   UNL     1       3.623   7.817  23.895  0.00  0.00     0.066 C 
HETATM    2  C   UNL     1       3.719   7.969  22.484  0.00  0.00     0.035 C 
HETATM    3  C   UNL     1       4.654   7.139  24.555  0.00  0.00     0.083 C 
HETATM    4  C   UNL     1       5.668   6.467  23.859  0.00  0.00     0.069 C 
HETATM    5  C   UNL     1       5.751   6.691  22.484  0.00  0.00     0.065 A 
HETATM    6  C   UNL     1       4.845   7.479  21.789  0.00  0.00     0.020 A 
HETATM    7  N   UNL     1       6.679   6.303  21.557  0.00  0.00    -0.277 N 
HETATM    8  H   UNL     1       7.481   5.701  21.701  0.00  0.00     0.189 HD
HETATM    9  N   UNL     1       6.504   6.845  20.342  0.00  0.00    -0.178 NA
HETATM   10  C   UNL     1       5.418   7.624  20.491  0.00  0.00     0.071 A 
ENDROOT
BRANCH   1  11
HETATM   11  C   UNL     1       2.555   8.632  24.559  0.00  0.00     0.260 C 
HETATM   12  N   UNL     1       1.425   8.085  25.222  0.00  0.00    -0.318 N 
HETATM   13  C   UNL     1       1.092   6.656  25.256  0.00  0.00     0.159 C 
HETATM   14  O   UNL     1       2.798   9.843  24.522  0.00  0.00    -0.267 OA
BRANCH  12  15
HETATM   15  C   UNL     1       0.501   8.967  25.921  0.00  0.00     0.039 A 
HETATM   16  C   UNL     1      -0.455   9.739  25.233  0.00  0.00     0.066 A 
HETATM   17  C   UNL     1      -1.408  10.506  25.926  0.00  0.00     0.070 A 
HETATM   18  C   UNL     1      -1.372  10.574  27.317  0.00  0.00     0.037 A 
HETATM   19  C   UNL     1      -0.404   9.863  28.011  0.00  0.00     0.005 A 
HETATM   20  C   UNL     1       0.517   9.074  27.320  0.00  0.00     0.030 A 
BRANCH  17  21
HETATM   21  O   UNL     1      -2.321  11.180  25.153  0.00  0.00    -0.356 OA
HETATM   22  C   UNL     1      -2.000  11.243  23.763  0.00  0.00     0.210 C 
ENDBRANCH  17  21
ENDBRANCH  12  15
ENDBRANCH   1  11
BRANCH   3  23
HETATM   23  O   UNL     1       4.838   7.178  25.909  0.00  0.00    -0.360 OA
HETATM   24  H   UNL     1       5.132   8.082  26.135  0.00  0.00     0.217 HD
ENDBRANCH   3  23
BRANCH  10  25
HETATM   25  C   UNL     1       4.947   8.452  19.341  0.00  0.00     0.100 C 
BRANCH  25  26
HETATM   26  C   UNL     1       3.750   7.767  18.702  0.00  0.00    -0.052 A 
HETATM   27  C   UNL     1       2.623   8.520  18.337  0.00  0.00     0.007 A 
HETATM   28  C   UNL     1       1.462   7.893  17.884  0.00  0.00     0.001 A 
HETATM   29  C   UNL     1       1.407   6.505  17.771  0.00  0.00     0.007 A 
HETATM   30  C   UNL     1       2.529   5.729  18.087  0.00  0.00    -0.061 A 
HETATM   31  C   UNL     1       3.692   6.365  18.550  0.00  0.00     0.014 A 
HETATM   32  C   UNL     1       2.490   4.241  17.877  0.00  0.00     0.048 C 
ENDBRANCH  25  26
ENDBRANCH  10  25
TORSDOF 6
ENDMDL
MODEL 4
REMARK VINA RESULT:    -8.280      2.486      7.717
REMARK INTER + INTRA:         -11.918
REMARK INTER:                 -10.941
REMARK INTRA:                  -0.976
REMARK UNBOUND:                -0.976
REMARK  6 active torsions:
REMARK  status: ('A' for Active; 'I' for Inactive)
REMARK    1  A    between atoms: O_2  and  C_3 
REMARK    2  A    between atoms: C_8  and  N_9 
REMARK       I    between atoms: N_9  and  C_11 
REMARK    3  A    between atoms: C_11  and  C_13 
REMARK    4  A    between atoms: C_15  and  O_16 
REMARK    5  A    between atoms: C_23  and  C_24 
REMARK    6  A    between atoms: C_24  and  C_25 
ROOT
HETATM    1  C   UNL     1       3.769   7.109  23.098  0.00  0.00     0.066 C 
HETATM    2  C   UNL     1       3.309   7.385  21.781  0.00  0.00     0.035 C 
HETATM    3  C   UNL     1       5.110   6.744  23.264  0.00  0.00     0.083 C 
HETATM    4  C   UNL     1       5.950   6.478  22.174  0.00  0.00     0.069 C 
HETATM    5  C   UNL     1       5.472   6.818  20.907  0.00  0.00     0.065 A 
HETATM    6  C   UNL     1       4.200   7.327  20.688  0.00  0.00     0.020 A 
HETATM    7  N   UNL     1       6.075   6.810  19.679  0.00  0.00    -0.277 N 
HETATM    8  H   UNL     1       7.006   6.483  19.450  0.00  0.00     0.189 HD
HETATM    9  N   UNL     1       5.338   7.357  18.700  0.00  0.00    -0.178 NA
HETATM   10  C   UNL     1       4.209   7.740  19.323  0.00  0.00     0.071 A 
ENDROOT
BRANCH   1  11
HETATM   11  C   UNL     1       2.831   7.495  24.201  0.00  0.00     0.260 C 
HETATM   12  N   UNL     1       2.627   8.827  24.651  0.00  0.00    -0.318 N 
HETATM   13  C   UNL     1       3.381   9.991  24.172  0.00  0.00     0.159 C 
HETATM   14  O   UNL     1       2.201   6.528  24.641  0.00  0.00    -0.267 OA
BRANCH  12  15
HETATM   15  C   UNL     1       1.617   9.100  25.663  0.00  0.00     0.039 A 
HETATM   16  C   UNL     1       0.436   9.806  25.363  0.00  0.00     0.066 A 
HETATM   17  C   UNL     1      -0.577   9.974  26.324  0.00  0.00     0.070 A 
HETATM   18  C   UNL     1      -0.393   9.504  27.622  0.00  0.00     0.037 A 
HETATM   19  C   UNL     1       0.788   8.854  27.952  0.00  0.00     0.005 A 
HETATM   20  C   UNL     1       1.775   8.658  26.985  0.00  0.00     0.030 A 
BRANCH  17  21
HETATM   21  O   UNL     1      -1.705  10.636  25.906  0.00  0.00    -0.356 OA
HETATM   22  C   UNL     1      -1.839  10.757  24.489  0.00  0.00     0.210 C 
ENDBRANCH  17  21
ENDBRANCH  12  15
ENDBRANCH   1  11
BRANCH   3  23
HETATM   23  O   UNL     1       5.749   6.740  24.473  0.00  0.00    -0.360 OA
HETATM   24  H   UNL     1       6.698   6.587  24.298  0.00  0.00     0.217 HD
ENDBRANCH   3  23
BRANCH  10  25
HETATM   25  C   UNL     1       3.153   8.459  18.549  0.00  0.00     0.100 C 
BRANCH  25  26
HETATM   26  C   UNL     1       2.244   7.433  17.892  0.00  0.00    -0.052 A 
HETATM   27  C   UNL     1       2.135   7.386  16.493  0.00  0.00     0.007 A 
HETATM   28  C   UNL     1       1.201   6.552  15.879  0.00  0.00     0.001 A 
HETATM   29  C   UNL     1       0.369   5.738  16.644  0.00  0.00     0.007 A 
HETATM   30  C   UNL     1       0.482   5.731  18.040  0.00  0.00    -0.061 A 
HETATM   31  C   UNL     1       1.419   6.578  18.653  0.00  0.00     0.014 A 
HETATM   32  C   UNL     1      -0.357   4.785  18.852  0.00  0.00     0.048 C 
ENDBRANCH  25  26
ENDBRANCH  10  25
TORSDOF 6
ENDMDL
MODEL 5
REMARK VINA RESULT:    -8.259      2.950      7.987
REMARK INTER + INTRA:         -11.890
REMARK INTER:                 -10.744
REMARK INTRA:                  -1.147
REMARK UNBOUND:                -0.976
REMARK  6 active torsions:
REMARK  status: ('A' for Active; 'I' for Inactive)
REMARK    1  A    between atoms: O_2  and  C_3 
REMARK    2  A    between atoms: C_8  and  N_9 
REMARK       I    between atoms: N_9  and  C_11 
REMARK    3  A    between atoms: C_11  and  C_13 
REMARK    4  A    between atoms: C_15  and  O_16 
REMARK    5  A    between atoms: C_23  and  C_24 
REMARK    6  A    between atoms: C_24  and  C_25 
ROOT
HETATM    1  C   UNL     1       3.867   6.972  23.004  0.00  0.00     0.066 C 
HETATM    2  C   UNL     1       3.344   7.292  21.721  0.00  0.00     0.035 C 
HETATM    3  C   UNL     1       5.228   6.662  23.101  0.00  0.00     0.083 C 
HETATM    4  C   UNL     1       6.035   6.490  21.967  0.00  0.00     0.069 C 
HETATM    5  C   UNL     1       5.493   6.870  20.738  0.00  0.00     0.065 A 
HETATM    6  C   UNL     1       4.192   7.331  20.594  0.00  0.00     0.020 A 
HETATM    7  N   UNL     1       6.046   6.953  19.491  0.00  0.00    -0.277 N 
HETATM    8  H   UNL     1       6.981   6.681  19.210  0.00  0.00     0.189 HD
HETATM    9  N   UNL     1       5.248   7.513  18.569  0.00  0.00    -0.178 NA
HETATM   10  C   UNL     1       4.128   7.812  19.253  0.00  0.00     0.071 A 
ENDROOT
BRANCH   1  11
HETATM   11  C   UNL     1       2.958   7.258  24.160  0.00  0.00     0.260 C 
HETATM   12  N   UNL     1       2.702   8.556  24.678  0.00  0.00    -0.318 N 
HETATM   13  C   UNL     1       3.373   9.779  24.222  0.00  0.00     0.159 C 
HETATM   14  O   UNL     1       2.399   6.240  24.580  0.00  0.00    -0.267 OA
BRANCH  12  15
HETATM   15  C   UNL     1       1.722   8.730  25.740  0.00  0.00     0.039 A 
HETATM   16  C   UNL     1       2.071   8.616  27.100  0.00  0.00     0.066 A 
HETATM   17  C   UNL     1       1.138   8.887  28.116  0.00  0.00     0.070 A 
HETATM   18  C   UNL     1      -0.178   9.203  27.791  0.00  0.00     0.037 A 
HETATM   19  C   UNL     1      -0.555   9.267  26.457  0.00  0.00     0.005 A 
HETATM   20  C   UNL     1       0.383   9.033  25.451  0.00  0.00     0.030 A 
BRANCH  17  21
HETATM   21  O   UNL     1       1.603   8.791  29.406  0.00  0.00    -0.356 OA
HETATM   22  C   UNL     1       3.023   8.864  29.538  0.00  0.00     0.210 C 
ENDBRANCH  17  21
ENDBRANCH  12  15
ENDBRANCH   1  11
BRANCH   3  23
HETATM   23  O   UNL     1       5.914   6.626  24.283  0.00  0.00    -0.360 OA
HETATM   24  H   UNL     1       6.582   7.339  24.252  0.00  0.00     0.217 HD
ENDBRANCH   3  23
BRANCH  10  25
HETATM   25  C   UNL     1       3.012   8.520  18.558  0.00  0.00     0.100 C 
BRANCH  25  26
HETATM   26  C   UNL     1       2.145   7.490  17.850  0.00  0.00    -0.052 A 
HETATM   27  C   UNL     1       2.077   7.474  16.448  0.00  0.00     0.007 A 
HETATM   28  C   UNL     1       1.180   6.635  15.787  0.00  0.00     0.001 A 
HETATM   29  C   UNL     1       0.346   5.784  16.509  0.00  0.00     0.007 A 
HETATM   30  C   UNL     1       0.420   5.746  17.907  0.00  0.00    -0.061 A 
HETATM   31  C   UNL     1       1.319   6.599  18.567  0.00  0.00     0.014 A 
HETATM   32  C   UNL     1      -0.420   4.762  18.671  0.00  0.00     0.048 C 
ENDBRANCH  25  26
ENDBRANCH  10  25
TORSDOF 6
ENDMDL
MODEL 6
REMARK VINA RESULT:    -8.256      2.577      7.987
REMARK INTER + INTRA:         -11.886
REMARK INTER:                 -10.702
REMARK INTRA:                  -1.184
REMARK UNBOUND:                -0.976
REMARK  6 active torsions:
REMARK  status: ('A' for Active; 'I' for Inactive)
REMARK    1  A    between atoms: O_2  and  C_3 
REMARK    2  A    between atoms: C_8  and  N_9 
REMARK       I    between atoms: N_9  and  C_11 
REMARK    3  A    between atoms: C_11  and  C_13 
REMARK    4  A    between atoms: C_15  and  O_16 
REMARK    5  A    between atoms: C_23  and  C_24 
REMARK    6  A    between atoms: C_24  and  C_25 
ROOT
HETATM    1  C   UNL     1       3.530   7.772  23.751  0.00  0.00     0.066 C 
HETATM    2  C   UNL     1       3.700   7.876  22.343  0.00  0.00     0.035 C 
HETATM    3  C   UNL     1       4.547   7.161  24.494  0.00  0.00     0.083 C 
HETATM    4  C   UNL     1       5.625   6.506  23.882  0.00  0.00     0.069 C 
HETATM    5  C   UNL     1       5.778   6.684  22.506  0.00  0.00     0.065 A 
HETATM    6  C   UNL     1       4.882   7.408  21.732  0.00  0.00     0.020 A 
HETATM    7  N   UNL     1       6.771   6.301  21.648  0.00  0.00    -0.277 N 
HETATM    8  H   UNL     1       7.586   5.738  21.859  0.00  0.00     0.189 HD
HETATM    9  N   UNL     1       6.646   6.791  20.405  0.00  0.00    -0.178 NA
HETATM   10  C   UNL     1       5.523   7.530  20.463  0.00  0.00     0.071 A 
ENDROOT
BRANCH   1  11
HETATM   11  C   UNL     1       2.395   8.566  24.323  0.00  0.00     0.260 C 
HETATM   12  N   UNL     1       1.278   8.000  24.994  0.00  0.00    -0.318 N 
HETATM   13  C   UNL     1       1.030   6.559  25.126  0.00  0.00     0.159 C 
HETATM   14  O   UNL     1       2.566   9.783  24.202  0.00  0.00    -0.267 OA
BRANCH  12  15
HETATM   15  C   UNL     1       0.281   8.871  25.599  0.00  0.00     0.039 A 
HETATM   16  C   UNL     1       0.132   8.975  26.995  0.00  0.00     0.066 A 
HETATM   17  C   UNL     1      -0.763   9.896  27.566  0.00  0.00     0.070 A 
HETATM   18  C   UNL     1      -1.580  10.675  26.750  0.00  0.00     0.037 A 
HETATM   19  C   UNL     1      -1.487  10.548  25.372  0.00  0.00     0.005 A 
HETATM   20  C   UNL     1      -0.571   9.659  24.809  0.00  0.00     0.030 A 
BRANCH  17  21
HETATM   21  O   UNL     1      -0.789   9.944  28.939  0.00  0.00    -0.356 OA
HETATM   22  C   UNL     1      -0.002   8.945  29.589  0.00  0.00     0.210 C 
ENDBRANCH  17  21
ENDBRANCH  12  15
ENDBRANCH   1  11
BRANCH   3  23
HETATM   23  O   UNL     1       4.652   7.257  25.854  0.00  0.00    -0.360 OA
HETATM   24  H   UNL     1       3.743   7.274  26.213  0.00  0.00     0.217 HD
ENDBRANCH   3  23
BRANCH  10  25
HETATM   25  C   UNL     1       5.087   8.295  19.257  0.00  0.00     0.100 C 
BRANCH  25  26
HETATM   26  C   UNL     1       3.861   7.617  18.663  0.00  0.00    -0.052 A 
HETATM   27  C   UNL     1       2.722   8.376  18.354  0.00  0.00     0.007 A 
HETATM   28  C   UNL     1       1.541   7.754  17.946  0.00  0.00     0.001 A 
HETATM   29  C   UNL     1       1.479   6.368  17.822  0.00  0.00     0.007 A 
HETATM   30  C   UNL     1       2.612   5.587  18.083  0.00  0.00    -0.061 A 
HETATM   31  C   UNL     1       3.795   6.217  18.501  0.00  0.00     0.014 A 
HETATM   32  C   UNL     1       2.561   4.101  17.861  0.00  0.00     0.048 C 
ENDBRANCH  25  26
ENDBRANCH  10  25
TORSDOF 6
ENDMDL
MODEL 7
REMARK VINA RESULT:    -7.977      2.014      2.330
REMARK INTER + INTRA:         -11.517
REMARK INTER:                 -10.582
REMARK INTRA:                  -0.935
REMARK UNBOUND:                -0.976
REMARK  6 active torsions:
REMARK  status: ('A' for Active; 'I' for Inactive)
REMARK    1  A    between atoms: O_2  and  C_3 
REMARK    2  A    between atoms: C_8  and  N_9 
REMARK       I    between atoms: N_9  and  C_11 
REMARK    3  A    between atoms: C_11  and  C_13 
REMARK    4  A    between atoms: C_15  and  O_16 
REMARK    5  A    between atoms: C_23  and  C_24 
REMARK    6  A    between atoms: C_24  and  C_25 
ROOT
HETATM    1  C   UNL     1       1.321   7.663  26.667  0.00  0.00     0.066 C 
HETATM    2  C   UNL     1       0.434   8.600  26.068  0.00  0.00     0.035 C 
HETATM    3  C   UNL     1       1.330   7.565  28.063  0.00  0.00     0.083 C 
HETATM    4  C   UNL     1       0.632   8.468  28.878  0.00  0.00     0.069 C 
HETATM    5  C   UNL     1      -0.265   9.330  28.246  0.00  0.00     0.065 A 
HETATM    6  C   UNL     1      -0.433   9.373  26.869  0.00  0.00     0.020 A 
HETATM    7  N   UNL     1      -1.174  10.219  28.749  0.00  0.00    -0.277 N 
HETATM    8  H   UNL     1      -1.324  10.467  29.720  0.00  0.00     0.189 HD
HETATM    9  N   UNL     1      -1.980  10.766  27.826  0.00  0.00    -0.178 NA
HETATM   10  C   UNL     1      -1.578  10.201  26.673  0.00  0.00     0.071 A 
ENDROOT
BRANCH   1  11
HETATM   11  C   UNL     1       1.963   6.691  25.724  0.00  0.00     0.260 C 
HETATM   12  N   UNL     1       2.927   7.044  24.743  0.00  0.00    -0.318 N 
HETATM   13  C   UNL     1       3.347   8.419  24.447  0.00  0.00     0.159 C 
HETATM   14  O   UNL     1       1.607   5.528  25.936  0.00  0.00    -0.267 OA
BRANCH  12  15
HETATM   15  C   UNL     1       3.562   6.003  23.947  0.00  0.00     0.039 A 
HETATM   16  C   UNL     1       3.059   5.618  22.690  0.00  0.00     0.066 A 
HETATM   17  C   UNL     1       3.740   4.685  21.887  0.00  0.00     0.070 A 
HETATM   18  C   UNL     1       4.894   4.066  22.361  0.00  0.00     0.037 A 
HETATM   19  C   UNL     1       5.375   4.393  23.621  0.00  0.00     0.005 A 
HETATM   20  C   UNL     1       4.716   5.345  24.399  0.00  0.00     0.030 A 
BRANCH  17  21
HETATM   21  O   UNL     1       3.182   4.422  20.659  0.00  0.00    -0.356 OA
HETATM   22  C   UNL     1       3.612   5.288  19.608  0.00  0.00     0.210 C 
ENDBRANCH  17  21
ENDBRANCH  12  15
ENDBRANCH   1  11
BRANCH   3  23
HETATM   23  O   UNL     1       1.899   6.525  28.744  0.00  0.00    -0.360 OA
HETATM   24  H   UNL     1       2.779   6.368  28.349  0.00  0.00     0.217 HD
ENDBRANCH   3  23
BRANCH  10  25
HETATM   25  C   UNL     1      -2.299  10.527  25.407  0.00  0.00     0.100 C 
BRANCH  25  26
HETATM   26  C   UNL     1      -1.471  11.528  24.615  0.00  0.00    -0.052 A 
HETATM   27  C   UNL     1      -0.505  12.309  25.267  0.00  0.00     0.007 A 
HETATM   28  C   UNL     1       0.162  13.330  24.589  0.00  0.00     0.001 A 
HETATM   29  C   UNL     1      -0.111  13.582  23.246  0.00  0.00     0.007 A 
HETATM   30  C   UNL     1      -1.039  12.792  22.558  0.00  0.00    -0.061 A 
HETATM   31  C   UNL     1      -1.713  11.771  23.246  0.00  0.00     0.014 A 
HETATM   32  C   UNL     1      -1.261  13.013  21.087  0.00  0.00     0.048 C 
ENDBRANCH  25  26
ENDBRANCH  10  25
TORSDOF 6
ENDMDL
MODEL 8
REMARK VINA RESULT:    -7.974      2.261      4.952
REMARK INTER + INTRA:         -11.513
REMARK INTER:                 -10.666
REMARK INTRA:                  -0.847
REMARK UNBOUND:                -0.976
REMARK  6 active torsions:
REMARK  status: ('A' for Active; 'I' for Inactive)
REMARK    1  A    between atoms: O_2  and  C_3 
REMARK    2  A    between atoms: C_8  and  N_9 
REMARK       I    between atoms: N_9  and  C_11 
REMARK    3  A    between atoms: C_11  and  C_13 
REMARK    4  A    between atoms: C_15  and  O_16 
REMARK    5  A    between atoms: C_23  and  C_24 
REMARK    6  A    between atoms: C_24  and  C_25 
ROOT
HETATM    1  C   UNL     1       1.143   9.553  25.159  0.00  0.00     0.066 C 
HETATM    2  C   UNL     1       0.934   8.934  26.423  0.00  0.00     0.035 C 
HETATM    3  C   UNL     1       0.378  10.682  24.845  0.00  0.00     0.083 C 
HETATM    4  C   UNL     1      -0.688  11.107  25.650  0.00  0.00     0.069 C 
HETATM    5  C   UNL     1      -0.816  10.505  26.903  0.00  0.00     0.065 A 
HETATM    6  C   UNL     1       0.008   9.478  27.339  0.00  0.00     0.020 A 
HETATM    7  N   UNL     1      -1.646  10.774  27.956  0.00  0.00    -0.277 N 
HETATM    8  H   UNL     1      -2.395  11.454  27.994  0.00  0.00     0.189 HD
HETATM    9  N   UNL     1      -1.370  10.075  29.068  0.00  0.00    -0.178 NA
HETATM   10  C   UNL     1      -0.310   9.323  28.720  0.00  0.00     0.071 A 
ENDROOT
BRANCH   1  11
HETATM   11  C   UNL     1       2.349   9.084  24.405  0.00  0.00     0.260 C 
HETATM   12  N   UNL     1       2.608   7.728  24.068  0.00  0.00    -0.318 N 
HETATM   13  C   UNL     1       1.788   6.592  24.504  0.00  0.00     0.159 C 
HETATM   14  O   UNL     1       3.072  10.019  24.047  0.00  0.00    -0.267 OA
BRANCH  12  15
HETATM   15  C   UNL     1       3.762   7.396  23.244  0.00  0.00     0.039 A 
HETATM   16  C   UNL     1       3.884   7.851  21.917  0.00  0.00     0.066 A 
HETATM   17  C   UNL     1       5.049   7.608  21.168  0.00  0.00     0.070 A 
HETATM   18  C   UNL     1       6.079   6.842  21.707  0.00  0.00     0.037 A 
HETATM   19  C   UNL     1       5.955   6.339  22.994  0.00  0.00     0.005 A 
HETATM   20  C   UNL     1       4.812   6.613  23.747  0.00  0.00     0.030 A 
BRANCH  17  21
HETATM   21  O   UNL     1       5.076   8.141  19.903  0.00  0.00    -0.356 OA
HETATM   22  C   UNL     1       6.379   8.261  19.330  0.00  0.00     0.210 C 
ENDBRANCH  17  21
ENDBRANCH  12  15
ENDBRANCH   1  11
BRANCH   3  23
HETATM   23  O   UNL     1       0.674  11.533  23.817  0.00  0.00    -0.360 OA
HETATM   24  H   UNL     1       1.424  12.088  24.108  0.00  0.00     0.217 HD
ENDBRANCH   3  23
BRANCH  10  25
HETATM   25  C   UNL     1       0.328   8.440  29.741  0.00  0.00     0.100 C 
BRANCH  25  26
HETATM   26  C   UNL     1       0.646   7.099  29.099  0.00  0.00    -0.052 A 
HETATM   27  C   UNL     1       1.968   6.628  29.076  0.00  0.00     0.007 A 
HETATM   28  C   UNL     1       2.301   5.473  28.368  0.00  0.00     0.001 A 
HETATM   29  C   UNL     1       1.322   4.758  27.683  0.00  0.00     0.007 A 
HETATM   30  C   UNL     1      -0.013   5.178  27.722  0.00  0.00    -0.061 A 
HETATM   31  C   UNL     1      -0.341   6.345  28.429  0.00  0.00     0.014 A 
HETATM   32  C   UNL     1      -1.075   4.351  27.054  0.00  0.00     0.048 C 
ENDBRANCH  25  26
ENDBRANCH  10  25
TORSDOF 6
ENDMDL
MODEL 9
REMARK VINA RESULT:    -7.857      2.063      3.023
REMARK INTER + INTRA:         -11.359
REMARK INTER:                 -10.384
REMARK INTRA:                  -0.976
REMARK UNBOUND:                -0.976
REMARK  6 active torsions:
REMARK  status: ('A' for Active; 'I' for Inactive)
REMARK    1  A    between atoms: O_2  and  C_3 
REMARK    2  A    between atoms: C_8  and  N_9 
REMARK       I    between atoms: N_9  and  C_11 
REMARK    3  A    between atoms: C_11  and  C_13 
REMARK    4  A    between atoms: C_15  and  O_16 
REMARK    5  A    between atoms: C_23  and  C_24 
REMARK    6  A    between atoms: C_24  and  C_25 
ROOT
HETATM    1  C   UNL     1       1.494   8.022  26.137  0.00  0.00     0.066 C 
HETATM    2  C   UNL     1       0.480   8.888  25.641  0.00  0.00     0.035 C 
HETATM    3  C   UNL     1       1.638   7.904  27.524  0.00  0.00     0.083 C 
HETATM    4  C   UNL     1       0.943   8.731  28.418  0.00  0.00     0.069 C 
HETATM    5  C   UNL     1      -0.078   9.521  27.889  0.00  0.00     0.065 A 
HETATM    6  C   UNL     1      -0.373   9.571  26.534  0.00  0.00     0.020 A 
HETATM    7  N   UNL     1      -1.010  10.320  28.492  0.00  0.00    -0.277 N 
HETATM    8  H   UNL     1      -1.091  10.539  29.477  0.00  0.00     0.189 HD
HETATM    9  N   UNL     1      -1.939  10.810  27.657  0.00  0.00    -0.178 NA
HETATM   10  C   UNL     1      -1.597  10.299  26.460  0.00  0.00     0.071 A 
ENDROOT
BRANCH   1  11
HETATM   11  C   UNL     1       2.128   7.125  25.119  0.00  0.00     0.260 C 
HETATM   12  N   UNL     1       3.163   7.524  24.231  0.00  0.00    -0.318 N 
HETATM   13  C   UNL     1       3.677   8.894  24.116  0.00  0.00     0.159 C 
HETATM   14  O   UNL     1       1.695   5.970  25.176  0.00  0.00    -0.267 OA
BRANCH  12  15
HETATM   15  C   UNL     1       3.777   6.542  23.349  0.00  0.00     0.039 A 
HETATM   16  C   UNL     1       4.481   5.430  23.850  0.00  0.00     0.066 A 
HETATM   17  C   UNL     1       4.981   4.436  22.990  0.00  0.00     0.070 A 
HETATM   18  C   UNL     1       4.851   4.576  21.610  0.00  0.00     0.037 A 
HETATM   19  C   UNL     1       4.208   5.693  21.095  0.00  0.00     0.005 A 
HETATM   20  C   UNL     1       3.682   6.658  21.954  0.00  0.00     0.030 A 
BRANCH  17  21
HETATM   21  O   UNL     1       5.608   3.373  23.593  0.00  0.00    -0.356 OA
HETATM   22  C   UNL     1       5.547   3.372  25.020  0.00  0.00     0.210 C 
ENDBRANCH  17  21
ENDBRANCH  12  15
ENDBRANCH   1  11
BRANCH   3  23
HETATM   23  O   UNL     1       2.354   6.907  28.128  0.00  0.00    -0.360 OA
HETATM   24  H   UNL     1       3.300   7.117  28.006  0.00  0.00     0.217 HD
ENDBRANCH   3  23
BRANCH  10  25
HETATM   25  C   UNL     1      -2.456  10.581  25.271  0.00  0.00     0.100 C 
BRANCH  25  26
HETATM   26  C   UNL     1      -1.768  11.627  24.407  0.00  0.00    -0.052 A 
HETATM   27  C   UNL     1      -2.137  11.777  23.061  0.00  0.00     0.007 A 
HETATM   28  C   UNL     1      -1.422  12.627  22.217  0.00  0.00     0.001 A 
HETATM   29  C   UNL     1      -0.337  13.355  22.701  0.00  0.00     0.007 A 
HETATM   30  C   UNL     1       0.029  13.259  24.049  0.00  0.00    -0.061 A 
HETATM   31  C   UNL     1      -0.689  12.396  24.892  0.00  0.00     0.014 A 
HETATM   32  C   UNL     1       1.143  14.115  24.582  0.00  0.00     0.048 C 
ENDBRANCH  25  26
ENDBRANCH  10  25
TORSDOF 6
ENDMDL
