MODEL 1
REMARK VINA RESULT:    -9.556      0.000      0.000
REMARK INTER + INTRA:         -13.857
REMARK INTER:                 -12.212
REMARK INTRA:                  -1.645
REMARK UNBOUND:                -1.228
REMARK  6 active torsions:
REMARK  status: ('A' for Active; 'I' for Inactive)
REMARK    1  A    between atoms: N_6  and  C_7 
REMARK    2  A    between atoms: C_12  and  N_13 
REMARK       I    between atoms: N_13  and  C_15 
REMARK    3  A    between atoms: C_15  and  C_17 
REMARK    4  A    between atoms: C_19  and  O_20 
REMARK    5  A    between atoms: C_27  and  C_28 
REMARK    6  A    between atoms: C_28  and  C_29 
ROOT
HETATM    1  C   UNL     1       8.060  14.919  24.882  0.00  0.00     0.066 C 
HETATM    2  C   UNL     1       8.833  15.317  23.770  0.00  0.00     0.035 C 
HETATM    3  C   UNL     1       8.731  14.663  26.095  0.00  0.00     0.083 C 
HETATM    4  C   UNL     1      10.129  14.693  26.194  0.00  0.00     0.069 C 
HETATM    5  C   UNL     1      10.844  14.902  25.011  0.00  0.00     0.065 A 
HETATM    6  C   UNL     1      10.236  15.175  23.792  0.00  0.00     0.020 A 
HETATM    7  N   UNL     1      12.184  14.916  24.748  0.00  0.00    -0.277 N 
HETATM    8  H   UNL     1      12.942  14.810  25.413  0.00  0.00     0.189 HD
HETATM    9  N   UNL     1      12.491  15.050  23.447  0.00  0.00    -0.178 NA
HETATM   10  C   UNL     1      11.303  15.181  22.832  0.00  0.00     0.071 A 
ENDROOT
BRANCH   1  11
HETATM   11  C   UNL     1       6.558  14.719  24.820  0.00  0.00     0.260 C 
HETATM   12  N   UNL     1       5.980  13.621  24.101  0.00  0.00    -0.318 N 
HETATM   13  C   UNL     1       6.819  12.673  23.362  0.00  0.00     0.159 C 
HETATM   14  O   UNL     1       5.921  15.504  25.526  0.00  0.00    -0.267 OA
BRANCH  12  15
HETATM   15  C   UNL     1       4.546  13.368  24.101  0.00  0.00     0.037 A 
HETATM   16  C   UNL     1       4.000  12.226  24.708  0.00  0.00     0.032 A 
HETATM   17  C   UNL     1       2.617  11.997  24.797  0.00  0.00     0.031 A 
HETATM   18  C   UNL     1       1.685  12.892  24.285  0.00  0.00     0.030 A 
HETATM   19  C   UNL     1       2.229  13.987  23.600  0.00  0.00     0.031 A 
HETATM   20  C   UNL     1       3.617  14.228  23.513  0.00  0.00     0.032 A 
BRANCH  18  21
HETATM   21  N   UNL     1       0.320  12.701  24.402  0.00  0.00    -0.381 N 
HETATM   22  C   UNL     1      -0.420  12.944  25.646  0.00  0.00     0.123 C 
HETATM   23  C   UNL     1      -1.464  11.837  25.812  0.00  0.00     0.020 C 
HETATM   24  C   UNL     1      -2.354  11.695  24.578  0.00  0.00     0.003 C 
HETATM   25  C   UNL     1      -1.522  11.585  23.299  0.00  0.00     0.020 C 
HETATM   26  C   UNL     1      -0.527  12.737  23.203  0.00  0.00     0.123 C 
ENDBRANCH  18  21
ENDBRANCH  12  15
ENDBRANCH   1  11
BRANCH   3  27
HETATM   27  O   UNL     1       8.085  14.363  27.270  0.00  0.00    -0.360 OA
HETATM   28  H   UNL     1       8.418  14.976  27.964  0.00  0.00     0.217 HD
ENDBRANCH   3  27
BRANCH  10  29
HETATM   29  C   UNL     1      11.274  15.294  21.322  0.00  0.00     0.100 C 
BRANCH  29  30
HETATM   30  C   UNL     1      10.399  14.213  20.685  0.00  0.00    -0.052 A 
HETATM   31  C   UNL     1       9.221  14.497  19.980  0.00  0.00     0.007 A 
HETATM   32  C   UNL     1       8.449  13.479  19.417  0.00  0.00     0.001 A 
HETATM   33  C   UNL     1       8.787  12.142  19.620  0.00  0.00     0.007 A 
HETATM   34  C   UNL     1       9.885  11.815  20.425  0.00  0.00    -0.061 A 
HETATM   35  C   UNL     1      10.704  12.849  20.919  0.00  0.00     0.014 A 
HETATM   36  C   UNL     1      10.138  10.361  20.732  0.00  0.00     0.048 C 
ENDBRANCH  29  30
ENDBRANCH  10  29
TORSDOF 6
ENDMDL
MODEL 2
REMARK VINA RESULT:    -9.211      5.061      6.720
REMARK INTER + INTRA:         -13.402
REMARK INTER:                 -11.919
REMARK INTRA:                  -1.483
REMARK UNBOUND:                -1.228
REMARK  6 active torsions:
REMARK  status: ('A' for Active; 'I' for Inactive)
REMARK    1  A    between atoms: N_6  and  C_7 
REMARK    2  A    between atoms: C_12  and  N_13 
REMARK       I    between atoms: N_13  and  C_15 
REMARK    3  A    between atoms: C_15  and  C_17 
REMARK    4  A    between atoms: C_19  and  O_20 
REMARK    5  A    between atoms: C_27  and  C_28 
REMARK    6  A    between atoms: C_28  and  C_29 
ROOT
HETATM    1  C   UNL     1       8.220  10.583  22.831  0.00  0.00     0.066 C 
HETATM    2  C   UNL     1       8.128  11.434  23.954  0.00  0.00     0.035 C 
HETATM    3  C   UNL     1       9.305  10.769  21.950  0.00  0.00     0.083 C 
HETATM    4  C   UNL     1      10.217  11.822  22.102  0.00  0.00     0.069 C 
HETATM    5  C   UNL     1       9.957  12.744  23.121  0.00  0.00     0.065 A 
HETATM    6  C   UNL     1       8.913  12.602  24.027  0.00  0.00     0.020 A 
HETATM    7  N   UNL     1      10.588  13.898  23.486  0.00  0.00    -0.277 N 
HETATM    8  H   UNL     1      11.430  14.292  23.083  0.00  0.00     0.189 HD
HETATM    9  N   UNL     1       9.973  14.578  24.469  0.00  0.00    -0.178 NA
HETATM   10  C   UNL     1       8.917  13.813  24.799  0.00  0.00     0.071 A 
ENDROOT
BRANCH   1  11
HETATM   11  C   UNL     1       7.193   9.514  22.512  0.00  0.00     0.260 C 
HETATM   12  N   UNL     1       5.935   9.844  21.907  0.00  0.00    -0.318 N 
HETATM   13  C   UNL     1       5.577  11.234  21.612  0.00  0.00     0.159 C 
HETATM   14  O   UNL     1       7.591   8.365  22.713  0.00  0.00    -0.267 OA
BRANCH  12  15
HETATM   15  C   UNL     1       4.974   8.821  21.519  0.00  0.00     0.037 A 
HETATM   16  C   UNL     1       4.900   8.342  20.202  0.00  0.00     0.032 A 
HETATM   17  C   UNL     1       4.042   7.299  19.816  0.00  0.00     0.031 A 
HETATM   18  C   UNL     1       3.198   6.664  20.720  0.00  0.00     0.030 A 
HETATM   19  C   UNL     1       3.205   7.200  22.015  0.00  0.00     0.031 A 
HETATM   20  C   UNL     1       4.070   8.243  22.411  0.00  0.00     0.032 A 
BRANCH  18  21
HETATM   21  N   UNL     1       2.379   5.607  20.365  0.00  0.00    -0.381 N 
HETATM   22  C   UNL     1       2.667   4.213  20.723  0.00  0.00     0.123 C 
HETATM   23  C   UNL     1       2.310   3.324  19.530  0.00  0.00     0.020 C 
HETATM   24  C   UNL     1       0.880   3.558  19.043  0.00  0.00     0.003 C 
HETATM   25  C   UNL     1       0.602   5.046  18.821  0.00  0.00     0.020 C 
HETATM   26  C   UNL     1       0.963   5.852  20.065  0.00  0.00     0.123 C 
ENDBRANCH  18  21
ENDBRANCH  12  15
ENDBRANCH   1  11
BRANCH   3  27
HETATM   27  O   UNL     1       9.559   9.949  20.877  0.00  0.00    -0.360 OA
HETATM   28  H   UNL     1       8.811   9.313  20.797  0.00  0.00     0.217 HD
ENDBRANCH   3  27
BRANCH  10  29
HETATM   29  C   UNL     1       7.954  14.318  25.852  0.00  0.00     0.100 C 
BRANCH  29  30
HETATM   30  C   UNL     1       6.657  14.845  25.235  0.00  0.00    -0.052 A 
HETATM   31  C   UNL     1       6.539  15.202  23.885  0.00  0.00     0.007 A 
HETATM   32  C   UNL     1       5.337  15.684  23.364  0.00  0.00     0.001 A 
HETATM   33  C   UNL     1       4.244  15.906  24.200  0.00  0.00     0.007 A 
HETATM   34  C   UNL     1       4.362  15.682  25.578  0.00  0.00    -0.061 A 
HETATM   35  C   UNL     1       5.552  15.118  26.079  0.00  0.00     0.014 A 
HETATM   36  C   UNL     1       3.205  16.062  26.465  0.00  0.00     0.048 C 
ENDBRANCH  29  30
ENDBRANCH  10  29
TORSDOF 6
ENDMDL
MODEL 3
REMARK VINA RESULT:    -9.170      2.226      4.242
REMARK INTER + INTRA:         -13.347
REMARK INTER:                 -12.496
REMARK INTRA:                  -0.851
REMARK UNBOUND:                -1.228
REMARK  6 active torsions:
REMARK  status: ('A' for Active; 'I' for Inactive)
REMARK    1  A    between atoms: N_6  and  C_7 
REMARK    2  A    between atoms: C_12  and  N_13 
REMARK       I    between atoms: N_13  and  C_15 
REMARK    3  A    between atoms: C_15  and  C_17 
REMARK    4  A    between atoms: C_19  and  O_20 
REMARK    5  A    between atoms: C_27  and  C_28 
REMARK    6  A    between atoms: C_28  and  C_29 
ROOT
HETATM    1  C   UNL     1       8.931  12.202  21.880  0.00  0.00     0.066 C 
HETATM    2  C   UNL     1       9.955  12.933  22.521  0.00  0.00     0.035 C 
HETATM    3  C   UNL     1       9.251  11.528  20.685  0.00  0.00     0.083 C 
HETATM    4  C   UNL     1      10.508  11.647  20.075  0.00  0.00     0.069 C 
HETATM    5  C   UNL     1      11.412  12.540  20.657  0.00  0.00     0.065 A 
HETATM    6  C   UNL     1      11.157  13.219  21.842  0.00  0.00     0.020 A 
HETATM    7  N   UNL     1      12.663  12.940  20.284  0.00  0.00    -0.277 N 
HETATM    8  H   UNL     1      13.204  12.608  19.493  0.00  0.00     0.189 HD
HETATM    9  N   UNL     1      13.188  13.907  21.054  0.00  0.00    -0.178 NA
HETATM   10  C   UNL     1      12.262  14.119  22.006  0.00  0.00     0.071 A 
ENDROOT
BRANCH   1  11
HETATM   11  C   UNL     1       7.505  12.144  22.395  0.00  0.00     0.260 C 
HETATM   12  N   UNL     1       6.656  13.298  22.373  0.00  0.00    -0.318 N 
HETATM   13  C   UNL     1       7.147  14.593  21.891  0.00  0.00     0.159 C 
HETATM   14  O   UNL     1       7.136  11.010  22.711  0.00  0.00    -0.267 OA
BRANCH  12  15
HETATM   15  C   UNL     1       5.261  13.238  22.787  0.00  0.00     0.037 A 
HETATM   16  C   UNL     1       4.623  14.334  23.389  0.00  0.00     0.032 A 
HETATM   17  C   UNL     1       3.258  14.334  23.722  0.00  0.00     0.031 A 
HETATM   18  C   UNL     1       2.438  13.239  23.477  0.00  0.00     0.030 A 
HETATM   19  C   UNL     1       3.091  12.112  22.959  0.00  0.00     0.031 A 
HETATM   20  C   UNL     1       4.460  12.108  22.614  0.00  0.00     0.032 A 
BRANCH  18  21
HETATM   21  N   UNL     1       1.084  13.240  23.760  0.00  0.00    -0.381 N 
HETATM   22  C   UNL     1       0.534  13.673  25.050  0.00  0.00     0.123 C 
HETATM   23  C   UNL     1      -0.610  12.729  25.430  0.00  0.00     0.020 C 
HETATM   24  C   UNL     1      -1.653  12.611  24.318  0.00  0.00     0.003 C 
HETATM   25  C   UNL     1      -1.000  12.294  22.971  0.00  0.00     0.020 C 
HETATM   26  C   UNL     1       0.110  13.295  22.663  0.00  0.00     0.123 C 
ENDBRANCH  18  21
ENDBRANCH  12  15
ENDBRANCH   1  11
BRANCH   3  27
HETATM   27  O   UNL     1       8.372  10.708  20.019  0.00  0.00    -0.360 OA
HETATM   28  H   UNL     1       7.478  10.843  20.407  0.00  0.00     0.217 HD
ENDBRANCH   3  27
BRANCH  10  29
HETATM   29  C   UNL     1      12.506  15.210  23.028  0.00  0.00     0.100 C 
BRANCH  29  30
HETATM   30  C   UNL     1      11.642  15.027  24.277  0.00  0.00    -0.052 A 
HETATM   31  C   UNL     1      10.390  15.636  24.440  0.00  0.00     0.007 A 
HETATM   32  C   UNL     1       9.636  15.445  25.599  0.00  0.00     0.001 A 
HETATM   33  C   UNL     1      10.153  14.712  26.666  0.00  0.00     0.007 A 
HETATM   34  C   UNL     1      11.454  14.195  26.591  0.00  0.00    -0.061 A 
HETATM   35  C   UNL     1      12.172  14.322  25.386  0.00  0.00     0.014 A 
HETATM   36  C   UNL     1      12.027  13.527  27.814  0.00  0.00     0.048 C 
ENDBRANCH  29  30
ENDBRANCH  10  29
TORSDOF 6
ENDMDL
MODEL 4
REMARK VINA RESULT:    -9.132      2.291      4.543
REMARK INTER + INTRA:         -13.296
REMARK INTER:                 -12.138
REMARK INTRA:                  -1.158
REMARK UNBOUND:                -1.228
REMARK  6 active torsions:
REMARK  status: ('A' for Active; 'I' for Inactive)
REMARK    1  A    between atoms: N_6  and  C_7 
REMARK    2  A    between atoms: C_12  and  N_13 
REMARK       I    between atoms: N_13  and  C_15 
REMARK    3  A    between atoms: C_15  and  C_17 
REMARK    4  A    between atoms: C_19  and  O_20 
REMARK    5  A    between atoms: C_27  and  C_28 
REMARK    6  A    between atoms: C_28  and  C_29 
ROOT
HETATM    1  C   UNL     1       9.182  13.530  21.623  0.00  0.00     0.066 C 
HETATM    2  C   UNL     1      10.156  12.824  22.362  0.00  0.00     0.035 C 
HETATM    3  C   UNL     1       9.628  14.468  20.671  0.00  0.00     0.083 C 
HETATM    4  C   UNL     1      10.984  14.786  20.516  0.00  0.00     0.069 C 
HETATM    5  C   UNL     1      11.880  14.195  21.412  0.00  0.00     0.065 A 
HETATM    6  C   UNL     1      11.499  13.253  22.359  0.00  0.00     0.020 A 
HETATM    7  N   UNL     1      13.226  14.342  21.582  0.00  0.00    -0.277 N 
HETATM    8  H   UNL     1      13.858  14.910  21.028  0.00  0.00     0.189 HD
HETATM    9  N   UNL     1      13.728  13.672  22.633  0.00  0.00    -0.178 NA
HETATM   10  C   UNL     1      12.674  13.015  23.149  0.00  0.00     0.071 A 
ENDROOT
BRANCH   1  11
HETATM   11  C   UNL     1       7.690  13.354  21.834  0.00  0.00     0.260 C 
HETATM   12  N   UNL     1       7.005  14.011  22.908  0.00  0.00    -0.318 N 
HETATM   13  C   UNL     1       7.729  14.847  23.871  0.00  0.00     0.159 C 
HETATM   14  O   UNL     1       7.135  12.703  20.945  0.00  0.00    -0.267 OA
BRANCH  12  15
HETATM   15  C   UNL     1       5.561  13.918  23.074  0.00  0.00     0.037 A 
HETATM   16  C   UNL     1       4.876  12.705  22.897  0.00  0.00     0.032 A 
HETATM   17  C   UNL     1       3.499  12.565  23.131  0.00  0.00     0.031 A 
HETATM   18  C   UNL     1       2.710  13.628  23.557  0.00  0.00     0.030 A 
HETATM   19  C   UNL     1       3.373  14.859  23.649  0.00  0.00     0.031 A 
HETATM   20  C   UNL     1       4.759  15.005  23.423  0.00  0.00     0.032 A 
BRANCH  18  21
HETATM   21  N   UNL     1       1.361  13.495  23.833  0.00  0.00    -0.381 N 
HETATM   22  C   UNL     1       0.746  13.973  25.077  0.00  0.00     0.123 C 
HETATM   23  C   UNL     1      -0.287  12.939  25.533  0.00  0.00     0.020 C 
HETATM   24  C   UNL     1      -1.293  12.604  24.431  0.00  0.00     0.003 C 
HETATM   25  C   UNL     1      -0.588  12.249  23.121  0.00  0.00     0.020 C 
HETATM   26  C   UNL     1       0.403  13.341  22.730  0.00  0.00     0.123 C 
ENDBRANCH  18  21
ENDBRANCH  12  15
ENDBRANCH   1  11
BRANCH   3  27
HETATM   27  O   UNL     1       8.786  15.148  19.824  0.00  0.00    -0.360 OA
HETATM   28  H   UNL     1       7.993  15.421  20.340  0.00  0.00     0.217 HD
ENDBRANCH   3  27
BRANCH  10  29
HETATM   29  C   UNL     1      12.872  12.194  24.405  0.00  0.00     0.100 C 
BRANCH  29  30
HETATM   30  C   UNL     1      12.555  12.995  25.669  0.00  0.00    -0.052 A 
HETATM   31  C   UNL     1      13.350  12.956  26.823  0.00  0.00     0.007 A 
HETATM   32  C   UNL     1      13.021  13.701  27.957  0.00  0.00     0.001 A 
HETATM   33  C   UNL     1      11.838  14.437  27.999  0.00  0.00     0.007 A 
HETATM   34  C   UNL     1      10.954  14.400  26.913  0.00  0.00    -0.061 A 
HETATM   35  C   UNL     1      11.335  13.713  25.744  0.00  0.00     0.014 A 
HETATM   36  C   UNL     1       9.625  15.097  27.051  0.00  0.00     0.048 C 
ENDBRANCH  29  30
ENDBRANCH  10  29
TORSDOF 6
ENDMDL
MODEL 5
REMARK VINA RESULT:    -9.113      3.048     10.918
REMARK INTER + INTRA:         -13.271
REMARK INTER:                 -11.982
REMARK INTRA:                  -1.289
REMARK UNBOUND:                -1.228
REMARK  6 active torsions:
REMARK  status: ('A' for Active; 'I' for Inactive)
REMARK    1  A    between atoms: N_6  and  C_7 
REMARK    2  A    between atoms: C_12  and  N_13 
REMARK       I    between atoms: N_13  and  C_15 
REMARK    3  A    between atoms: C_15  and  C_17 
REMARK    4  A    between atoms: C_19  and  O_20 
REMARK    5  A    between atoms: C_27  and  C_28 
REMARK    6  A    between atoms: C_28  and  C_29 
ROOT
HETATM    1  C   UNL     1       0.921  12.782  23.907  0.00  0.00     0.066 C 
HETATM    2  C   UNL     1       0.391  12.506  25.186  0.00  0.00     0.035 C 
HETATM    3  C   UNL     1       0.021  12.885  22.828  0.00  0.00     0.083 C 
HETATM    4  C   UNL     1      -1.349  12.624  22.971  0.00  0.00     0.069 C 
HETATM    5  C   UNL     1      -1.779  12.166  24.220  0.00  0.00     0.065 A 
HETATM    6  C   UNL     1      -0.940  12.060  25.323  0.00  0.00     0.020 A 
HETATM    7  N   UNL     1      -3.002  11.758  24.668  0.00  0.00    -0.277 N 
HETATM    8  H   UNL     1      -3.875  11.753  24.152  0.00  0.00     0.189 HD
HETATM    9  N   UNL     1      -3.002  11.282  25.924  0.00  0.00    -0.178 NA
HETATM   10  C   UNL     1      -1.732  11.429  26.340  0.00  0.00     0.071 A 
ENDROOT
BRANCH   1  11
HETATM   11  C   UNL     1       2.406  12.932  23.639  0.00  0.00     0.260 C 
HETATM   12  N   UNL     1       3.160  14.016  24.197  0.00  0.00    -0.318 N 
HETATM   13  C   UNL     1       2.515  15.047  25.015  0.00  0.00     0.159 C 
HETATM   14  O   UNL     1       2.896  11.991  23.010  0.00  0.00    -0.267 OA
BRANCH  12  15
HETATM   15  C   UNL     1       4.601  14.127  24.016  0.00  0.00     0.037 A 
HETATM   16  C   UNL     1       5.159  14.998  23.066  0.00  0.00     0.032 A 
HETATM   17  C   UNL     1       6.543  15.188  22.926  0.00  0.00     0.031 A 
HETATM   18  C   UNL     1       7.465  14.522  23.724  0.00  0.00     0.030 A 
HETATM   19  C   UNL     1       6.916  13.587  24.612  0.00  0.00     0.031 A 
HETATM   20  C   UNL     1       5.525  13.396  24.764  0.00  0.00     0.032 A 
BRANCH  18  21
HETATM   21  N   UNL     1       8.830  14.731  23.628  0.00  0.00    -0.381 N 
HETATM   22  C   UNL     1       9.825  13.784  24.143  0.00  0.00     0.123 C 
HETATM   23  C   UNL     1      10.963  14.581  24.787  0.00  0.00     0.020 C 
HETATM   24  C   UNL     1      11.538  15.632  23.838  0.00  0.00     0.003 C 
HETATM   25  C   UNL     1      10.435  16.498  23.227  0.00  0.00     0.020 C 
HETATM   26  C   UNL     1       9.358  15.625  22.589  0.00  0.00     0.123 C 
ENDBRANCH  18  21
ENDBRANCH  12  15
ENDBRANCH   1  11
BRANCH   3  27
HETATM   27  O   UNL     1       0.400  13.243  21.556  0.00  0.00    -0.360 OA
HETATM   28  H   UNL     1      -0.118  12.697  20.921  0.00  0.00     0.217 HD
ENDBRANCH   3  27
BRANCH  10  29
HETATM   29  C   UNL     1      -1.355  10.929  27.719  0.00  0.00     0.100 C 
BRANCH  29  30
HETATM   30  C   UNL     1      -1.277   9.402  27.772  0.00  0.00    -0.052 A 
HETATM   31  C   UNL     1      -1.933   8.633  28.742  0.00  0.00     0.007 A 
HETATM   32  C   UNL     1      -1.831   7.240  28.756  0.00  0.00     0.001 A 
HETATM   33  C   UNL     1      -0.997   6.585  27.853  0.00  0.00     0.007 A 
HETATM   34  C   UNL     1      -0.225   7.328  26.949  0.00  0.00    -0.061 A 
HETATM   35  C   UNL     1      -0.399   8.725  26.889  0.00  0.00     0.014 A 
HETATM   36  C   UNL     1       0.765   6.593  26.083  0.00  0.00     0.048 C 
ENDBRANCH  29  30
ENDBRANCH  10  29
TORSDOF 6
ENDMDL
MODEL 6
REMARK VINA RESULT:    -8.949      5.526      7.353
REMARK INTER + INTRA:         -13.055
REMARK INTER:                 -11.911
REMARK INTRA:                  -1.143
REMARK UNBOUND:                -1.228
REMARK  6 active torsions:
REMARK  status: ('A' for Active; 'I' for Inactive)
REMARK    1  A    between atoms: N_6  and  C_7 
REMARK    2  A    between atoms: C_12  and  N_13 
REMARK       I    between atoms: N_13  and  C_15 
REMARK    3  A    between atoms: C_15  and  C_17 
REMARK    4  A    between atoms: C_19  and  O_20 
REMARK    5  A    between atoms: C_27  and  C_28 
REMARK    6  A    between atoms: C_28  and  C_29 
ROOT
HETATM    1  C   UNL     1       6.851  11.001  21.825  0.00  0.00     0.066 C 
HETATM    2  C   UNL     1       6.345  12.234  22.288  0.00  0.00     0.035 C 
HETATM    3  C   UNL     1       8.216  10.724  22.042  0.00  0.00     0.083 C 
HETATM    4  C   UNL     1       9.088  11.667  22.604  0.00  0.00     0.069 C 
HETATM    5  C   UNL     1       8.565  12.938  22.862  0.00  0.00     0.065 A 
HETATM    6  C   UNL     1       7.226  13.262  22.682  0.00  0.00     0.020 A 
HETATM    7  N   UNL     1       9.146  14.083  23.326  0.00  0.00    -0.277 N 
HETATM    8  H   UNL     1      10.108  14.209  23.621  0.00  0.00     0.189 HD
HETATM    9  N   UNL     1       8.329  15.150  23.345  0.00  0.00    -0.178 NA
HETATM   10  C   UNL     1       7.145  14.675  22.922  0.00  0.00     0.071 A 
ENDROOT
BRANCH   1  11
HETATM   11  C   UNL     1       6.008   9.987  21.075  0.00  0.00     0.260 C 
HETATM   12  N   UNL     1       5.448   8.845  21.737  0.00  0.00    -0.318 N 
HETATM   13  C   UNL     1       5.704   8.592  23.158  0.00  0.00     0.159 C 
HETATM   14  O   UNL     1       5.770  10.303  19.907  0.00  0.00    -0.267 OA
BRANCH  12  15
HETATM   15  C   UNL     1       4.570   7.908  21.050  0.00  0.00     0.037 A 
HETATM   16  C   UNL     1       3.401   7.419  21.653  0.00  0.00     0.032 A 
HETATM   17  C   UNL     1       2.492   6.581  20.986  0.00  0.00     0.031 A 
HETATM   18  C   UNL     1       2.690   6.174  19.672  0.00  0.00     0.030 A 
HETATM   19  C   UNL     1       3.900   6.587  19.099  0.00  0.00     0.031 A 
HETATM   20  C   UNL     1       4.814   7.436  19.760  0.00  0.00     0.032 A 
BRANCH  18  21
HETATM   21  N   UNL     1       1.784   5.384  18.988  0.00  0.00    -0.381 N 
HETATM   22  C   UNL     1       0.961   4.358  19.640  0.00  0.00     0.123 C 
HETATM   23  C   UNL     1       0.893   3.135  18.720  0.00  0.00     0.020 C 
HETATM   24  C   UNL     1       0.429   3.501  17.310  0.00  0.00     0.003 C 
HETATM   25  C   UNL     1       1.236   4.669  16.741  0.00  0.00     0.020 C 
HETATM   26  C   UNL     1       1.232   5.848  17.709  0.00  0.00     0.123 C 
ENDBRANCH  18  21
ENDBRANCH  12  15
ENDBRANCH   1  11
BRANCH   3  27
HETATM   27  O   UNL     1       8.806   9.525  21.724  0.00  0.00    -0.360 OA
HETATM   28  H   UNL     1       9.717   9.527  22.098  0.00  0.00     0.217 HD
ENDBRANCH   3  27
BRANCH  10  29
HETATM   29  C   UNL     1       5.989  15.640  22.762  0.00  0.00     0.100 C 
BRANCH  29  30
HETATM   30  C   UNL     1       4.940  15.464  23.862  0.00  0.00    -0.052 A 
HETATM   31  C   UNL     1       5.241  15.546  25.229  0.00  0.00     0.007 A 
HETATM   32  C   UNL     1       4.253  15.375  26.201  0.00  0.00     0.001 A 
HETATM   33  C   UNL     1       2.954  15.028  25.833  0.00  0.00     0.007 A 
HETATM   34  C   UNL     1       2.645  14.812  24.484  0.00  0.00    -0.061 A 
HETATM   35  C   UNL     1       3.627  15.069  23.507  0.00  0.00     0.014 A 
HETATM   36  C   UNL     1       1.267  14.307  24.139  0.00  0.00     0.048 C 
ENDBRANCH  29  30
ENDBRANCH  10  29
TORSDOF 6
ENDMDL
MODEL 7
REMARK VINA RESULT:    -8.948      1.895      2.599
REMARK INTER + INTRA:         -13.054
REMARK INTER:                 -11.626
REMARK INTRA:                  -1.428
REMARK UNBOUND:                -1.228
REMARK  6 active torsions:
REMARK  status: ('A' for Active; 'I' for Inactive)
REMARK    1  A    between atoms: N_6  and  C_7 
REMARK    2  A    between atoms: C_12  and  N_13 
REMARK       I    between atoms: N_13  and  C_15 
REMARK    3  A    between atoms: C_15  and  C_17 
REMARK    4  A    between atoms: C_19  and  O_20 
REMARK    5  A    between atoms: C_27  and  C_28 
REMARK    6  A    between atoms: C_28  and  C_29 
ROOT
HETATM    1  C   UNL     1       8.973  13.688  25.682  0.00  0.00     0.066 C 
HETATM    2  C   UNL     1       9.839  12.913  24.880  0.00  0.00     0.035 C 
HETATM    3  C   UNL     1       9.551  14.531  26.652  0.00  0.00     0.083 C 
HETATM    4  C   UNL     1      10.930  14.542  26.904  0.00  0.00     0.069 C 
HETATM    5  C   UNL     1      11.708  13.611  26.211  0.00  0.00     0.065 A 
HETATM    6  C   UNL     1      11.196  12.767  25.234  0.00  0.00     0.020 A 
HETATM    7  N   UNL     1      13.039  13.311  26.273  0.00  0.00    -0.277 N 
HETATM    8  H   UNL     1      13.746  13.767  26.839  0.00  0.00     0.189 HD
HETATM    9  N   UNL     1      13.407  12.267  25.513  0.00  0.00    -0.178 NA
HETATM   10  C   UNL     1      12.279  11.893  24.884  0.00  0.00     0.071 A 
ENDROOT
BRANCH   1  11
HETATM   11  C   UNL     1       7.461  13.624  25.575  0.00  0.00     0.260 C 
HETATM   12  N   UNL     1       6.771  14.147  24.432  0.00  0.00    -0.318 N 
HETATM   13  C   UNL     1       7.498  14.803  23.342  0.00  0.00     0.159 C 
HETATM   14  O   UNL     1       6.924  12.991  26.487  0.00  0.00    -0.267 OA
BRANCH  12  15
HETATM   15  C   UNL     1       5.329  14.019  24.277  0.00  0.00     0.037 A 
HETATM   16  C   UNL     1       4.733  12.803  23.907  0.00  0.00     0.032 A 
HETATM   17  C   UNL     1       3.342  12.627  23.831  0.00  0.00     0.031 A 
HETATM   18  C   UNL     1       2.451  13.654  24.117  0.00  0.00     0.030 A 
HETATM   19  C   UNL     1       3.043  14.892  24.398  0.00  0.00     0.031 A 
HETATM   20  C   UNL     1       4.440  15.075  24.485  0.00  0.00     0.032 A 
BRANCH  18  21
HETATM   21  N   UNL     1       1.078  13.484  24.087  0.00  0.00    -0.381 N 
HETATM   22  C   UNL     1       0.224  13.643  25.271  0.00  0.00     0.123 C 
HETATM   23  C   UNL     1      -0.847  12.548  25.245  0.00  0.00     0.020 C 
HETATM   24  C   UNL     1      -1.614  12.525  23.923  0.00  0.00     0.003 C 
HETATM   25  C   UNL     1      -0.664  12.500  22.725  0.00  0.00     0.020 C 
HETATM   26  C   UNL     1       0.352  13.634  22.820  0.00  0.00     0.123 C 
ENDBRANCH  18  21
ENDBRANCH  12  15
ENDBRANCH   1  11
BRANCH   3  27
HETATM   27  O   UNL     1       8.825  15.403  27.428  0.00  0.00    -0.360 OA
HETATM   28  H   UNL     1       8.724  15.001  28.321  0.00  0.00     0.217 HD
ENDBRANCH   3  27
BRANCH  10  29
HETATM   29  C   UNL     1      12.319  10.682  23.976  0.00  0.00     0.100 C 
BRANCH  29  30
HETATM   30  C   UNL     1      12.378  11.076  22.499  0.00  0.00    -0.052 A 
HETATM   31  C   UNL     1      13.578  11.321  21.818  0.00  0.00     0.007 A 
HETATM   32  C   UNL     1      13.586  11.682  20.469  0.00  0.00     0.001 A 
HETATM   33  C   UNL     1      12.389  11.897  19.788  0.00  0.00     0.007 A 
HETATM   34  C   UNL     1      11.170  11.786  20.470  0.00  0.00    -0.061 A 
HETATM   35  C   UNL     1      11.171  11.340  21.806  0.00  0.00     0.014 A 
HETATM   36  C   UNL     1       9.906  12.158  19.737  0.00  0.00     0.048 C 
ENDBRANCH  29  30
ENDBRANCH  10  29
TORSDOF 6
ENDMDL
MODEL 8
REMARK VINA RESULT:    -8.840      3.140      9.848
REMARK INTER + INTRA:         -12.910
REMARK INTER:                 -11.451
REMARK INTRA:                  -1.460
REMARK UNBOUND:                -1.228
REMARK  6 active torsions:
REMARK  status: ('A' for Active; 'I' for Inactive)
REMARK    1  A    between atoms: N_6  and  C_7 
REMARK    2  A    between atoms: C_12  and  N_13 
REMARK       I    between atoms: N_13  and  C_15 
REMARK    3  A    between atoms: C_15  and  C_17 
REMARK    4  A    between atoms: C_19  and  O_20 
REMARK    5  A    between atoms: C_27  and  C_28 
REMARK    6  A    between atoms: C_28  and  C_29 
ROOT
HETATM    1  C   UNL     1       3.730  10.353  24.012  0.00  0.00     0.066 C 
HETATM    2  C   UNL     1       2.779  11.387  23.878  0.00  0.00     0.035 C 
HETATM    3  C   UNL     1       3.288   9.109  24.508  0.00  0.00     0.083 C 
HETATM    4  C   UNL     1       1.976   8.910  24.957  0.00  0.00     0.069 C 
HETATM    5  C   UNL     1       1.137  10.028  24.979  0.00  0.00     0.065 A 
HETATM    6  C   UNL     1       1.514  11.273  24.489  0.00  0.00     0.020 A 
HETATM    7  N   UNL     1      -0.146  10.195  25.417  0.00  0.00    -0.277 N 
HETATM    8  H   UNL     1      -0.765   9.485  25.789  0.00  0.00     0.189 HD
HETATM    9  N   UNL     1      -0.587  11.463  25.366  0.00  0.00    -0.178 NA
HETATM   10  C   UNL     1       0.432  12.154  24.826  0.00  0.00     0.071 A 
ENDROOT
BRANCH   1  11
HETATM   11  C   UNL     1       5.201  10.530  23.688  0.00  0.00     0.260 C 
HETATM   12  N   UNL     1       5.714  10.264  22.375  0.00  0.00    -0.318 N 
HETATM   13  C   UNL     1       4.842   9.769  21.307  0.00  0.00     0.159 C 
HETATM   14  O   UNL     1       5.859  11.022  24.608  0.00  0.00    -0.267 OA
BRANCH  12  15
HETATM   15  C   UNL     1       7.107  10.509  22.027  0.00  0.00     0.037 A 
HETATM   16  C   UNL     1       7.482  11.583  21.205  0.00  0.00     0.032 A 
HETATM   17  C   UNL     1       8.822  11.893  20.920  0.00  0.00     0.031 A 
HETATM   18  C   UNL     1       9.878  11.151  21.435  0.00  0.00     0.030 A 
HETATM   19  C   UNL     1       9.504  10.026  22.182  0.00  0.00     0.031 A 
HETATM   20  C   UNL     1       8.160   9.713  22.480  0.00  0.00     0.032 A 
BRANCH  18  21
HETATM   21  N   UNL     1      11.204  11.470  21.198  0.00  0.00    -0.381 N 
HETATM   22  C   UNL     1      12.315  10.564  21.511  0.00  0.00     0.123 C 
HETATM   23  C   UNL     1      13.468  11.393  22.084  0.00  0.00     0.020 C 
HETATM   24  C   UNL     1      13.852  12.555  21.168  0.00  0.00     0.003 C 
HETATM   25  C   UNL     1      12.627  13.379  20.766  0.00  0.00     0.020 C 
HETATM   26  C   UNL     1      11.541  12.479  20.186  0.00  0.00     0.123 C 
ENDBRANCH  18  21
ENDBRANCH  12  15
ENDBRANCH   1  11
BRANCH   3  27
HETATM   27  O   UNL     1       4.093   7.999  24.596  0.00  0.00    -0.360 OA
HETATM   28  H   UNL     1       4.239   7.806  25.550  0.00  0.00     0.217 HD
ENDBRANCH   3  27
BRANCH  10  29
HETATM   29  C   UNL     1       0.295  13.655  24.677  0.00  0.00     0.100 C 
BRANCH  29  30
HETATM   30  C   UNL     1       1.554  14.392  25.138  0.00  0.00    -0.052 A 
HETATM   31  C   UNL     1       1.774  14.778  26.468  0.00  0.00     0.007 A 
HETATM   32  C   UNL     1       2.936  15.453  26.845  0.00  0.00     0.001 A 
HETATM   33  C   UNL     1       3.871  15.840  25.886  0.00  0.00     0.007 A 
HETATM   34  C   UNL     1       3.626  15.584  24.530  0.00  0.00    -0.061 A 
HETATM   35  C   UNL     1       2.492  14.830  24.171  0.00  0.00     0.014 A 
HETATM   36  C   UNL     1       4.592  16.137  23.514  0.00  0.00     0.048 C 
ENDBRANCH  29  30
ENDBRANCH  10  29
TORSDOF 6
ENDMDL
MODEL 9
REMARK VINA RESULT:    -8.772      2.630      4.716
REMARK INTER + INTRA:         -12.821
REMARK INTER:                 -11.592
REMARK INTRA:                  -1.228
REMARK UNBOUND:                -1.228
REMARK  6 active torsions:
REMARK  status: ('A' for Active; 'I' for Inactive)
REMARK    1  A    between atoms: N_6  and  C_7 
REMARK    2  A    between atoms: C_12  and  N_13 
REMARK       I    between atoms: N_13  and  C_15 
REMARK    3  A    between atoms: C_15  and  C_17 
REMARK    4  A    between atoms: C_19  and  O_20 
REMARK    5  A    between atoms: C_27  and  C_28 
REMARK    6  A    between atoms: C_28  and  C_29 
ROOT
HETATM    1  C   UNL     1       8.829  11.650  20.997  0.00  0.00     0.066 C 
HETATM    2  C   UNL     1       9.872  11.175  21.820  0.00  0.00     0.035 C 
HETATM    3  C   UNL     1       9.165  12.122  19.712  0.00  0.00     0.083 C 
HETATM    4  C   UNL     1      10.494  12.223  19.279  0.00  0.00     0.069 C 
HETATM    5  C   UNL     1      11.490  11.920  20.213  0.00  0.00     0.065 A 
HETATM    6  C   UNL     1      11.217  11.436  21.487  0.00  0.00     0.020 A 
HETATM    7  N   UNL     1      12.851  11.984  20.144  0.00  0.00    -0.277 N 
HETATM    8  H   UNL     1      13.415  12.242  19.342  0.00  0.00     0.189 HD
HETATM    9  N   UNL     1      13.478  11.703  21.299  0.00  0.00    -0.178 NA
HETATM   10  C   UNL     1      12.487  11.392  22.153  0.00  0.00     0.071 A 
ENDROOT
BRANCH   1  11
HETATM   11  C   UNL     1       7.381  11.713  21.445  0.00  0.00     0.260 C 
HETATM   12  N   UNL     1       6.966  12.575  22.512  0.00  0.00    -0.318 N 
HETATM   13  C   UNL     1       7.934  13.399  23.242  0.00  0.00     0.159 C 
HETATM   14  O   UNL     1       6.613  11.055  20.739  0.00  0.00    -0.267 OA
BRANCH  12  15
HETATM   15  C   UNL     1       5.568  12.708  22.898  0.00  0.00     0.037 A 
HETATM   16  C   UNL     1       4.962  13.966  23.048  0.00  0.00     0.032 A 
HETATM   17  C   UNL     1       3.597  14.125  23.337  0.00  0.00     0.031 A 
HETATM   18  C   UNL     1       2.744  13.039  23.496  0.00  0.00     0.030 A 
HETATM   19  C   UNL     1       3.363  11.784  23.435  0.00  0.00     0.031 A 
HETATM   20  C   UNL     1       4.733  11.616  23.137  0.00  0.00     0.032 A 
BRANCH  18  21
HETATM   21  N   UNL     1       1.389  13.181  23.738  0.00  0.00    -0.381 N 
HETATM   22  C   UNL     1       0.850  13.712  24.996  0.00  0.00     0.123 C 
HETATM   23  C   UNL     1      -0.391  12.897  25.373  0.00  0.00     0.020 C 
HETATM   24  C   UNL     1      -1.410  12.839  24.235  0.00  0.00     0.003 C 
HETATM   25  C   UNL     1      -0.755  12.412  22.920  0.00  0.00     0.020 C 
HETATM   26  C   UNL     1       0.454  13.289  22.611  0.00  0.00     0.123 C 
ENDBRANCH  18  21
ENDBRANCH  12  15
ENDBRANCH   1  11
BRANCH   3  27
HETATM   27  O   UNL     1       8.234  12.521  18.784  0.00  0.00    -0.360 OA
HETATM   28  H   UNL     1       7.342  12.287  19.129  0.00  0.00     0.217 HD
ENDBRANCH   3  27
BRANCH  10  29
HETATM   29  C   UNL     1      12.839  11.076  23.592  0.00  0.00     0.100 C 
BRANCH  29  30
HETATM   30  C   UNL     1      12.317  12.144  24.555  0.00  0.00    -0.052 A 
HETATM   31  C   UNL     1      12.104  11.907  25.921  0.00  0.00     0.007 A 
HETATM   32  C   UNL     1      11.622  12.910  26.764  0.00  0.00     0.001 A 
HETATM   33  C   UNL     1      11.254  14.151  26.248  0.00  0.00     0.007 A 
HETATM   34  C   UNL     1      11.333  14.383  24.869  0.00  0.00    -0.061 A 
HETATM   35  C   UNL     1      11.898  13.395  24.039  0.00  0.00     0.014 A 
HETATM   36  C   UNL     1      10.799  15.687  24.333  0.00  0.00     0.048 C 
ENDBRANCH  29  30
ENDBRANCH  10  29
TORSDOF 6
ENDMDL
