REMARK  6 active torsions:
REMARK  status: ('A' for Active; 'I' for Inactive)
REMARK    1  A    between atoms: N_6  and  C_7 
REMARK    2  A    between atoms: C_12  and  N_13 
REMARK       I    between atoms: N_13  and  C_15 
REMARK    3  A    between atoms: C_15  and  C_17 
REMARK    4  A    between atoms: C_19  and  O_20 
REMARK    5  A    between atoms: C_27  and  C_28 
REMARK    6  A    between atoms: C_28  and  C_29 
ROOT
HETATM    1  C   UNL     1       8.541  -1.265   3.859  0.00  0.00     0.066 C 
HETATM    2  C   UNL     1       9.075  -0.044   4.324  0.00  0.00     0.035 C 
HETATM    3  C   UNL     1       9.357  -2.412   3.930  0.00  0.00     0.083 C 
HETATM    4  C   UNL     1      10.694  -2.351   4.347  0.00  0.00     0.069 C 
HETATM    5  C   UNL     1      11.219  -1.082   4.608  0.00  0.00     0.065 A 
HETATM    6  C   UNL     1      10.458   0.080   4.569  0.00  0.00     0.020 A 
HETATM    7  N   UNL     1      12.474  -0.670   4.953  0.00  0.00    -0.277 N 
HETATM    8  H   UNL     1      13.285  -1.252   5.130  0.00  0.00     0.189 HD
HETATM    9  N   UNL     1      12.620   0.664   5.020  0.00  0.00    -0.178 NA
HETATM   10  C   UNL     1      11.395   1.151   4.756  0.00  0.00     0.071 A 
ENDROOT
BRANCH   1  11
HETATM   11  C   UNL     1       7.155  -1.389   3.255  0.00  0.00     0.260 C 
HETATM   12  N   UNL     1       6.574  -0.322   2.494  0.00  0.00    -0.318 N 
HETATM   13  C   UNL     1       7.281   0.948   2.306  0.00  0.00     0.159 C 
HETATM   14  O   UNL     1       6.653  -2.508   3.386  0.00  0.00    -0.267 OA
BRANCH  12  15
HETATM   15  C   UNL     1       5.280  -0.457   1.839  0.00  0.00     0.037 A 
HETATM   16  C   UNL     1       4.883   0.409   0.808  0.00  0.00     0.032 A 
HETATM   17  C   UNL     1       3.679   0.253   0.102  0.00  0.00     0.031 A 
HETATM   18  C   UNL     1       2.789  -0.778   0.378  0.00  0.00     0.030 A 
HETATM   19  C   UNL     1       3.140  -1.590   1.465  0.00  0.00     0.031 A 
HETATM   20  C   UNL     1       4.352  -1.444   2.174  0.00  0.00     0.032 A 
BRANCH  18  21
HETATM   21  N   UNL     1       1.620  -0.970  -0.337  0.00  0.00    -0.381 N 
HETATM   22  C   UNL     1       1.091   0.014  -1.289  0.00  0.00     0.123 C 
HETATM   23  C   UNL     1      -0.431   0.069  -1.132  0.00  0.00     0.020 C 
HETATM   24  C   UNL     1      -1.072  -1.314  -1.247  0.00  0.00     0.003 C 
HETATM   25  C   UNL     1      -0.384  -2.327  -0.330  0.00  0.00     0.020 C 
HETATM   26  C   UNL     1       1.123  -2.332  -0.569  0.00  0.00     0.123 C 
ENDBRANCH  18  21
ENDBRANCH  12  15
ENDBRANCH   1  11
BRANCH   3  27
HETATM   27  O   UNL     1       8.923  -3.673   3.599  0.00  0.00    -0.360 OA
HETATM   28  H   UNL     1       7.951  -3.629   3.448  0.00  0.00     0.217 HD
ENDBRANCH   3  27
BRANCH  10  29
HETATM   29  C   UNL     1      11.208   2.652   4.688  0.00  0.00     0.100 C 
BRANCH  29  30
HETATM   30  C   UNL     1      10.975   3.135   3.255  0.00  0.00    -0.052 A 
HETATM   31  C   UNL     1      11.398   2.420   2.126  0.00  0.00     0.007 A 
HETATM   32  C   UNL     1      11.168   2.900   0.835  0.00  0.00     0.001 A 
HETATM   33  C   UNL     1      10.588   4.152   0.640  0.00  0.00     0.007 A 
HETATM   34  C   UNL     1      10.268   4.952   1.745  0.00  0.00    -0.061 A 
HETATM   35  C   UNL     1      10.427   4.424   3.041  0.00  0.00     0.014 A 
HETATM   36  C   UNL     1       9.770   6.352   1.492  0.00  0.00     0.048 C 
ENDBRANCH  29  30
ENDBRANCH  10  29
TORSDOF 6
