MODEL 1
REMARK VINA RESULT:    -7.562      0.000      0.000
REMARK INTER + INTRA:         -12.819
REMARK INTER:                 -10.974
REMARK INTRA:                  -1.845
REMARK UNBOUND:                -2.604
REMARK  7 active torsions:
REMARK  status: ('A' for Active; 'I' for Inactive)
REMARK    1  A    between atoms: C_6  and  C_7 
REMARK    2  A    between atoms: C_7  and  C_8 
REMARK    3  A    between atoms: C_8  and  C_9 
REMARK    4  A    between atoms: C_10  and  O_11 
REMARK    5  A    between atoms: C_13  and  O_14 
REMARK    6  A    between atoms: C_15  and  C_17 
REMARK    7  A    between atoms: N_21  and  C_22 
ROOT
HETATM    1  C   UNL     1       9.352  13.443  25.913  0.00  0.00    -0.024 C 
HETATM    2  C   UNL     1      10.729  13.376  26.115  0.00  0.00     0.074 C 
HETATM    3  C   UNL     1      11.460  12.253  25.736  0.00  0.00     0.074 C 
HETATM    4  C   UNL     1      10.815  11.201  25.081  0.00  0.00     0.081 C 
HETATM    5  C   UNL     1       9.418  11.201  24.877  0.00  0.00     0.026 C 
HETATM    6  C   UNL     1       8.709  12.285  25.424  0.00  0.00     0.026 C 
ENDROOT
BRANCH   5   7
HETATM    7  C   UNL     1       8.743  10.125  24.093  0.00  0.00     0.073 A 
HETATM    8  C   UNL     1       8.204   8.952  24.613  0.00  0.00     0.053 A 
HETATM    9  C   UNL     1       7.726   8.216  23.537  0.00  0.00     0.141 A 
HETATM   10  N   UNL     1       7.889   8.852  22.390  0.00  0.00    -0.179 NA
HETATM   11  N   UNL     1       8.472  10.044  22.701  0.00  0.00    -0.232 N 
BRANCH  11  12
HETATM   12  C   UNL     1       8.746  10.949  21.622  0.00  0.00     0.080 A 
HETATM   13  C   UNL     1       7.869  12.001  21.282  0.00  0.00     0.062 A 
HETATM   14 CL   UNL     1       6.348  12.343  22.043  0.00  0.00    -0.082 Cl
HETATM   15  C   UNL     1       8.247  12.940  20.307  0.00  0.00     0.026 A 
HETATM   16  C   UNL     1       9.483  12.855  19.671  0.00  0.00     0.002 A 
HETATM   17  C   UNL     1      10.320  11.782  19.950  0.00  0.00     0.002 A 
HETATM   18  C   UNL     1       9.932  10.814  20.880  0.00  0.00     0.033 A 
ENDBRANCH  11  12
ENDBRANCH   5   7
BRANCH   4  19
HETATM   19  O   UNL     1      11.591  10.165  24.625  0.00  0.00    -0.360 OA
HETATM   20  H   UNL     1      11.351   9.350  25.095  0.00  0.00     0.217 HD
ENDBRANCH   4  19
BRANCH   1  21
HETATM   21  C   UNL     1       8.518  14.694  26.149  0.00  0.00     0.047 C 
BRANCH  21  22
HETATM   22  C   UNL     1       7.050  14.418  26.538  0.00  0.00     0.061 C 
BRANCH  22  23
HETATM   23  C   UNL     1       6.007  14.936  25.570  0.00  0.00     0.005 A 
HETATM   24  N   UNL     1       4.783  15.321  26.078  0.00  0.00    -0.370 N 
HETATM   25  C   UNL     1       3.821  15.932  25.317  0.00  0.00     0.084 A 
HETATM   26  H   UNL     1       4.647  15.298  27.084  0.00  0.00     0.165 HD
HETATM   27  C   UNL     1       3.994  16.170  24.010  0.00  0.00    -0.006 A 
HETATM   28  C   UNL     1       5.284  15.775  23.326  0.00  0.00     0.057 A 
HETATM   29  C   UNL     1       6.280  15.126  24.260  0.00  0.00     0.002 A 
ENDBRANCH  22  23
ENDBRANCH  21  22
ENDBRANCH   1  21
BRANCH   2  30
HETATM   30  O   UNL     1      11.422  14.391  26.698  0.00  0.00    -0.360 OA
HETATM   31  H   UNL     1      11.399  14.218  27.655  0.00  0.00     0.217 HD
ENDBRANCH   2  30
TORSDOF 7
ENDMDL
MODEL 2
REMARK VINA RESULT:    -7.539      2.615      3.439
REMARK INTER + INTRA:         -12.787
REMARK INTER:                 -10.510
REMARK INTRA:                  -2.277
REMARK UNBOUND:                -2.604
REMARK  7 active torsions:
REMARK  status: ('A' for Active; 'I' for Inactive)
REMARK    1  A    between atoms: C_6  and  C_7 
REMARK    2  A    between atoms: C_7  and  C_8 
REMARK    3  A    between atoms: C_8  and  C_9 
REMARK    4  A    between atoms: C_10  and  O_11 
REMARK    5  A    between atoms: C_13  and  O_14 
REMARK    6  A    between atoms: C_15  and  C_17 
REMARK    7  A    between atoms: N_21  and  C_22 
ROOT
HETATM    1  C   UNL     1       5.759  11.307  24.508  0.00  0.00    -0.024 C 
HETATM    2  C   UNL     1       5.735  12.005  25.714  0.00  0.00     0.074 C 
HETATM    3  C   UNL     1       6.913  12.385  26.350  0.00  0.00     0.074 C 
HETATM    4  C   UNL     1       8.141  12.123  25.738  0.00  0.00     0.081 C 
HETATM    5  C   UNL     1       8.227  11.394  24.532  0.00  0.00     0.026 C 
HETATM    6  C   UNL     1       7.018  10.894  24.019  0.00  0.00     0.026 C 
ENDROOT
BRANCH   5   7
HETATM    7  C   UNL     1       9.529  11.198  23.829  0.00  0.00     0.073 A 
HETATM    8  C   UNL     1      10.588  10.412  24.276  0.00  0.00     0.053 A 
HETATM    9  C   UNL     1      11.614  10.554  23.350  0.00  0.00     0.141 A 
HETATM   10  N   UNL     1      11.267  11.335  22.342  0.00  0.00    -0.179 NA
HETATM   11  N   UNL     1       9.980  11.712  22.585  0.00  0.00    -0.232 N 
BRANCH  11  12
HETATM   12  C   UNL     1       9.346  12.563  21.618  0.00  0.00     0.080 A 
HETATM   13  C   UNL     1       8.981  13.894  21.913  0.00  0.00     0.062 A 
HETATM   14 CL   UNL     1       9.180  14.687  23.443  0.00  0.00    -0.082 Cl
HETATM   15  C   UNL     1       8.487  14.726  20.895  0.00  0.00     0.026 A 
HETATM   16  C   UNL     1       8.358  14.262  19.588  0.00  0.00     0.002 A 
HETATM   17  C   UNL     1       8.648  12.933  19.307  0.00  0.00     0.002 A 
HETATM   18  C   UNL     1       9.091  12.082  20.323  0.00  0.00     0.033 A 
ENDBRANCH  11  12
ENDBRANCH   5   7
BRANCH   4  19
HETATM   19  O   UNL     1       9.271  12.615  26.344  0.00  0.00    -0.360 OA
HETATM   20  H   UNL     1      10.018  12.019  26.166  0.00  0.00     0.217 HD
ENDBRANCH   4  19
BRANCH   1  21
HETATM   21  C   UNL     1       4.520  11.003  23.677  0.00  0.00     0.047 C 
BRANCH  21  22
HETATM   22  C   UNL     1       4.184  12.074  22.618  0.00  0.00     0.061 C 
BRANCH  22  23
HETATM   23  C   UNL     1       4.234  13.510  23.098  0.00  0.00     0.005 A 
HETATM   24  N   UNL     1       3.212  13.961  23.908  0.00  0.00    -0.370 N 
HETATM   25  C   UNL     1       3.227  15.192  24.510  0.00  0.00     0.084 A 
HETATM   26  H   UNL     1       2.496  13.301  24.198  0.00  0.00     0.165 HD
HETATM   27  C   UNL     1       4.232  16.059  24.327  0.00  0.00    -0.006 A 
HETATM   28  C   UNL     1       5.404  15.695  23.443  0.00  0.00     0.057 A 
HETATM   29  C   UNL     1       5.292  14.311  22.844  0.00  0.00     0.002 A 
ENDBRANCH  22  23
ENDBRANCH  21  22
ENDBRANCH   1  21
BRANCH   2  30
HETATM   30  O   UNL     1       4.569  12.337  26.331  0.00  0.00    -0.360 OA
HETATM   31  H   UNL     1       4.244  13.136  25.881  0.00  0.00     0.217 HD
ENDBRANCH   2  30
TORSDOF 7
ENDMDL
MODEL 3
REMARK VINA RESULT:    -7.364      3.101      5.292
REMARK INTER + INTRA:         -12.551
REMARK INTER:                 -10.818
REMARK INTRA:                  -1.733
REMARK UNBOUND:                -2.604
REMARK  7 active torsions:
REMARK  status: ('A' for Active; 'I' for Inactive)
REMARK    1  A    between atoms: C_6  and  C_7 
REMARK    2  A    between atoms: C_7  and  C_8 
REMARK    3  A    between atoms: C_8  and  C_9 
REMARK    4  A    between atoms: C_10  and  O_11 
REMARK    5  A    between atoms: C_13  and  O_14 
REMARK    6  A    between atoms: C_15  and  C_17 
REMARK    7  A    between atoms: N_21  and  C_22 
ROOT
HETATM    1  C   UNL     1       5.666  14.734  22.852  0.00  0.00    -0.024 C 
HETATM    2  C   UNL     1       5.242  13.410  22.746  0.00  0.00     0.074 C 
HETATM    3  C   UNL     1       6.094  12.417  22.271  0.00  0.00     0.074 C 
HETATM    4  C   UNL     1       7.417  12.736  21.958  0.00  0.00     0.081 C 
HETATM    5  C   UNL     1       7.892  14.064  22.017  0.00  0.00     0.026 C 
HETATM    6  C   UNL     1       6.946  15.050  22.346  0.00  0.00     0.026 C 
ENDROOT
BRANCH   5   7
HETATM    7  C   UNL     1       9.328  14.391  21.776  0.00  0.00     0.073 A 
HETATM    8  C   UNL     1       9.830  15.131  20.708  0.00  0.00     0.053 A 
HETATM    9  C   UNL     1      11.212  15.148  20.843  0.00  0.00     0.141 A 
HETATM   10  N   UNL     1      11.612  14.511  21.930  0.00  0.00    -0.179 NA
HETATM   11  N   UNL     1      10.478  14.071  22.546  0.00  0.00    -0.232 N 
BRANCH  11  12
HETATM   12  C   UNL     1      10.631  13.352  23.779  0.00  0.00     0.080 A 
HETATM   13  C   UNL     1      10.323  13.930  25.029  0.00  0.00     0.062 A 
HETATM   14 CL   UNL     1       9.777  15.556  25.290  0.00  0.00    -0.082 Cl
HETATM   15  C   UNL     1      10.361  13.143  26.192  0.00  0.00     0.026 A 
HETATM   16  C   UNL     1      10.690  11.792  26.133  0.00  0.00     0.002 A 
HETATM   17  C   UNL     1      11.063  11.235  24.917  0.00  0.00     0.002 A 
HETATM   18  C   UNL     1      11.079  12.021  23.762  0.00  0.00     0.033 A 
ENDBRANCH  11  12
ENDBRANCH   5   7
BRANCH   4  19
HETATM   19  O   UNL     1       8.252  11.706  21.602  0.00  0.00    -0.360 OA
HETATM   20  H   UNL     1       9.175  12.000  21.671  0.00  0.00     0.217 HD
ENDBRANCH   4  19
BRANCH   1  21
HETATM   21  C   UNL     1       4.851  15.837  23.511  0.00  0.00     0.047 C 
BRANCH  21  22
HETATM   22  C   UNL     1       4.864  15.805  25.054  0.00  0.00     0.061 C 
BRANCH  22  23
HETATM   23  C   UNL     1       3.536  15.502  25.716  0.00  0.00     0.005 A 
HETATM   24  N   UNL     1       2.721  14.554  25.132  0.00  0.00    -0.370 N 
HETATM   25  C   UNL     1       1.568  14.102  25.718  0.00  0.00     0.084 A 
HETATM   26  H   UNL     1       3.064  14.056  24.316  0.00  0.00     0.165 HD
HETATM   27  C   UNL     1       1.135  14.577  26.895  0.00  0.00    -0.006 A 
HETATM   28  C   UNL     1       1.928  15.636  27.628  0.00  0.00     0.057 A 
HETATM   29  C   UNL     1       3.188  16.049  26.901  0.00  0.00     0.002 A 
ENDBRANCH  22  23
ENDBRANCH  21  22
ENDBRANCH   1  21
BRANCH   2  30
HETATM   30  O   UNL     1       3.983  13.028  23.088  0.00  0.00    -0.360 OA
HETATM   31  H   UNL     1       3.826  13.381  23.981  0.00  0.00     0.217 HD
ENDBRANCH   2  30
TORSDOF 7
ENDMDL
MODEL 4
REMARK VINA RESULT:    -7.305      3.151      4.476
REMARK INTER + INTRA:         -12.471
REMARK INTER:                 -10.581
REMARK INTRA:                  -1.890
REMARK UNBOUND:                -2.604
REMARK  7 active torsions:
REMARK  status: ('A' for Active; 'I' for Inactive)
REMARK    1  A    between atoms: C_6  and  C_7 
REMARK    2  A    between atoms: C_7  and  C_8 
REMARK    3  A    between atoms: C_8  and  C_9 
REMARK    4  A    between atoms: C_10  and  O_11 
REMARK    5  A    between atoms: C_13  and  O_14 
REMARK    6  A    between atoms: C_15  and  C_17 
REMARK    7  A    between atoms: N_21  and  C_22 
ROOT
HETATM    1  C   UNL     1       5.119  11.356  22.579  0.00  0.00    -0.024 C 
HETATM    2  C   UNL     1       5.200  10.894  21.267  0.00  0.00     0.074 C 
HETATM    3  C   UNL     1       6.430  10.701  20.645  0.00  0.00     0.074 C 
HETATM    4  C   UNL     1       7.606  10.911  21.367  0.00  0.00     0.081 C 
HETATM    5  C   UNL     1       7.586  11.408  22.688  0.00  0.00     0.026 C 
HETATM    6  C   UNL     1       6.323  11.739  23.210  0.00  0.00     0.026 C 
ENDROOT
BRANCH   5   7
HETATM    7  C   UNL     1       8.836  11.540  23.493  0.00  0.00     0.073 A 
HETATM    8  C   UNL     1       9.249  10.682  24.509  0.00  0.00     0.053 A 
HETATM    9  C   UNL     1      10.430  11.202  25.021  0.00  0.00     0.141 A 
HETATM   10  N   UNL     1      10.809  12.295  24.382  0.00  0.00    -0.179 NA
HETATM   11  N   UNL     1       9.875  12.505  23.411  0.00  0.00    -0.232 N 
BRANCH  11  12
HETATM   12  C   UNL     1      10.060  13.636  22.548  0.00  0.00     0.080 A 
HETATM   13  C   UNL     1       9.275  14.804  22.659  0.00  0.00     0.062 A 
HETATM   14 CL   UNL     1       7.972  15.049  23.777  0.00  0.00    -0.082 Cl
HETATM   15  C   UNL     1       9.584  15.932  21.881  0.00  0.00     0.026 A 
HETATM   16  C   UNL     1      10.664  15.923  21.002  0.00  0.00     0.002 A 
HETATM   17  C   UNL     1      11.397  14.755  20.836  0.00  0.00     0.002 A 
HETATM   18  C   UNL     1      11.065  13.610  21.567  0.00  0.00     0.033 A 
ENDBRANCH  11  12
ENDBRANCH   5   7
BRANCH   4  19
HETATM   19  O   UNL     1       8.794  10.601  20.752  0.00  0.00    -0.360 OA
HETATM   20  H   UNL     1       8.914  11.173  19.975  0.00  0.00     0.217 HD
ENDBRANCH   4  19
BRANCH   1  21
HETATM   21  C   UNL     1       3.823  11.434  23.374  0.00  0.00     0.047 C 
BRANCH  21  22
HETATM   22  C   UNL     1       2.946  12.661  23.046  0.00  0.00     0.061 C 
BRANCH  22  23
HETATM   23  C   UNL     1       3.238  13.911  23.850  0.00  0.00     0.005 A 
HETATM   24  N   UNL     1       2.672  14.024  25.104  0.00  0.00    -0.370 N 
HETATM   25  C   UNL     1       2.980  15.040  25.970  0.00  0.00     0.084 A 
HETATM   26  H   UNL     1       2.131  13.243  25.464  0.00  0.00     0.165 HD
HETATM   27  C   UNL     1       3.835  16.019  25.642  0.00  0.00    -0.006 A 
HETATM   28  C   UNL     1       4.506  16.023  24.287  0.00  0.00     0.057 A 
HETATM   29  C   UNL     1       4.109  14.849  23.420  0.00  0.00     0.002 A 
ENDBRANCH  22  23
ENDBRANCH  21  22
ENDBRANCH   1  21
BRANCH   2  30
HETATM   30  O   UNL     1       4.089  10.620  20.530  0.00  0.00    -0.360 OA
HETATM   31  H   UNL     1       3.355  11.088  20.965  0.00  0.00     0.217 HD
ENDBRANCH   2  30
TORSDOF 7
ENDMDL
MODEL 5
REMARK VINA RESULT:    -7.281      2.729      6.829
REMARK INTER + INTRA:         -12.439
REMARK INTER:                 -10.968
REMARK INTRA:                  -1.471
REMARK UNBOUND:                -2.604
REMARK  7 active torsions:
REMARK  status: ('A' for Active; 'I' for Inactive)
REMARK    1  A    between atoms: C_6  and  C_7 
REMARK    2  A    between atoms: C_7  and  C_8 
REMARK    3  A    between atoms: C_8  and  C_9 
REMARK    4  A    between atoms: C_10  and  O_11 
REMARK    5  A    between atoms: C_13  and  O_14 
REMARK    6  A    between atoms: C_15  and  C_17 
REMARK    7  A    between atoms: N_21  and  C_22 
ROOT
HETATM    1  C   UNL     1       7.752  12.450  20.517  0.00  0.00    -0.024 C 
HETATM    2  C   UNL     1       8.288  13.287  19.541  0.00  0.00     0.074 C 
HETATM    3  C   UNL     1       8.786  14.546  19.864  0.00  0.00     0.074 C 
HETATM    4  C   UNL     1       8.811  14.954  21.199  0.00  0.00     0.081 C 
HETATM    5  C   UNL     1       8.255  14.161  22.227  0.00  0.00     0.026 C 
HETATM    6  C   UNL     1       7.620  12.974  21.822  0.00  0.00     0.026 C 
ENDROOT
BRANCH   5   7
HETATM    7  C   UNL     1       8.367  14.552  23.663  0.00  0.00     0.073 A 
HETATM    8  C   UNL     1       9.553  14.750  24.365  0.00  0.00     0.053 A 
HETATM    9  C   UNL     1       9.201  15.047  25.675  0.00  0.00     0.141 A 
HETATM   10  N   UNL     1       7.890  15.088  25.839  0.00  0.00    -0.179 NA
HETATM   11  N   UNL     1       7.350  14.830  24.614  0.00  0.00    -0.232 N 
BRANCH  11  12
HETATM   12  C   UNL     1       5.919  14.833  24.507  0.00  0.00     0.080 A 
HETATM   13  C   UNL     1       5.117  13.854  25.132  0.00  0.00     0.062 A 
HETATM   14 CL   UNL     1       5.695  12.505  26.057  0.00  0.00    -0.082 Cl
HETATM   15  C   UNL     1       3.717  13.977  25.109  0.00  0.00     0.026 A 
HETATM   16  C   UNL     1       3.103  15.060  24.486  0.00  0.00     0.002 A 
HETATM   17  C   UNL     1       3.884  15.988  23.809  0.00  0.00     0.002 A 
HETATM   18  C   UNL     1       5.274  15.847  23.781  0.00  0.00     0.033 A 
ENDBRANCH  11  12
ENDBRANCH   5   7
BRANCH   4  19
HETATM   19  O   UNL     1       9.413  16.154  21.486  0.00  0.00    -0.360 OA
HETATM   20  H   UNL     1      10.378  16.040  21.486  0.00  0.00     0.217 HD
ENDBRANCH   4  19
BRANCH   1  21
HETATM   21  C   UNL     1       7.342  11.006  20.268  0.00  0.00     0.047 C 
BRANCH  21  22
HETATM   22  C   UNL     1       6.175  10.512  21.149  0.00  0.00     0.061 C 
BRANCH  22  23
HETATM   23  C   UNL     1       6.538   9.486  22.203  0.00  0.00     0.005 A 
HETATM   24  N   UNL     1       6.629   8.164  21.819  0.00  0.00    -0.370 N 
HETATM   25  C   UNL     1       7.084   7.177  22.653  0.00  0.00     0.084 A 
HETATM   26  H   UNL     1       6.507   7.935  20.837  0.00  0.00     0.165 HD
HETATM   27  C   UNL     1       7.446   7.427  23.919  0.00  0.00    -0.006 A 
HETATM   28  C   UNL     1       7.372   8.833  24.470  0.00  0.00     0.057 A 
HETATM   29  C   UNL     1       6.873   9.844  23.462  0.00  0.00     0.002 A 
ENDBRANCH  22  23
ENDBRANCH  21  22
ENDBRANCH   1  21
BRANCH   2  30
HETATM   30  O   UNL     1       8.342  12.923  18.231  0.00  0.00    -0.360 OA
HETATM   31  H   UNL     1       7.474  12.533  18.024  0.00  0.00     0.217 HD
ENDBRANCH   2  30
TORSDOF 7
ENDMDL
MODEL 6
REMARK VINA RESULT:    -7.237      3.868      6.270
REMARK INTER + INTRA:         -12.380
REMARK INTER:                 -10.814
REMARK INTRA:                  -1.566
REMARK UNBOUND:                -2.604
REMARK  7 active torsions:
REMARK  status: ('A' for Active; 'I' for Inactive)
REMARK    1  A    between atoms: C_6  and  C_7 
REMARK    2  A    between atoms: C_7  and  C_8 
REMARK    3  A    between atoms: C_8  and  C_9 
REMARK    4  A    between atoms: C_10  and  O_11 
REMARK    5  A    between atoms: C_13  and  O_14 
REMARK    6  A    between atoms: C_15  and  C_17 
REMARK    7  A    between atoms: N_21  and  C_22 
ROOT
HETATM    1  C   UNL     1       4.702  10.559  22.677  0.00  0.00    -0.024 C 
HETATM    2  C   UNL     1       4.899  10.059  21.391  0.00  0.00     0.074 C 
HETATM    3  C   UNL     1       5.893  10.572  20.563  0.00  0.00     0.074 C 
HETATM    4  C   UNL     1       6.753  11.559  21.049  0.00  0.00     0.081 C 
HETATM    5  C   UNL     1       6.582  12.123  22.332  0.00  0.00     0.026 C 
HETATM    6  C   UNL     1       5.464  11.683  23.062  0.00  0.00     0.026 C 
ENDROOT
BRANCH   5   7
HETATM    7  C   UNL     1       7.557  13.107  22.888  0.00  0.00     0.073 A 
HETATM    8  C   UNL     1       8.936  13.089  22.696  0.00  0.00     0.053 A 
HETATM    9  C   UNL     1       9.459  14.146  23.429  0.00  0.00     0.141 A 
HETATM   10  N   UNL     1       8.514  14.846  24.033  0.00  0.00    -0.179 NA
HETATM   11  N   UNL     1       7.333  14.259  23.688  0.00  0.00    -0.232 N 
BRANCH  11  12
HETATM   12  C   UNL     1       6.128  14.843  24.204  0.00  0.00     0.080 A 
HETATM   13  C   UNL     1       5.794  14.791  25.574  0.00  0.00     0.062 A 
HETATM   14 CL   UNL     1       6.716  14.004  26.815  0.00  0.00    -0.082 Cl
HETATM   15  C   UNL     1       4.674  15.493  26.048  0.00  0.00     0.026 A 
HETATM   16  C   UNL     1       3.885  16.252  25.187  0.00  0.00     0.002 A 
HETATM   17  C   UNL     1       4.167  16.249  23.827  0.00  0.00     0.002 A 
HETATM   18  C   UNL     1       5.249  15.513  23.337  0.00  0.00     0.033 A 
ENDBRANCH  11  12
ENDBRANCH   5   7
BRANCH   4  19
HETATM   19  O   UNL     1       7.788  11.955  20.239  0.00  0.00    -0.360 OA
HETATM   20  H   UNL     1       8.030  11.227  19.644  0.00  0.00     0.217 HD
ENDBRANCH   4  19
BRANCH   1  21
HETATM   21  C   UNL     1       3.751   9.942  23.692  0.00  0.00     0.047 C 
BRANCH  21  22
HETATM   22  C   UNL     1       3.189  10.939  24.728  0.00  0.00     0.061 C 
BRANCH  22  23
HETATM   23  C   UNL     1       2.037  11.799  24.253  0.00  0.00     0.005 A 
HETATM   24  N   UNL     1       0.805  11.200  24.084  0.00  0.00    -0.370 N 
HETATM   25  C   UNL     1      -0.332  11.907  23.795  0.00  0.00     0.084 A 
HETATM   26  H   UNL     1       0.703  10.222  24.338  0.00  0.00     0.165 HD
HETATM   27  C   UNL     1      -0.319  13.237  23.626  0.00  0.00    -0.006 A 
HETATM   28  C   UNL     1       0.973  14.010  23.763  0.00  0.00     0.057 A 
HETATM   29  C   UNL     1       2.161  13.136  24.099  0.00  0.00     0.002 A 
ENDBRANCH  22  23
ENDBRANCH  21  22
ENDBRANCH   1  21
BRANCH   2  30
HETATM   30  O   UNL     1       4.129   9.061  20.881  0.00  0.00    -0.360 OA
HETATM   31  H   UNL     1       3.234   9.432  20.786  0.00  0.00     0.217 HD
ENDBRANCH   2  30
TORSDOF 7
ENDMDL
MODEL 7
REMARK VINA RESULT:    -7.212      3.958      6.082
REMARK INTER + INTRA:         -12.345
REMARK INTER:                 -10.897
REMARK INTRA:                  -1.449
REMARK UNBOUND:                -2.604
REMARK  7 active torsions:
REMARK  status: ('A' for Active; 'I' for Inactive)
REMARK    1  A    between atoms: C_6  and  C_7 
REMARK    2  A    between atoms: C_7  and  C_8 
REMARK    3  A    between atoms: C_8  and  C_9 
REMARK    4  A    between atoms: C_10  and  O_11 
REMARK    5  A    between atoms: C_13  and  O_14 
REMARK    6  A    between atoms: C_15  and  C_17 
REMARK    7  A    between atoms: N_21  and  C_22 
ROOT
HETATM    1  C   UNL     1       3.349  14.634  24.308  0.00  0.00    -0.024 C 
HETATM    2  C   UNL     1       3.617  15.062  25.607  0.00  0.00     0.074 C 
HETATM    3  C   UNL     1       4.924  15.193  26.067  0.00  0.00     0.074 C 
HETATM    4  C   UNL     1       5.988  14.958  25.195  0.00  0.00     0.081 C 
HETATM    5  C   UNL     1       5.778  14.495  23.878  0.00  0.00     0.026 C 
HETATM    6  C   UNL     1       4.446  14.223  23.519  0.00  0.00     0.026 C 
ENDROOT
BRANCH   5   7
HETATM    7  C   UNL     1       6.907  14.336  22.915  0.00  0.00     0.073 A 
HETATM    8  C   UNL     1       7.312  15.273  21.968  0.00  0.00     0.053 A 
HETATM    9  C   UNL     1       8.356  14.700  21.255  0.00  0.00     0.141 A 
HETATM   10  N   UNL     1       8.662  13.495  21.705  0.00  0.00    -0.179 NA
HETATM   11  N   UNL     1       7.820  13.260  22.750  0.00  0.00    -0.232 N 
BRANCH  11  12
HETATM   12  C   UNL     1       7.954  12.009  23.440  0.00  0.00     0.080 A 
HETATM   13  C   UNL     1       7.049  10.943  23.249  0.00  0.00     0.062 A 
HETATM   14 CL   UNL     1       5.646  10.973  22.228  0.00  0.00    -0.082 Cl
HETATM   15  C   UNL     1       7.300   9.696  23.843  0.00  0.00     0.026 A 
HETATM   16  C   UNL     1       8.439   9.486  24.617  0.00  0.00     0.002 A 
HETATM   17  C   UNL     1       9.296  10.550  24.868  0.00  0.00     0.002 A 
HETATM   18  C   UNL     1       9.028  11.809  24.323  0.00  0.00     0.033 A 
ENDBRANCH  11  12
ENDBRANCH   5   7
BRANCH   4  19
HETATM   19  O   UNL     1       7.256  15.208  25.656  0.00  0.00    -0.360 OA
HETATM   20  H   UNL     1       7.902  14.746  25.096  0.00  0.00     0.217 HD
ENDBRANCH   4  19
BRANCH   1  21
HETATM   21  C   UNL     1       1.960  14.624  23.686  0.00  0.00     0.047 C 
BRANCH  21  22
HETATM   22  C   UNL     1       1.502  13.243  23.171  0.00  0.00     0.061 C 
BRANCH  22  23
HETATM   23  C   UNL     1       0.160  12.763  23.685  0.00  0.00     0.005 A 
HETATM   24  N   UNL     1      -0.751  12.278  22.769  0.00  0.00    -0.370 N 
HETATM   25  C   UNL     1      -1.934  11.692  23.135  0.00  0.00     0.084 A 
HETATM   26  H   UNL     1      -0.469  12.207  21.795  0.00  0.00     0.165 HD
HETATM   27  C   UNL     1      -2.302  11.576  24.418  0.00  0.00    -0.006 A 
HETATM   28  C   UNL     1      -1.402  12.088  25.519  0.00  0.00     0.057 A 
HETATM   29  C   UNL     1      -0.118  12.700  25.005  0.00  0.00     0.002 A 
ENDBRANCH  22  23
ENDBRANCH  21  22
ENDBRANCH   1  21
BRANCH   2  30
HETATM   30  O   UNL     1       2.623  15.359  26.486  0.00  0.00    -0.360 OA
HETATM   31  H   UNL     1       2.925  16.139  26.983  0.00  0.00     0.217 HD
ENDBRANCH   2  30
TORSDOF 7
ENDMDL
MODEL 8
REMARK VINA RESULT:    -7.195      3.158      4.699
REMARK INTER + INTRA:         -12.323
REMARK INTER:                 -10.644
REMARK INTRA:                  -1.679
REMARK UNBOUND:                -2.604
REMARK  7 active torsions:
REMARK  status: ('A' for Active; 'I' for Inactive)
REMARK    1  A    between atoms: C_6  and  C_7 
REMARK    2  A    between atoms: C_7  and  C_8 
REMARK    3  A    between atoms: C_8  and  C_9 
REMARK    4  A    between atoms: C_10  and  O_11 
REMARK    5  A    between atoms: C_13  and  O_14 
REMARK    6  A    between atoms: C_15  and  C_17 
REMARK    7  A    between atoms: N_21  and  C_22 
ROOT
HETATM    1  C   UNL     1       5.765  14.726  24.876  0.00  0.00    -0.024 C 
HETATM    2  C   UNL     1       5.795  13.478  25.495  0.00  0.00     0.074 C 
HETATM    3  C   UNL     1       6.948  12.699  25.491  0.00  0.00     0.074 C 
HETATM    4  C   UNL     1       8.117  13.202  24.917  0.00  0.00     0.081 C 
HETATM    5  C   UNL     1       8.138  14.447  24.249  0.00  0.00     0.026 C 
HETATM    6  C   UNL     1       6.906  15.116  24.142  0.00  0.00     0.026 C 
ENDROOT
BRANCH   5   7
HETATM    7  C   UNL     1       9.406  15.028  23.720  0.00  0.00     0.073 A 
HETATM    8  C   UNL     1      10.285  15.848  24.422  0.00  0.00     0.053 A 
HETATM    9  C   UNL     1      11.299  16.201  23.541  0.00  0.00     0.141 A 
HETATM   10  N   UNL     1      11.144  15.637  22.356  0.00  0.00    -0.179 NA
HETATM   11  N   UNL     1      10.016  14.878  22.445  0.00  0.00    -0.232 N 
BRANCH  11  12
HETATM   12  C   UNL     1       9.624  14.134  21.283  0.00  0.00     0.080 A 
HETATM   13  C   UNL     1      10.007  12.789  21.087  0.00  0.00     0.062 A 
HETATM   14 CL   UNL     1      11.014  11.855  22.146  0.00  0.00    -0.082 Cl
HETATM   15  C   UNL     1       9.488  12.065  20.001  0.00  0.00     0.026 A 
HETATM   16  C   UNL     1       8.589  12.650  19.113  0.00  0.00     0.002 A 
HETATM   17  C   UNL     1       8.264  13.993  19.258  0.00  0.00     0.002 A 
HETATM   18  C   UNL     1       8.816  14.737  20.305  0.00  0.00     0.033 A 
ENDBRANCH  11  12
ENDBRANCH   5   7
BRANCH   4  19
HETATM   19  O   UNL     1       9.259  12.450  25.034  0.00  0.00    -0.360 OA
HETATM   20  H   UNL     1       9.311  11.824  24.293  0.00  0.00     0.217 HD
ENDBRANCH   4  19
BRANCH   1  21
HETATM   21  C   UNL     1       4.598  15.698  24.979  0.00  0.00     0.047 C 
BRANCH  21  22
HETATM   22  C   UNL     1       3.491  15.481  23.926  0.00  0.00     0.061 C 
BRANCH  22  23
HETATM   23  C   UNL     1       2.277  14.710  24.400  0.00  0.00     0.005 A 
HETATM   24  N   UNL     1       2.128  14.501  25.756  0.00  0.00    -0.370 N 
HETATM   25  C   UNL     1       1.004  13.942  26.304  0.00  0.00     0.084 A 
HETATM   26  H   UNL     1       2.805  14.920  26.388  0.00  0.00     0.165 HD
HETATM   27  C   UNL     1      -0.024  13.529  25.550  0.00  0.00    -0.006 A 
HETATM   28  C   UNL     1       0.024  13.680  24.046  0.00  0.00     0.057 A 
HETATM   29  C   UNL     1       1.300  14.323  23.550  0.00  0.00     0.002 A 
ENDBRANCH  22  23
ENDBRANCH  21  22
ENDBRANCH   1  21
BRANCH   2  30
HETATM   30  O   UNL     1       4.704  12.958  26.119  0.00  0.00    -0.360 OA
HETATM   31  H   UNL     1       5.046  12.368  26.814  0.00  0.00     0.217 HD
ENDBRANCH   2  30
TORSDOF 7
ENDMDL
MODEL 9
REMARK VINA RESULT:    -7.135      2.727      6.221
REMARK INTER + INTRA:         -12.242
REMARK INTER:                  -9.638
REMARK INTRA:                  -2.604
REMARK UNBOUND:                -2.604
REMARK  7 active torsions:
REMARK  status: ('A' for Active; 'I' for Inactive)
REMARK    1  A    between atoms: C_6  and  C_7 
REMARK    2  A    between atoms: C_7  and  C_8 
REMARK    3  A    between atoms: C_8  and  C_9 
REMARK    4  A    between atoms: C_10  and  O_11 
REMARK    5  A    between atoms: C_13  and  O_14 
REMARK    6  A    between atoms: C_15  and  C_17 
REMARK    7  A    between atoms: N_21  and  C_22 
ROOT
HETATM    1  C   UNL     1       8.731  14.795  21.213  0.00  0.00    -0.024 C 
HETATM    2  C   UNL     1       9.700  14.897  22.209  0.00  0.00     0.074 C 
HETATM    3  C   UNL     1       9.346  15.076  23.543  0.00  0.00     0.074 C 
HETATM    4  C   UNL     1       7.997  15.086  23.902  0.00  0.00     0.081 C 
HETATM    5  C   UNL     1       6.972  15.017  22.932  0.00  0.00     0.026 C 
HETATM    6  C   UNL     1       7.386  15.001  21.589  0.00  0.00     0.026 C 
ENDROOT
BRANCH   5   7
HETATM    7  C   UNL     1       5.534  14.930  23.320  0.00  0.00     0.073 A 
HETATM    8  C   UNL     1       4.699  16.007  23.610  0.00  0.00     0.053 A 
HETATM    9  C   UNL     1       3.468  15.477  23.972  0.00  0.00     0.141 A 
HETATM   10  N   UNL     1       3.454  14.158  23.896  0.00  0.00    -0.179 NA
HETATM   11  N   UNL     1       4.693  13.794  23.459  0.00  0.00    -0.232 N 
BRANCH  11  12
HETATM   12  C   UNL     1       4.944  12.393  23.270  0.00  0.00     0.080 A 
HETATM   13  C   UNL     1       5.457  11.576  24.300  0.00  0.00     0.062 A 
HETATM   14 CL   UNL     1       5.902  12.105  25.891  0.00  0.00    -0.082 Cl
HETATM   15  C   UNL     1       5.557  10.188  24.107  0.00  0.00     0.026 A 
HETATM   16  C   UNL     1       5.149   9.598  22.914  0.00  0.00     0.002 A 
HETATM   17  C   UNL     1       4.711  10.405  21.871  0.00  0.00     0.002 A 
HETATM   18  C   UNL     1       4.656  11.791  22.034  0.00  0.00     0.033 A 
ENDBRANCH  11  12
ENDBRANCH   5   7
BRANCH   4  19
HETATM   19  O   UNL     1       7.694  15.152  25.239  0.00  0.00    -0.360 OA
HETATM   20  H   UNL     1       8.237  15.839  25.660  0.00  0.00     0.217 HD
ENDBRANCH   4  19
BRANCH   1  21
HETATM   21  C   UNL     1       9.035  14.437  19.765  0.00  0.00     0.047 C 
BRANCH  21  22
HETATM   22  C   UNL     1       8.793  12.955  19.409  0.00  0.00     0.061 C 
BRANCH  22  23
HETATM   23  C   UNL     1       9.240  11.948  20.450  0.00  0.00     0.005 A 
HETATM   24  N   UNL     1      10.592  11.831  20.701  0.00  0.00    -0.370 N 
HETATM   25  C   UNL     1      11.096  11.058  21.714  0.00  0.00     0.084 A 
HETATM   26  H   UNL     1      11.230  12.460  20.224  0.00  0.00     0.165 HD
HETATM   27  C   UNL     1      10.303  10.335  22.517  0.00  0.00    -0.006 A 
HETATM   28  C   UNL     1       8.802  10.359  22.332  0.00  0.00     0.057 A 
HETATM   29  C   UNL     1       8.355  11.255  21.198  0.00  0.00     0.002 A 
ENDBRANCH  22  23
ENDBRANCH  21  22
ENDBRANCH   1  21
BRANCH   2  30
HETATM   30  O   UNL     1      11.030  14.840  21.929  0.00  0.00    -0.360 OA
HETATM   31  H   UNL     1      11.100  14.496  21.021  0.00  0.00     0.217 HD
ENDBRANCH   2  30
TORSDOF 7
ENDMDL
