MODEL 1
REMARK VINA RESULT:    -8.389      0.000      0.000
REMARK INTER + INTRA:         -13.505
REMARK INTER:                 -10.781
REMARK INTRA:                  -2.724
REMARK UNBOUND:                -2.174
REMARK  7 active torsions:
REMARK  status: ('A' for Active; 'I' for Inactive)
REMARK    1  A    between atoms: C_7  and  N_8 
REMARK    2  A    between atoms: C_14  and  C_15 
REMARK    3  A    between atoms: C_16  and  O_17 
REMARK    4  A    between atoms: C_19  and  O_20 
REMARK    5  A    between atoms: C_22  and  C_23 
REMARK       I    between atoms: C_23  and  N_25 
REMARK    6  A    between atoms: N_25  and  C_27 
REMARK    7  A    between atoms: C_27  and  C_28 
ROOT
HETATM    1  C   UNL     1       3.842   7.201  18.149  0.00  0.00     0.046 A 
HETATM    2  C   UNL     1       2.849   8.197  18.310  0.00  0.00     0.082 A 
HETATM    3  C   UNL     1       1.587   8.084  17.733  0.00  0.00     0.075 A 
HETATM    4  C   UNL     1       1.268   6.952  16.990  0.00  0.00     0.084 A 
HETATM    5  C   UNL     1       3.502   6.077  17.374  0.00  0.00     0.038 A 
HETATM    6  C   UNL     1       2.214   5.929  16.804  0.00  0.00     0.066 A 
ENDROOT
BRANCH   1   7
HETATM    7  C   UNL     1       5.071   7.335  19.005  0.00  0.00     0.172 A 
HETATM    8  N   UNL     1       5.420   6.678  20.162  0.00  0.00    -0.241 N 
HETATM    9  C   UNL     1       6.704   7.113  20.455  0.00  0.00     0.349 A 
HETATM   10  O   UNL     1       7.400   6.899  21.439  0.00  0.00    -0.245 OA
HETATM   11  N   UNL     1       7.051   7.974  19.434  0.00  0.00    -0.226 N 
HETATM   12  H   UNL     1       7.902   8.521  19.397  0.00  0.00     0.194 HD
HETATM   13  N   UNL     1       6.032   8.115  18.559  0.00  0.00    -0.151 NA
BRANCH   8  14
HETATM   14  C   UNL     1       4.751   5.820  21.051  0.00  0.00     0.084 A 
HETATM   15  C   UNL     1       3.601   6.270  21.722  0.00  0.00     0.143 A 
HETATM   16  F   UNL     1       3.262   7.568  21.688  0.00  0.00    -0.204 F 
HETATM   17  C   UNL     1       2.787   5.403  22.447  0.00  0.00     0.044 A 
HETATM   18  C   UNL     1       3.136   4.059  22.551  0.00  0.00     0.003 A 
HETATM   19  C   UNL     1       4.275   3.592  21.899  0.00  0.00     0.002 A 
HETATM   20  C   UNL     1       5.049   4.460  21.118  0.00  0.00     0.033 A 
ENDBRANCH   8  14
ENDBRANCH   1   7
BRANCH   2  21
HETATM   21  O   UNL     1       3.019   9.331  19.069  0.00  0.00    -0.360 OA
HETATM   22  H   UNL     1       2.653  10.096  18.572  0.00  0.00     0.217 HD
ENDBRANCH   2  21
BRANCH   6  23
HETATM   23  C   UNL     1       1.726   4.575  16.384  0.00  0.00     0.256 C 
HETATM   24  O   UNL     1       1.443   4.461  15.188  0.00  0.00    -0.267 OA
HETATM   25  N   UNL     1       1.489   3.521  17.277  0.00  0.00    -0.346 N 
HETATM   26  C   UNL     1       0.863   2.317  16.728  0.00  0.00     0.153 C 
BRANCH  25  27
HETATM   27  C   UNL     1       1.960   3.409  18.656  0.00  0.00     0.190 C 
BRANCH  27  28
HETATM   28  C   UNL     1       3.119   2.480  18.729  0.00  0.00     0.070 A 
HETATM   29  O   UNL     1       2.965   1.364  19.505  0.00  0.00    -0.325 OA
HETATM   30  C   UNL     1       4.146   0.692  19.471  0.00  0.00     0.142 A 
HETATM   31  C   UNL     1       5.056   1.355  18.684  0.00  0.00     0.027 A 
HETATM   32  C   UNL     1       4.387   2.497  18.184  0.00  0.00     0.036 A 
ENDBRANCH  27  28
ENDBRANCH  25  27
ENDBRANCH   6  23
BRANCH   4  33
HETATM   33  O   UNL     1       0.001   6.855  16.477  0.00  0.00    -0.360 OA
HETATM   34  H   UNL     1      -0.636   6.999  17.199  0.00  0.00     0.217 HD
ENDBRANCH   4  33
TORSDOF 7
ENDMDL
MODEL 2
REMARK VINA RESULT:    -7.857      4.273      7.684
REMARK INTER + INTRA:         -12.787
REMARK INTER:                 -10.680
REMARK INTRA:                  -2.107
REMARK UNBOUND:                -2.174
REMARK  7 active torsions:
REMARK  status: ('A' for Active; 'I' for Inactive)
REMARK    1  A    between atoms: C_7  and  N_8 
REMARK    2  A    between atoms: C_14  and  C_15 
REMARK    3  A    between atoms: C_16  and  O_17 
REMARK    4  A    between atoms: C_19  and  O_20 
REMARK    5  A    between atoms: C_22  and  C_23 
REMARK       I    between atoms: C_23  and  N_25 
REMARK    6  A    between atoms: N_25  and  C_27 
REMARK    7  A    between atoms: C_27  and  C_28 
ROOT
HETATM    1  C   UNL     1       3.763   7.473  22.107  0.00  0.00     0.046 A 
HETATM    2  C   UNL     1       4.384   8.738  21.973  0.00  0.00     0.082 A 
HETATM    3  C   UNL     1       4.202   9.754  22.909  0.00  0.00     0.075 A 
HETATM    4  C   UNL     1       3.405   9.527  24.026  0.00  0.00     0.084 A 
HETATM    5  C   UNL     1       2.943   7.277  23.234  0.00  0.00     0.038 A 
HETATM    6  C   UNL     1       2.770   8.287  24.212  0.00  0.00     0.066 A 
ENDROOT
BRANCH   1   7
HETATM    7  C   UNL     1       4.220   6.399  21.159  0.00  0.00     0.172 A 
HETATM    8  N   UNL     1       3.701   6.010  19.946  0.00  0.00    -0.241 N 
HETATM    9  C   UNL     1       4.584   5.057  19.461  0.00  0.00     0.349 A 
HETATM   10  O   UNL     1       4.500   4.340  18.472  0.00  0.00    -0.245 OA
HETATM   11  N   UNL     1       5.591   4.966  20.399  0.00  0.00    -0.226 N 
HETATM   12  H   UNL     1       6.351   4.297  20.376  0.00  0.00     0.194 HD
HETATM   13  N   UNL     1       5.346   5.783  21.446  0.00  0.00    -0.151 NA
BRANCH   8  14
HETATM   14  C   UNL     1       2.523   6.299  19.237  0.00  0.00     0.084 A 
HETATM   15  C   UNL     1       2.520   7.328  18.280  0.00  0.00     0.143 A 
HETATM   16  F   UNL     1       3.559   8.173  18.191  0.00  0.00    -0.204 F 
HETATM   17  C   UNL     1       1.450   7.517  17.408  0.00  0.00     0.044 A 
HETATM   18  C   UNL     1       0.330   6.696  17.507  0.00  0.00     0.003 A 
HETATM   19  C   UNL     1       0.310   5.672  18.451  0.00  0.00     0.002 A 
HETATM   20  C   UNL     1       1.419   5.449  19.277  0.00  0.00     0.033 A 
ENDBRANCH   8  14
ENDBRANCH   1   7
BRANCH   2  21
HETATM   21  O   UNL     1       5.240   9.066  20.949  0.00  0.00    -0.360 OA
HETATM   22  H   UNL     1       5.538   9.993  21.077  0.00  0.00     0.217 HD
ENDBRANCH   2  21
BRANCH   6  23
HETATM   23  C   UNL     1       2.289   7.931  25.587  0.00  0.00     0.256 C 
HETATM   24  O   UNL     1       3.174   7.694  26.413  0.00  0.00    -0.267 OA
HETATM   25  N   UNL     1       0.938   7.762  25.920  0.00  0.00    -0.346 N 
HETATM   26  C   UNL     1       0.646   7.259  27.262  0.00  0.00     0.153 C 
BRANCH  25  27
HETATM   27  C   UNL     1      -0.223   8.200  25.149  0.00  0.00     0.190 C 
BRANCH  27  28
HETATM   28  C   UNL     1      -0.406   9.670  25.286  0.00  0.00     0.070 A 
HETATM   29  O   UNL     1       0.156  10.453  24.316  0.00  0.00    -0.325 OA
HETATM   30  C   UNL     1      -0.087  11.745  24.660  0.00  0.00     0.142 A 
HETATM   31  C   UNL     1      -0.797  11.806  25.835  0.00  0.00     0.027 A 
HETATM   32  C   UNL     1      -1.027  10.467  26.227  0.00  0.00     0.036 A 
ENDBRANCH  27  28
ENDBRANCH  25  27
ENDBRANCH   6  23
BRANCH   4  33
HETATM   33  O   UNL     1       3.288  10.535  24.948  0.00  0.00    -0.360 OA
HETATM   34  H   UNL     1       3.553  11.372  24.526  0.00  0.00     0.217 HD
ENDBRANCH   4  33
TORSDOF 7
ENDMDL
MODEL 3
REMARK VINA RESULT:    -7.817      4.223      7.449
REMARK INTER + INTRA:         -12.733
REMARK INTER:                 -10.675
REMARK INTRA:                  -2.058
REMARK UNBOUND:                -2.174
REMARK  7 active torsions:
REMARK  status: ('A' for Active; 'I' for Inactive)
REMARK    1  A    between atoms: C_7  and  N_8 
REMARK    2  A    between atoms: C_14  and  C_15 
REMARK    3  A    between atoms: C_16  and  O_17 
REMARK    4  A    between atoms: C_19  and  O_20 
REMARK    5  A    between atoms: C_22  and  C_23 
REMARK       I    between atoms: C_23  and  N_25 
REMARK    6  A    between atoms: N_25  and  C_27 
REMARK    7  A    between atoms: C_27  and  C_28 
ROOT
HETATM    1  C   UNL     1       3.909   7.856  22.249  0.00  0.00     0.046 A 
HETATM    2  C   UNL     1       4.090   9.224  22.567  0.00  0.00     0.082 A 
HETATM    3  C   UNL     1       3.692   9.757  23.790  0.00  0.00     0.075 A 
HETATM    4  C   UNL     1       3.115   8.930  24.748  0.00  0.00     0.084 A 
HETATM    5  C   UNL     1       3.302   7.046  23.226  0.00  0.00     0.038 A 
HETATM    6  C   UNL     1       2.918   7.562  24.487  0.00  0.00     0.066 A 
ENDROOT
BRANCH   1   7
HETATM    7  C   UNL     1       4.585   7.364  20.999  0.00  0.00     0.172 A 
HETATM    8  N   UNL     1       4.047   7.004  19.785  0.00  0.00    -0.241 N 
HETATM    9  C   UNL     1       5.136   6.742  18.967  0.00  0.00     0.349 A 
HETATM   10  O   UNL     1       5.173   6.284  17.832  0.00  0.00    -0.245 OA
HETATM   11  N   UNL     1       6.253   6.998  19.735  0.00  0.00    -0.226 N 
HETATM   12  H   UNL     1       7.209   6.825  19.450  0.00  0.00     0.194 HD
HETATM   13  N   UNL     1       5.900   7.362  20.987  0.00  0.00    -0.151 NA
BRANCH   8  14
HETATM   14  C   UNL     1       2.744   6.785  19.308  0.00  0.00     0.084 A 
HETATM   15  C   UNL     1       2.171   7.694  18.401  0.00  0.00     0.143 A 
HETATM   16  F   UNL     1       2.767   8.870  18.155  0.00  0.00    -0.204 F 
HETATM   17  C   UNL     1       0.976   7.418  17.741  0.00  0.00     0.044 A 
HETATM   18  C   UNL     1       0.300   6.231  18.012  0.00  0.00     0.003 A 
HETATM   19  C   UNL     1       0.847   5.318  18.911  0.00  0.00     0.002 A 
HETATM   20  C   UNL     1       2.082   5.575  19.517  0.00  0.00     0.033 A 
ENDBRANCH   8  14
ENDBRANCH   1   7
BRANCH   2  21
HETATM   21  O   UNL     1       4.701  10.129  21.732  0.00  0.00    -0.360 OA
HETATM   22  H   UNL     1       4.793  10.982  22.212  0.00  0.00     0.217 HD
ENDBRANCH   2  21
BRANCH   6  23
HETATM   23  C   UNL     1       2.704   6.639  25.648  0.00  0.00     0.256 C 
HETATM   24  O   UNL     1       3.731   6.239  26.203  0.00  0.00    -0.267 OA
HETATM   25  N   UNL     1       1.448   6.153  26.036  0.00  0.00    -0.346 N 
HETATM   26  C   UNL     1       1.428   5.136  27.088  0.00  0.00     0.153 C 
BRANCH  25  27
HETATM   27  C   UNL     1       0.140   6.673  25.644  0.00  0.00     0.190 C 
BRANCH  27  28
HETATM   28  C   UNL     1      -0.194   7.881  26.445  0.00  0.00     0.070 A 
HETATM   29  O   UNL     1      -0.277   9.065  25.767  0.00  0.00    -0.325 OA
HETATM   30  C   UNL     1      -0.539  10.031  26.687  0.00  0.00     0.142 A 
HETATM   31  C   UNL     1      -0.627   9.487  27.945  0.00  0.00     0.027 A 
HETATM   32  C   UNL     1      -0.430   8.095  27.788  0.00  0.00     0.036 A 
ENDBRANCH  27  28
ENDBRANCH  25  27
ENDBRANCH   6  23
BRANCH   4  33
HETATM   33  O   UNL     1       2.779   9.482  25.957  0.00  0.00    -0.360 OA
HETATM   34  H   UNL     1       3.103  10.400  25.977  0.00  0.00     0.217 HD
ENDBRANCH   4  33
TORSDOF 7
ENDMDL
MODEL 4
REMARK VINA RESULT:    -7.568      2.625      5.086
REMARK INTER + INTRA:         -12.397
REMARK INTER:                 -10.340
REMARK INTRA:                  -2.057
REMARK UNBOUND:                -2.174
REMARK  7 active torsions:
REMARK  status: ('A' for Active; 'I' for Inactive)
REMARK    1  A    between atoms: C_7  and  N_8 
REMARK    2  A    between atoms: C_14  and  C_15 
REMARK    3  A    between atoms: C_16  and  O_17 
REMARK    4  A    between atoms: C_19  and  O_20 
REMARK    5  A    between atoms: C_22  and  C_23 
REMARK       I    between atoms: C_23  and  N_25 
REMARK    6  A    between atoms: N_25  and  C_27 
REMARK    7  A    between atoms: C_27  and  C_28 
ROOT
HETATM    1  C   UNL     1       4.709   5.700  21.459  0.00  0.00     0.046 A 
HETATM    2  C   UNL     1       3.665   6.286  22.215  0.00  0.00     0.082 A 
HETATM    3  C   UNL     1       2.897   5.548  23.112  0.00  0.00     0.075 A 
HETATM    4  C   UNL     1       3.165   4.196  23.298  0.00  0.00     0.084 A 
HETATM    5  C   UNL     1       4.944   4.326  21.649  0.00  0.00     0.038 A 
HETATM    6  C   UNL     1       4.195   3.564  22.578  0.00  0.00     0.066 A 
ENDROOT
BRANCH   1   7
HETATM    7  C   UNL     1       5.603   6.646  20.705  0.00  0.00     0.172 A 
HETATM    8  N   UNL     1       5.328   7.450  19.624  0.00  0.00    -0.241 N 
HETATM    9  C   UNL     1       6.483   8.189  19.417  0.00  0.00     0.349 A 
HETATM   10  O   UNL     1       6.769   8.962  18.510  0.00  0.00    -0.245 OA
HETATM   11  N   UNL     1       7.359   7.805  20.411  0.00  0.00    -0.226 N 
HETATM   12  H   UNL     1       8.322   8.106  20.488  0.00  0.00     0.194 HD
HETATM   13  N   UNL     1       6.812   6.843  21.185  0.00  0.00    -0.151 NA
BRANCH   8  14
HETATM   14  C   UNL     1       4.248   7.574  18.733  0.00  0.00     0.084 A 
HETATM   15  C   UNL     1       3.974   6.539  17.823  0.00  0.00     0.143 A 
HETATM   16  F   UNL     1       4.853   5.539  17.649  0.00  0.00    -0.204 F 
HETATM   17  C   UNL     1       2.804   6.516  17.068  0.00  0.00     0.044 A 
HETATM   18  C   UNL     1       1.893   7.563  17.180  0.00  0.00     0.003 A 
HETATM   19  C   UNL     1       2.148   8.602  18.072  0.00  0.00     0.002 A 
HETATM   20  C   UNL     1       3.295   8.581  18.875  0.00  0.00     0.033 A 
ENDBRANCH   8  14
ENDBRANCH   1   7
BRANCH   2  21
HETATM   21  O   UNL     1       3.342   7.621  22.167  0.00  0.00    -0.360 OA
HETATM   22  H   UNL     1       3.153   7.929  23.080  0.00  0.00     0.217 HD
ENDBRANCH   2  21
BRANCH   6  23
HETATM   23  C   UNL     1       4.731   2.263  23.094  0.00  0.00     0.256 C 
HETATM   24  O   UNL     1       5.332   2.326  24.169  0.00  0.00    -0.267 OA
HETATM   25  N   UNL     1       4.670   1.058  22.380  0.00  0.00    -0.346 N 
HETATM   26  C   UNL     1       5.379  -0.087  22.952  0.00  0.00     0.153 C 
BRANCH  25  27
HETATM   27  C   UNL     1       3.828   0.759  21.223  0.00  0.00     0.190 C 
BRANCH  27  28
HETATM   28  C   UNL     1       4.579   1.006  19.963  0.00  0.00     0.070 A 
HETATM   29  O   UNL     1       4.171   2.065  19.201  0.00  0.00    -0.325 OA
HETATM   30  C   UNL     1       4.951   2.076  18.088  0.00  0.00     0.142 A 
HETATM   31  C   UNL     1       5.855   1.042  18.122  0.00  0.00     0.027 A 
HETATM   32  C   UNL     1       5.634   0.365  19.344  0.00  0.00     0.036 A 
ENDBRANCH  27  28
ENDBRANCH  25  27
ENDBRANCH   6  23
BRANCH   4  33
HETATM   33  O   UNL     1       2.419   3.513  24.224  0.00  0.00    -0.360 OA
HETATM   34  H   UNL     1       1.591   4.003  24.374  0.00  0.00     0.217 HD
ENDBRANCH   4  33
TORSDOF 7
ENDMDL
MODEL 5
REMARK VINA RESULT:    -7.566      2.520      5.884
REMARK INTER + INTRA:         -12.394
REMARK INTER:                 -10.361
REMARK INTRA:                  -2.034
REMARK UNBOUND:                -2.174
REMARK  7 active torsions:
REMARK  status: ('A' for Active; 'I' for Inactive)
REMARK    1  A    between atoms: C_7  and  N_8 
REMARK    2  A    between atoms: C_14  and  C_15 
REMARK    3  A    between atoms: C_16  and  O_17 
REMARK    4  A    between atoms: C_19  and  O_20 
REMARK    5  A    between atoms: C_22  and  C_23 
REMARK       I    between atoms: C_23  and  N_25 
REMARK    6  A    between atoms: N_25  and  C_27 
REMARK    7  A    between atoms: C_27  and  C_28 
ROOT
HETATM    1  C   UNL     1       3.325   7.339  18.396  0.00  0.00     0.046 A 
HETATM    2  C   UNL     1       4.597   6.774  18.131  0.00  0.00     0.082 A 
HETATM    3  C   UNL     1       5.703   7.032  18.936  0.00  0.00     0.075 A 
HETATM    4  C   UNL     1       5.567   7.852  20.052  0.00  0.00     0.084 A 
HETATM    5  C   UNL     1       3.220   8.183  19.516  0.00  0.00     0.038 A 
HETATM    6  C   UNL     1       4.326   8.434  20.365  0.00  0.00     0.066 A 
ENDROOT
BRANCH   1   7
HETATM    7  C   UNL     1       2.174   6.803  17.592  0.00  0.00     0.172 A 
HETATM    8  N   UNL     1       1.515   5.599  17.682  0.00  0.00    -0.241 N 
HETATM    9  C   UNL     1       0.469   5.686  16.777  0.00  0.00     0.349 A 
HETATM   10  O   UNL     1      -0.331   4.832  16.416  0.00  0.00    -0.245 OA
HETATM   11  N   UNL     1       0.548   6.951  16.232  0.00  0.00    -0.226 N 
HETATM   12  H   UNL     1      -0.030   7.298  15.477  0.00  0.00     0.194 HD
HETATM   13  N   UNL     1       1.611   7.621  16.728  0.00  0.00    -0.151 NA
BRANCH   8  14
HETATM   14  C   UNL     1       1.744   4.398  18.375  0.00  0.00     0.084 A 
HETATM   15  C   UNL     1       1.022   4.122  19.549  0.00  0.00     0.143 A 
HETATM   16  F   UNL     1       0.280   5.078  20.128  0.00  0.00    -0.204 F 
HETATM   17  C   UNL     1       1.056   2.867  20.154  0.00  0.00     0.044 A 
HETATM   18  C   UNL     1       1.857   1.865  19.614  0.00  0.00     0.003 A 
HETATM   19  C   UNL     1       2.585   2.119  18.453  0.00  0.00     0.002 A 
HETATM   20  C   UNL     1       2.491   3.362  17.815  0.00  0.00     0.033 A 
ENDBRANCH   8  14
ENDBRANCH   1   7
BRANCH   2  21
HETATM   21  O   UNL     1       4.846   5.903  17.097  0.00  0.00    -0.360 OA
HETATM   22  H   UNL     1       4.320   6.186  16.317  0.00  0.00     0.217 HD
ENDBRANCH   2  21
BRANCH   6  23
HETATM   23  C   UNL     1       4.108   8.940  21.759  0.00  0.00     0.256 C 
HETATM   24  O   UNL     1       4.299  10.148  21.921  0.00  0.00    -0.267 OA
HETATM   25  N   UNL     1       3.816   8.112  22.852  0.00  0.00    -0.346 N 
HETATM   26  C   UNL     1       3.791   8.742  24.172  0.00  0.00     0.153 C 
BRANCH  25  27
HETATM   27  C   UNL     1       3.352   6.726  22.811  0.00  0.00     0.190 C 
BRANCH  27  28
HETATM   28  C   UNL     1       4.341   5.834  23.473  0.00  0.00     0.070 A 
HETATM   29  O   UNL     1       3.872   5.037  24.481  0.00  0.00    -0.325 OA
HETATM   30  C   UNL     1       4.938   4.351  24.971  0.00  0.00     0.142 A 
HETATM   31  C   UNL     1       6.084   4.692  24.295  0.00  0.00     0.027 A 
HETATM   32  C   UNL     1       5.697   5.631  23.310  0.00  0.00     0.036 A 
ENDBRANCH  27  28
ENDBRANCH  25  27
ENDBRANCH   6  23
BRANCH   4  33
HETATM   33  O   UNL     1       6.667   8.045  20.846  0.00  0.00    -0.360 OA
HETATM   34  H   UNL     1       6.878   7.204  21.290  0.00  0.00     0.217 HD
ENDBRANCH   4  33
TORSDOF 7
ENDMDL
MODEL 6
REMARK VINA RESULT:    -7.539      2.209      4.794
REMARK INTER + INTRA:         -12.357
REMARK INTER:                  -9.618
REMARK INTRA:                  -2.739
REMARK UNBOUND:                -2.174
REMARK  7 active torsions:
REMARK  status: ('A' for Active; 'I' for Inactive)
REMARK    1  A    between atoms: C_7  and  N_8 
REMARK    2  A    between atoms: C_14  and  C_15 
REMARK    3  A    between atoms: C_16  and  O_17 
REMARK    4  A    between atoms: C_19  and  O_20 
REMARK    5  A    between atoms: C_22  and  C_23 
REMARK       I    between atoms: C_23  and  N_25 
REMARK    6  A    between atoms: N_25  and  C_27 
REMARK    7  A    between atoms: C_27  and  C_28 
ROOT
HETATM    1  C   UNL     1       4.555   5.674  21.420  0.00  0.00     0.046 A 
HETATM    2  C   UNL     1       4.293   5.998  22.774  0.00  0.00     0.082 A 
HETATM    3  C   UNL     1       3.593   5.139  23.618  0.00  0.00     0.075 A 
HETATM    4  C   UNL     1       3.148   3.912  23.137  0.00  0.00     0.084 A 
HETATM    5  C   UNL     1       4.074   4.438  20.953  0.00  0.00     0.038 A 
HETATM    6  C   UNL     1       3.386   3.537  21.803  0.00  0.00     0.066 A 
ENDROOT
BRANCH   1   7
HETATM    7  C   UNL     1       5.510   6.576  20.689  0.00  0.00     0.172 A 
HETATM    8  N   UNL     1       5.289   7.433  19.637  0.00  0.00    -0.241 N 
HETATM    9  C   UNL     1       6.493   8.092  19.442  0.00  0.00     0.349 A 
HETATM   10  O   UNL     1       6.830   8.870  18.559  0.00  0.00    -0.245 OA
HETATM   11  N   UNL     1       7.345   7.612  20.416  0.00  0.00    -0.226 N 
HETATM   12  H   UNL     1       8.329   7.839  20.494  0.00  0.00     0.194 HD
HETATM   13  N   UNL     1       6.734   6.668  21.164  0.00  0.00    -0.151 NA
BRANCH   8  14
HETATM   14  C   UNL     1       4.215   7.664  18.760  0.00  0.00     0.084 A 
HETATM   15  C   UNL     1       3.867   6.687  17.811  0.00  0.00     0.143 A 
HETATM   16  F   UNL     1       4.675   5.639  17.591  0.00  0.00    -0.204 F 
HETATM   17  C   UNL     1       2.693   6.772  17.066  0.00  0.00     0.044 A 
HETATM   18  C   UNL     1       1.856   7.873  17.226  0.00  0.00     0.003 A 
HETATM   19  C   UNL     1       2.184   8.856  18.157  0.00  0.00     0.002 A 
HETATM   20  C   UNL     1       3.332   8.726  18.949  0.00  0.00     0.033 A 
ENDBRANCH   8  14
ENDBRANCH   1   7
BRANCH   2  21
HETATM   21  O   UNL     1       4.731   7.149  23.384  0.00  0.00    -0.360 OA
HETATM   22  H   UNL     1       5.703   7.218  23.259  0.00  0.00     0.217 HD
ENDBRANCH   2  21
BRANCH   6  23
HETATM   23  C   UNL     1       3.284   2.086  21.441  0.00  0.00     0.256 C 
HETATM   24  O   UNL     1       4.170   1.361  21.903  0.00  0.00    -0.267 OA
HETATM   25  N   UNL     1       2.330   1.570  20.554  0.00  0.00    -0.346 N 
HETATM   26  C   UNL     1       2.466   0.161  20.183  0.00  0.00     0.153 C 
BRANCH  25  27
HETATM   27  C   UNL     1       1.106   2.222  20.095  0.00  0.00     0.190 C 
BRANCH  27  28
HETATM   28  C   UNL     1       1.215   2.564  18.652  0.00  0.00     0.070 A 
HETATM   29  O   UNL     1       0.218   2.109  17.834  0.00  0.00    -0.325 OA
HETATM   30  C   UNL     1       0.539   2.487  16.569  0.00  0.00     0.142 A 
HETATM   31  C   UNL     1       1.726   3.179  16.559  0.00  0.00     0.027 A 
HETATM   32  C   UNL     1       2.151   3.253  17.906  0.00  0.00     0.036 A 
ENDBRANCH  27  28
ENDBRANCH  25  27
ENDBRANCH   6  23
BRANCH   4  33
HETATM   33  O   UNL     1       2.503   3.075  24.009  0.00  0.00    -0.360 OA
HETATM   34  H   UNL     1       2.816   3.268  24.911  0.00  0.00     0.217 HD
ENDBRANCH   4  33
TORSDOF 7
ENDMDL
MODEL 7
REMARK VINA RESULT:    -7.481      2.173      5.148
REMARK INTER + INTRA:         -12.280
REMARK INTER:                  -9.295
REMARK INTRA:                  -2.985
REMARK UNBOUND:                -2.174
REMARK  7 active torsions:
REMARK  status: ('A' for Active; 'I' for Inactive)
REMARK    1  A    between atoms: C_7  and  N_8 
REMARK    2  A    between atoms: C_14  and  C_15 
REMARK    3  A    between atoms: C_16  and  O_17 
REMARK    4  A    between atoms: C_19  and  O_20 
REMARK    5  A    between atoms: C_22  and  C_23 
REMARK       I    between atoms: C_23  and  N_25 
REMARK    6  A    between atoms: N_25  and  C_27 
REMARK    7  A    between atoms: C_27  and  C_28 
ROOT
HETATM    1  C   UNL     1       3.710   7.333  19.897  0.00  0.00     0.046 A 
HETATM    2  C   UNL     1       5.086   7.523  19.620  0.00  0.00     0.082 A 
HETATM    3  C   UNL     1       6.079   7.168  20.530  0.00  0.00     0.075 A 
HETATM    4  C   UNL     1       5.726   6.590  21.744  0.00  0.00     0.084 A 
HETATM    5  C   UNL     1       3.379   6.768  21.142  0.00  0.00     0.038 A 
HETATM    6  C   UNL     1       4.375   6.372  22.068  0.00  0.00     0.066 A 
ENDROOT
BRANCH   1   7
HETATM    7  C   UNL     1       2.761   7.543  18.750  0.00  0.00     0.172 A 
HETATM    8  N   UNL     1       1.899   6.660  18.141  0.00  0.00    -0.241 N 
HETATM    9  C   UNL     1       1.190   7.418  17.222  0.00  0.00     0.349 A 
HETATM   10  O   UNL     1       0.388   7.066  16.366  0.00  0.00    -0.245 OA
HETATM   11  N   UNL     1       1.648   8.711  17.367  0.00  0.00    -0.226 N 
HETATM   12  H   UNL     1       1.383   9.493  16.782  0.00  0.00     0.194 HD
HETATM   13  N   UNL     1       2.626   8.771  18.297  0.00  0.00    -0.151 NA
BRANCH   8  14
HETATM   14  C   UNL     1       1.700   5.270  18.206  0.00  0.00     0.084 A 
HETATM   15  C   UNL     1       0.610   4.756  18.929  0.00  0.00     0.143 A 
HETATM   16  F   UNL     1      -0.111   5.556  19.728  0.00  0.00    -0.204 F 
HETATM   17  C   UNL     1       0.247   3.413  18.853  0.00  0.00     0.044 A 
HETATM   18  C   UNL     1       1.005   2.539  18.077  0.00  0.00     0.003 A 
HETATM   19  C   UNL     1       2.093   3.027  17.357  0.00  0.00     0.002 A 
HETATM   20  C   UNL     1       2.407   4.391  17.387  0.00  0.00     0.033 A 
ENDBRANCH   8  14
ENDBRANCH   1   7
BRANCH   2  21
HETATM   21  O   UNL     1       5.565   8.028  18.435  0.00  0.00    -0.360 OA
HETATM   22  H   UNL     1       6.497   7.737  18.326  0.00  0.00     0.217 HD
ENDBRANCH   2  21
BRANCH   6  23
HETATM   23  C   UNL     1       4.051   5.388  23.151  0.00  0.00     0.256 C 
HETATM   24  O   UNL     1       4.469   5.680  24.275  0.00  0.00    -0.267 OA
HETATM   25  N   UNL     1       3.418   4.159  22.922  0.00  0.00    -0.346 N 
HETATM   26  C   UNL     1       3.319   3.244  24.060  0.00  0.00     0.153 C 
BRANCH  25  27
HETATM   27  C   UNL     1       2.681   3.754  21.727  0.00  0.00     0.190 C 
BRANCH  27  28
HETATM   28  C   UNL     1       3.578   3.021  20.794  0.00  0.00     0.070 A 
HETATM   29  O   UNL     1       3.341   1.684  20.636  0.00  0.00    -0.325 OA
HETATM   30  C   UNL     1       4.294   1.209  19.791  0.00  0.00     0.142 A 
HETATM   31  C   UNL     1       5.140   2.220  19.402  0.00  0.00     0.027 A 
HETATM   32  C   UNL     1       4.664   3.396  20.028  0.00  0.00     0.036 A 
ENDBRANCH  27  28
ENDBRANCH  25  27
ENDBRANCH   6  23
BRANCH   4  33
HETATM   33  O   UNL     1       6.734   6.212  22.593  0.00  0.00    -0.360 OA
HETATM   34  H   UNL     1       7.510   6.774  22.420  0.00  0.00     0.217 HD
ENDBRANCH   4  33
TORSDOF 7
ENDMDL
MODEL 8
REMARK VINA RESULT:    -7.409      4.441      7.001
REMARK INTER + INTRA:         -12.181
REMARK INTER:                 -10.084
REMARK INTRA:                  -2.097
REMARK UNBOUND:                -2.174
REMARK  7 active torsions:
REMARK  status: ('A' for Active; 'I' for Inactive)
REMARK    1  A    between atoms: C_7  and  N_8 
REMARK    2  A    between atoms: C_14  and  C_15 
REMARK    3  A    between atoms: C_16  and  O_17 
REMARK    4  A    between atoms: C_19  and  O_20 
REMARK    5  A    between atoms: C_22  and  C_23 
REMARK       I    between atoms: C_23  and  N_25 
REMARK    6  A    between atoms: N_25  and  C_27 
REMARK    7  A    between atoms: C_27  and  C_28 
ROOT
HETATM    1  C   UNL     1       3.414   6.808  24.128  0.00  0.00     0.046 A 
HETATM    2  C   UNL     1       2.970   5.490  23.859  0.00  0.00     0.082 A 
HETATM    3  C   UNL     1       3.348   4.803  22.708  0.00  0.00     0.075 A 
HETATM    4  C   UNL     1       4.206   5.408  21.795  0.00  0.00     0.084 A 
HETATM    5  C   UNL     1       4.261   7.405  23.178  0.00  0.00     0.038 A 
HETATM    6  C   UNL     1       4.682   6.713  22.016  0.00  0.00     0.066 A 
ENDROOT
BRANCH   1   7
HETATM    7  C   UNL     1       3.121   7.345  25.502  0.00  0.00     0.172 A 
HETATM    8  N   UNL     1       2.437   8.476  25.883  0.00  0.00    -0.241 N 
HETATM    9  C   UNL     1       2.375   8.416  27.267  0.00  0.00     0.349 A 
HETATM   10  O   UNL     1       1.964   9.242  28.071  0.00  0.00    -0.245 OA
HETATM   11  N   UNL     1       2.993   7.234  27.619  0.00  0.00    -0.226 N 
HETATM   12  H   UNL     1       3.182   6.935  28.569  0.00  0.00     0.194 HD
HETATM   13  N   UNL     1       3.463   6.594  26.527  0.00  0.00    -0.151 NA
BRANCH   8  14
HETATM   14  C   UNL     1       1.934   9.601  25.207  0.00  0.00     0.084 A 
HETATM   15  C   UNL     1       0.549   9.837  25.182  0.00  0.00     0.143 A 
HETATM   16  F   UNL     1      -0.306   8.894  25.606  0.00  0.00    -0.204 F 
HETATM   17  C   UNL     1       0.017  11.035  24.711  0.00  0.00     0.044 A 
HETATM   18  C   UNL     1       0.870  12.016  24.211  0.00  0.00     0.003 A 
HETATM   19  C   UNL     1       2.246  11.801  24.222  0.00  0.00     0.002 A 
HETATM   20  C   UNL     1       2.774  10.620  24.760  0.00  0.00     0.033 A 
ENDBRANCH   8  14
ENDBRANCH   1   7
BRANCH   2  21
HETATM   21  O   UNL     1       2.171   4.762  24.709  0.00  0.00    -0.360 OA
HETATM   22  H   UNL     1       2.052   3.864  24.331  0.00  0.00     0.217 HD
ENDBRANCH   2  21
BRANCH   6  23
HETATM   23  C   UNL     1       5.901   7.163  21.269  0.00  0.00     0.256 C 
HETATM   24  O   UNL     1       6.958   6.622  21.604  0.00  0.00    -0.267 OA
HETATM   25  N   UNL     1       5.898   8.201  20.328  0.00  0.00    -0.346 N 
HETATM   26  C   UNL     1       7.198   8.625  19.807  0.00  0.00     0.153 C 
BRANCH  25  27
HETATM   27  C   UNL     1       4.736   8.791  19.666  0.00  0.00     0.190 C 
BRANCH  27  28
HETATM   28  C   UNL     1       3.983   7.746  18.922  0.00  0.00     0.070 A 
HETATM   29  O   UNL     1       4.695   6.993  18.030  0.00  0.00    -0.325 OA
HETATM   30  C   UNL     1       3.814   6.147  17.434  0.00  0.00     0.142 A 
HETATM   31  C   UNL     1       2.547   6.342  17.929  0.00  0.00     0.027 A 
HETATM   32  C   UNL     1       2.659   7.357  18.909  0.00  0.00     0.036 A 
ENDBRANCH  27  28
ENDBRANCH  25  27
ENDBRANCH   6  23
BRANCH   4  33
HETATM   33  O   UNL     1       4.593   4.684  20.698  0.00  0.00    -0.360 OA
HETATM   34  H   UNL     1       5.446   4.257  20.895  0.00  0.00     0.217 HD
ENDBRANCH   4  33
TORSDOF 7
ENDMDL
MODEL 9
REMARK VINA RESULT:    -7.304      3.450      7.063
REMARK INTER + INTRA:         -12.041
REMARK INTER:                  -9.867
REMARK INTRA:                  -2.174
REMARK UNBOUND:                -2.174
REMARK  7 active torsions:
REMARK  status: ('A' for Active; 'I' for Inactive)
REMARK    1  A    between atoms: C_7  and  N_8 
REMARK    2  A    between atoms: C_14  and  C_15 
REMARK    3  A    between atoms: C_16  and  O_17 
REMARK    4  A    between atoms: C_19  and  O_20 
REMARK    5  A    between atoms: C_22  and  C_23 
REMARK       I    between atoms: C_23  and  N_25 
REMARK    6  A    between atoms: N_25  and  C_27 
REMARK    7  A    between atoms: C_27  and  C_28 
ROOT
HETATM    1  C   UNL     1       4.054   7.334  20.975  0.00  0.00     0.046 A 
HETATM    2  C   UNL     1       5.435   7.057  20.833  0.00  0.00     0.082 A 
HETATM    3  C   UNL     1       6.196   6.540  21.879  0.00  0.00     0.075 A 
HETATM    4  C   UNL     1       5.591   6.261  23.099  0.00  0.00     0.084 A 
HETATM    5  C   UNL     1       3.471   7.065  22.227  0.00  0.00     0.038 A 
HETATM    6  C   UNL     1       4.221   6.511  23.293  0.00  0.00     0.066 A 
ENDROOT
BRANCH   1   7
HETATM    7  C   UNL     1       3.306   7.671  19.715  0.00  0.00     0.172 A 
HETATM    8  N   UNL     1       2.447   6.902  18.963  0.00  0.00    -0.241 N 
HETATM    9  C   UNL     1       1.964   7.752  17.980  0.00  0.00     0.349 A 
HETATM   10  O   UNL     1       1.257   7.509  17.010  0.00  0.00    -0.245 OA
HETATM   11  N   UNL     1       2.537   8.982  18.231  0.00  0.00    -0.226 N 
HETATM   12  H   UNL     1       2.445   9.799  17.640  0.00  0.00     0.194 HD
HETATM   13  N   UNL     1       3.373   8.914  19.289  0.00  0.00    -0.151 NA
BRANCH   8  14
HETATM   14  C   UNL     1       2.089   5.544  18.953  0.00  0.00     0.084 A 
HETATM   15  C   UNL     1       3.057   4.570  18.654  0.00  0.00     0.143 A 
HETATM   16  F   UNL     1       4.255   4.932  18.172  0.00  0.00    -0.204 F 
HETATM   17  C   UNL     1       2.810   3.210  18.833  0.00  0.00     0.044 A 
HETATM   18  C   UNL     1       1.560   2.792  19.279  0.00  0.00     0.003 A 
HETATM   19  C   UNL     1       0.583   3.740  19.577  0.00  0.00     0.002 A 
HETATM   20  C   UNL     1       0.865   5.107  19.457  0.00  0.00     0.033 A 
ENDBRANCH   8  14
ENDBRANCH   1   7
BRANCH   2  21
HETATM   21  O   UNL     1       6.135   7.231  19.663  0.00  0.00    -0.360 OA
HETATM   22  H   UNL     1       6.047   8.170  19.385  0.00  0.00     0.217 HD
ENDBRANCH   2  21
BRANCH   6  23
HETATM   23  C   UNL     1       3.524   5.823  24.428  0.00  0.00     0.256 C 
HETATM   24  O   UNL     1       3.485   4.592  24.359  0.00  0.00    -0.267 OA
HETATM   25  N   UNL     1       2.856   6.501  25.456  0.00  0.00    -0.346 N 
HETATM   26  C   UNL     1       2.092   5.685  26.400  0.00  0.00     0.153 C 
BRANCH  25  27
HETATM   27  C   UNL     1       2.979   7.915  25.809  0.00  0.00     0.190 C 
BRANCH  27  28
HETATM   28  C   UNL     1       1.642   8.566  25.796  0.00  0.00     0.070 A 
HETATM   29  O   UNL     1       1.084   8.801  24.570  0.00  0.00    -0.325 OA
HETATM   30  C   UNL     1      -0.097   9.439  24.787  0.00  0.00     0.142 A 
HETATM   31  C   UNL     1      -0.307   9.617  26.133  0.00  0.00     0.027 A 
HETATM   32  C   UNL     1       0.802   9.031  26.787  0.00  0.00     0.036 A 
ENDBRANCH  27  28
ENDBRANCH  25  27
ENDBRANCH   6  23
BRANCH   4  33
HETATM   33  O   UNL     1       6.363   5.709  24.089  0.00  0.00    -0.360 OA
HETATM   34  H   UNL     1       7.097   6.319  24.284  0.00  0.00     0.217 HD
ENDBRANCH   4  33
TORSDOF 7
ENDMDL
