MODEL 1
REMARK VINA RESULT:    -8.286      0.000      0.000
REMARK INTER + INTRA:         -12.329
REMARK INTER:                 -11.228
REMARK INTRA:                  -1.101
REMARK UNBOUND:                -1.137
REMARK  7 active torsions:
REMARK  status: ('A' for Active; 'I' for Inactive)
REMARK    1  A    between atoms: O_2  and  C_3 
REMARK    2  A    between atoms: C_6  and  C_7 
REMARK    3  A    between atoms: C_9  and  N_10 
REMARK    4  A    between atoms: C_11  and  C_12 
REMARK       I    between atoms: C_12  and  N_14 
REMARK    5  A    between atoms: N_14  and  C_15 
REMARK    6  A    between atoms: C_25  and  N_26 
REMARK    7  A    between atoms: C_31  and  O_32 
ROOT
HETATM    1  C   UNL     1      -2.080  14.168  22.419  0.00  0.00     0.013 C 
HETATM    2  C   UNL     1      -1.960  12.962  23.207  0.00  0.00     0.035 C 
HETATM    3  C   UNL     1      -0.911  12.301  23.988  0.00  0.00     0.043 C 
HETATM    4  C   UNL     1      -1.199  10.975  24.277  0.00  0.00     0.097 C 
HETATM    5  S   UNL     1      -2.845  10.636  23.950  0.00  0.00    -0.062 SA
HETATM    6  C   UNL     1      -3.105  12.172  23.279  0.00  0.00     0.113 C 
HETATM    7  N   UNL     1      -4.341  12.469  22.843  0.00  0.00    -0.227 NA
HETATM    8  C   UNL     1      -4.459  13.617  22.173  0.00  0.00     0.123 C 
HETATM    9  C   UNL     1      -3.377  14.440  21.871  0.00  0.00     0.096 C 
HETATM   10  C   UNL     1      -3.633  15.536  20.976  0.00  0.00     0.103 C 
HETATM   11  N   UNL     1      -3.868  16.457  20.300  0.00  0.00    -0.191 NA
ENDROOT
BRANCH   1  12
HETATM   12  C   UNL     1      -0.898  15.032  22.130  0.00  0.00    -0.021 C 
HETATM   13  C   UNL     1      -0.809  16.340  22.616  0.00  0.00     0.015 C 
HETATM   14  C   UNL     1       0.234  17.192  22.251  0.00  0.00     0.040 C 
HETATM   15  C   UNL     1       1.347  16.717  21.554  0.00  0.00     0.101 C 
HETATM   16  C   UNL     1       1.340  15.390  21.121  0.00  0.00     0.102 C 
HETATM   17  C   UNL     1       0.172  14.618  21.319  0.00  0.00     0.052 C 
BRANCH  15  18
HETATM   18  O   UNL     1       2.401  17.536  21.255  0.00  0.00    -0.353 OA
HETATM   19  C   UNL     1       2.421  18.072  19.933  0.00  0.00     0.210 C 
ENDBRANCH  15  18
BRANCH  16  20
HETATM   20  O   UNL     1       2.323  14.669  20.503  0.00  0.00    -0.353 OA
HETATM   21  C   UNL     1       3.512  14.283  21.178  0.00  0.00     0.210 C 
ENDBRANCH  16  20
ENDBRANCH   1  12
BRANCH   8  22
HETATM   22  N   UNL     1      -5.751  13.887  21.719  0.00  0.00    -0.286 NA
HETATM   23  H   UNL     1      -6.361  13.122  21.999  0.00  0.00     0.125 HD
HETATM   24  H   UNL     1      -6.116  14.790  22.011  0.00  0.00     0.125 HD
ENDBRANCH   8  22
BRANCH   3  25
HETATM   25  N   UNL     1       0.273  12.870  24.358  0.00  0.00    -0.301 NA
HETATM   26  H   UNL     1       0.265  13.870  24.572  0.00  0.00     0.124 HD
HETATM   27  H   UNL     1       1.068  12.708  23.734  0.00  0.00     0.124 HD
ENDBRANCH   3  25
BRANCH   4  28
HETATM   28  C   UNL     1      -0.380   9.886  24.818  0.00  0.00     0.265 C 
HETATM   29  O   UNL     1       0.491  10.088  25.657  0.00  0.00    -0.267 OA
HETATM   30  N   UNL     1      -0.686   8.631  24.311  0.00  0.00    -0.322 N 
HETATM   31  H   UNL     1      -1.380   8.621  23.572  0.00  0.00     0.169 HD
BRANCH  30  32
HETATM   32  C   UNL     1      -0.117   7.387  24.683  0.00  0.00     0.035 A 
HETATM   33  C   UNL     1      -0.377   6.738  25.895  0.00  0.00     0.032 A 
HETATM   34  C   UNL     1       0.220   5.506  26.190  0.00  0.00     0.044 A 
HETATM   35  C   UNL     1       1.078   4.921  25.275  0.00  0.00     0.116 A 
HETATM   36  F   UNL     1       1.647   3.741  25.557  0.00  0.00    -0.206 F 
HETATM   37  C   UNL     1       1.352   5.544  24.062  0.00  0.00     0.044 A 
HETATM   38  C   UNL     1       0.753   6.774  23.768  0.00  0.00     0.032 A 
ENDBRANCH  30  32
ENDBRANCH   4  28
TORSDOF 7
ENDMDL
MODEL 2
REMARK VINA RESULT:    -8.175      1.699      2.151
REMARK INTER + INTRA:         -12.180
REMARK INTER:                 -10.937
REMARK INTRA:                  -1.243
REMARK UNBOUND:                -1.137
REMARK  7 active torsions:
REMARK  status: ('A' for Active; 'I' for Inactive)
REMARK    1  A    between atoms: O_2  and  C_3 
REMARK    2  A    between atoms: C_6  and  C_7 
REMARK    3  A    between atoms: C_9  and  N_10 
REMARK    4  A    between atoms: C_11  and  C_12 
REMARK       I    between atoms: C_12  and  N_14 
REMARK    5  A    between atoms: N_14  and  C_15 
REMARK    6  A    between atoms: C_25  and  N_26 
REMARK    7  A    between atoms: C_31  and  O_32 
ROOT
HETATM    1  C   UNL     1      -2.080  14.240  22.512  0.00  0.00     0.013 C 
HETATM    2  C   UNL     1      -2.037  13.181  23.494  0.00  0.00     0.035 C 
HETATM    3  C   UNL     1      -1.071  12.677  24.474  0.00  0.00     0.043 C 
HETATM    4  C   UNL     1      -1.383  11.410  24.946  0.00  0.00     0.097 C 
HETATM    5  S   UNL     1      -2.986  10.991  24.517  0.00  0.00    -0.062 SA
HETATM    6  C   UNL     1      -3.182  12.391  23.580  0.00  0.00     0.113 C 
HETATM    7  N   UNL     1      -4.367  12.590  22.980  0.00  0.00    -0.227 NA
HETATM    8  C   UNL     1      -4.419  13.611  22.122  0.00  0.00     0.123 C 
HETATM    9  C   UNL     1      -3.314  14.394  21.799  0.00  0.00     0.096 C 
HETATM   10  C   UNL     1      -3.481  15.324  20.715  0.00  0.00     0.103 C 
HETATM   11  N   UNL     1      -3.648  16.118  19.878  0.00  0.00    -0.191 NA
ENDROOT
BRANCH   1  12
HETATM   12  C   UNL     1      -0.876  15.068  22.204  0.00  0.00    -0.021 C 
HETATM   13  C   UNL     1      -0.767  16.393  22.637  0.00  0.00     0.015 C 
HETATM   14  C   UNL     1       0.297  17.208  22.252  0.00  0.00     0.040 C 
HETATM   15  C   UNL     1       1.410  16.683  21.592  0.00  0.00     0.101 C 
HETATM   16  C   UNL     1       1.382  15.340  21.214  0.00  0.00     0.102 C 
HETATM   17  C   UNL     1       0.196  14.600  21.426  0.00  0.00     0.052 C 
BRANCH  15  18
HETATM   18  O   UNL     1       2.484  17.468  21.275  0.00  0.00    -0.353 OA
HETATM   19  C   UNL     1       2.479  18.037  19.966  0.00  0.00     0.210 C 
ENDBRANCH  15  18
BRANCH  16  20
HETATM   20  O   UNL     1       2.359  14.575  20.641  0.00  0.00    -0.353 OA
HETATM   21  C   UNL     1       3.553  14.235  21.330  0.00  0.00     0.210 C 
ENDBRANCH  16  20
ENDBRANCH   1  12
BRANCH   8  22
HETATM   22  N   UNL     1      -5.659  13.778  21.503  0.00  0.00    -0.286 NA
HETATM   23  H   UNL     1      -6.150  12.886  21.511  0.00  0.00     0.125 HD
HETATM   24  H   UNL     1      -6.224  14.526  21.897  0.00  0.00     0.125 HD
ENDBRANCH   8  22
BRANCH   3  25
HETATM   25  N   UNL     1       0.068  13.321  24.863  0.00  0.00    -0.301 NA
HETATM   26  H   UNL     1       0.468  13.059  25.767  0.00  0.00     0.124 HD
HETATM   27  H   UNL     1       0.041  14.343  24.838  0.00  0.00     0.124 HD
ENDBRANCH   3  25
BRANCH   4  28
HETATM   28  C   UNL     1      -0.621  10.439  25.738  0.00  0.00     0.265 C 
HETATM   29  O   UNL     1       0.603  10.381  25.684  0.00  0.00    -0.267 OA
HETATM   30  N   UNL     1      -1.397   9.619  26.544  0.00  0.00    -0.322 N 
HETATM   31  H   UNL     1      -2.399   9.730  26.435  0.00  0.00     0.169 HD
BRANCH  30  32
HETATM   32  C   UNL     1      -0.948   8.636  27.461  0.00  0.00     0.035 A 
HETATM   33  C   UNL     1      -0.648   7.315  27.109  0.00  0.00     0.032 A 
HETATM   34  C   UNL     1      -0.203   6.401  28.072  0.00  0.00     0.044 A 
HETATM   35  C   UNL     1      -0.058   6.804  29.387  0.00  0.00     0.116 A 
HETATM   36  F   UNL     1       0.369   5.928  30.308  0.00  0.00    -0.206 F 
HETATM   37  C   UNL     1      -0.348   8.111  29.764  0.00  0.00     0.044 A 
HETATM   38  C   UNL     1      -0.791   9.024  28.801  0.00  0.00     0.032 A 
ENDBRANCH  30  32
ENDBRANCH   4  28
TORSDOF 7
ENDMDL
MODEL 3
REMARK VINA RESULT:    -8.143      1.507      1.600
REMARK INTER + INTRA:         -12.136
REMARK INTER:                 -10.972
REMARK INTRA:                  -1.164
REMARK UNBOUND:                -1.137
REMARK  7 active torsions:
REMARK  status: ('A' for Active; 'I' for Inactive)
REMARK    1  A    between atoms: O_2  and  C_3 
REMARK    2  A    between atoms: C_6  and  C_7 
REMARK    3  A    between atoms: C_9  and  N_10 
REMARK    4  A    between atoms: C_11  and  C_12 
REMARK       I    between atoms: C_12  and  N_14 
REMARK    5  A    between atoms: N_14  and  C_15 
REMARK    6  A    between atoms: C_25  and  N_26 
REMARK    7  A    between atoms: C_31  and  O_32 
ROOT
HETATM    1  C   UNL     1      -2.083  14.173  22.428  0.00  0.00     0.013 C 
HETATM    2  C   UNL     1      -1.957  12.963  23.210  0.00  0.00     0.035 C 
HETATM    3  C   UNL     1      -0.904  12.299  23.980  0.00  0.00     0.043 C 
HETATM    4  C   UNL     1      -1.189  10.972  24.266  0.00  0.00     0.097 C 
HETATM    5  S   UNL     1      -2.838  10.635  23.949  0.00  0.00    -0.062 SA
HETATM    6  C   UNL     1      -3.103  12.173  23.287  0.00  0.00     0.113 C 
HETATM    7  N   UNL     1      -4.342  12.473  22.861  0.00  0.00    -0.227 NA
HETATM    8  C   UNL     1      -4.463  13.624  22.196  0.00  0.00     0.123 C 
HETATM    9  C   UNL     1      -3.383  14.448  21.891  0.00  0.00     0.096 C 
HETATM   10  C   UNL     1      -3.646  15.547  21.002  0.00  0.00     0.103 C 
HETATM   11  N   UNL     1      -3.884  16.471  20.332  0.00  0.00    -0.191 NA
ENDROOT
BRANCH   1  12
HETATM   12  C   UNL     1      -0.903  15.038  22.134  0.00  0.00    -0.021 C 
HETATM   13  C   UNL     1      -0.814  16.346  22.617  0.00  0.00     0.015 C 
HETATM   14  C   UNL     1       0.227  17.199  22.247  0.00  0.00     0.040 C 
HETATM   15  C   UNL     1       1.339  16.724  21.549  0.00  0.00     0.101 C 
HETATM   16  C   UNL     1       1.332  15.396  21.120  0.00  0.00     0.102 C 
HETATM   17  C   UNL     1       0.166  14.623  21.322  0.00  0.00     0.052 C 
BRANCH  15  18
HETATM   18  O   UNL     1       2.391  17.543  21.246  0.00  0.00    -0.353 OA
HETATM   19  C   UNL     1       2.387  18.108  19.936  0.00  0.00     0.210 C 
ENDBRANCH  15  18
BRANCH  16  20
HETATM   20  O   UNL     1       2.315  14.675  20.501  0.00  0.00    -0.353 OA
HETATM   21  C   UNL     1       3.515  14.309  21.167  0.00  0.00     0.210 C 
ENDBRANCH  16  20
ENDBRANCH   1  12
BRANCH   8  22
HETATM   22  N   UNL     1      -5.759  13.896  21.753  0.00  0.00    -0.286 NA
HETATM   23  H   UNL     1      -5.822  13.656  20.766  0.00  0.00     0.125 HD
HETATM   24  H   UNL     1      -6.490  13.449  22.300  0.00  0.00     0.125 HD
ENDBRANCH   8  22
BRANCH   3  25
HETATM   25  N   UNL     1       0.284  12.865  24.345  0.00  0.00    -0.301 NA
HETATM   26  H   UNL     1       1.072  12.753  23.702  0.00  0.00     0.124 HD
HETATM   27  H   UNL     1       0.630  12.630  25.279  0.00  0.00     0.124 HD
ENDBRANCH   3  25
BRANCH   4  28
HETATM   28  C   UNL     1      -0.368   9.880  24.796  0.00  0.00     0.265 C 
HETATM   29  O   UNL     1      -0.835   9.021  25.536  0.00  0.00    -0.267 OA
HETATM   30  N   UNL     1       0.956   9.902  24.381  0.00  0.00    -0.322 N 
HETATM   31  H   UNL     1       1.221  10.709  23.827  0.00  0.00     0.169 HD
BRANCH  30  32
HETATM   32  C   UNL     1       1.969   8.953  24.672  0.00  0.00     0.035 A 
HETATM   33  C   UNL     1       2.790   9.006  25.804  0.00  0.00     0.032 A 
HETATM   34  C   UNL     1       3.765   8.027  26.027  0.00  0.00     0.044 A 
HETATM   35  C   UNL     1       3.923   6.994  25.119  0.00  0.00     0.116 A 
HETATM   36  F   UNL     1       4.857   6.056  25.334  0.00  0.00    -0.206 F 
HETATM   37  C   UNL     1       3.119   6.917  23.987  0.00  0.00     0.044 A 
HETATM   38  C   UNL     1       2.142   7.895  23.766  0.00  0.00     0.032 A 
ENDBRANCH  30  32
ENDBRANCH   4  28
TORSDOF 7
ENDMDL
MODEL 4
REMARK VINA RESULT:    -7.798      2.119      2.827
REMARK INTER + INTRA:         -11.671
REMARK INTER:                 -10.907
REMARK INTRA:                  -0.764
REMARK UNBOUND:                -1.137
REMARK  7 active torsions:
REMARK  status: ('A' for Active; 'I' for Inactive)
REMARK    1  A    between atoms: O_2  and  C_3 
REMARK    2  A    between atoms: C_6  and  C_7 
REMARK    3  A    between atoms: C_9  and  N_10 
REMARK    4  A    between atoms: C_11  and  C_12 
REMARK       I    between atoms: C_12  and  N_14 
REMARK    5  A    between atoms: N_14  and  C_15 
REMARK    6  A    between atoms: C_25  and  N_26 
REMARK    7  A    between atoms: C_31  and  O_32 
ROOT
HETATM    1  C   UNL     1      -1.764  13.659  22.307  0.00  0.00     0.013 C 
HETATM    2  C   UNL     1      -1.764  12.773  23.449  0.00  0.00     0.035 C 
HETATM    3  C   UNL     1      -0.772  12.257  24.395  0.00  0.00     0.043 C 
HETATM    4  C   UNL     1      -1.220  11.157  25.111  0.00  0.00     0.097 C 
HETATM    5  S   UNL     1      -2.913  10.978  24.931  0.00  0.00    -0.062 SA
HETATM    6  C   UNL     1      -3.001  12.229  23.791  0.00  0.00     0.113 C 
HETATM    7  N   UNL     1      -4.208  12.547  23.292  0.00  0.00    -0.227 NA
HETATM    8  C   UNL     1      -4.206  13.416  22.280  0.00  0.00     0.123 C 
HETATM    9  C   UNL     1      -3.041  13.925  21.711  0.00  0.00     0.096 C 
HETATM   10  C   UNL     1      -3.197  14.693  20.505  0.00  0.00     0.103 C 
HETATM   11  N   UNL     1      -3.342  15.366  19.564  0.00  0.00    -0.191 NA
ENDROOT
BRANCH   1  12
HETATM   12  C   UNL     1      -0.494  14.195  21.735  0.00  0.00    -0.021 C 
HETATM   13  C   UNL     1       0.559  13.352  21.368  0.00  0.00     0.015 C 
HETATM   14  C   UNL     1       1.791  13.852  20.947  0.00  0.00     0.040 C 
HETATM   15  C   UNL     1       1.964  15.210  20.668  0.00  0.00     0.101 C 
HETATM   16  C   UNL     1       0.908  16.080  20.939  0.00  0.00     0.102 C 
HETATM   17  C   UNL     1      -0.248  15.569  21.571  0.00  0.00     0.052 C 
BRANCH  15  18
HETATM   18  O   UNL     1       3.151  15.691  20.190  0.00  0.00    -0.353 OA
HETATM   19  C   UNL     1       4.296  15.463  21.011  0.00  0.00     0.210 C 
ENDBRANCH  15  18
BRANCH  16  20
HETATM   20  O   UNL     1       0.794  17.419  20.684  0.00  0.00    -0.353 OA
HETATM   21  C   UNL     1      -0.182  17.936  19.792  0.00  0.00     0.210 C 
ENDBRANCH  16  20
ENDBRANCH   1  12
BRANCH   8  22
HETATM   22  N   UNL     1      -5.473  13.711  21.774  0.00  0.00    -0.286 NA
HETATM   23  H   UNL     1      -5.937  12.838  21.531  0.00  0.00     0.125 HD
HETATM   24  H   UNL     1      -6.044  14.286  22.388  0.00  0.00     0.125 HD
ENDBRANCH   8  22
BRANCH   3  25
HETATM   25  N   UNL     1       0.498  12.733  24.544  0.00  0.00    -0.301 NA
HETATM   26  H   UNL     1       0.603  13.671  24.940  0.00  0.00     0.124 HD
HETATM   27  H   UNL     1       1.097  12.696  23.715  0.00  0.00     0.124 HD
ENDBRANCH   3  25
BRANCH   4  28
HETATM   28  C   UNL     1      -0.529  10.196  25.976  0.00  0.00     0.265 C 
HETATM   29  O   UNL     1       0.661   9.935  25.829  0.00  0.00    -0.267 OA
HETATM   30  N   UNL     1      -1.326   9.631  26.961  0.00  0.00    -0.322 N 
HETATM   31  H   UNL     1      -2.306   9.885  26.921  0.00  0.00     0.169 HD
BRANCH  30  32
HETATM   32  C   UNL     1      -0.930   8.726  27.978  0.00  0.00     0.035 A 
HETATM   33  C   UNL     1      -0.591   9.109  29.280  0.00  0.00     0.032 A 
HETATM   34  C   UNL     1      -0.215   8.154  30.233  0.00  0.00     0.044 A 
HETATM   35  C   UNL     1      -0.177   6.815  29.886  0.00  0.00     0.116 A 
HETATM   36  F   UNL     1       0.182   5.901  30.798  0.00  0.00    -0.206 F 
HETATM   37  C   UNL     1      -0.511   6.407  28.599  0.00  0.00     0.044 A 
HETATM   38  C   UNL     1      -0.889   7.362  27.648  0.00  0.00     0.032 A 
ENDBRANCH  30  32
ENDBRANCH   4  28
TORSDOF 7
ENDMDL
MODEL 5
REMARK VINA RESULT:    -7.654      4.201      9.100
REMARK INTER + INTRA:         -11.476
REMARK INTER:                 -10.273
REMARK INTRA:                  -1.204
REMARK UNBOUND:                -1.137
REMARK  7 active torsions:
REMARK  status: ('A' for Active; 'I' for Inactive)
REMARK    1  A    between atoms: O_2  and  C_3 
REMARK    2  A    between atoms: C_6  and  C_7 
REMARK    3  A    between atoms: C_9  and  N_10 
REMARK    4  A    between atoms: C_11  and  C_12 
REMARK       I    between atoms: C_12  and  N_14 
REMARK    5  A    between atoms: N_14  and  C_15 
REMARK    6  A    between atoms: C_25  and  N_26 
REMARK    7  A    between atoms: C_31  and  O_32 
ROOT
HETATM    1  C   UNL     1       0.495   8.689  26.769  0.00  0.00     0.013 C 
HETATM    2  C   UNL     1      -0.587   9.391  26.118  0.00  0.00     0.035 C 
HETATM    3  C   UNL     1      -1.018   9.641  24.740  0.00  0.00     0.043 C 
HETATM    4  C   UNL     1      -1.942  10.669  24.635  0.00  0.00     0.097 C 
HETATM    5  S   UNL     1      -2.565  11.073  26.178  0.00  0.00    -0.062 SA
HETATM    6  C   UNL     1      -1.494  10.022  26.968  0.00  0.00     0.113 C 
HETATM    7  N   UNL     1      -1.575   9.925  28.306  0.00  0.00    -0.227 NA
HETATM    8  C   UNL     1      -0.607   9.221  28.896  0.00  0.00     0.123 C 
HETATM    9  C   UNL     1       0.465   8.666  28.202  0.00  0.00     0.096 C 
HETATM   10  C   UNL     1       1.525   8.108  28.998  0.00  0.00     0.103 C 
HETATM   11  N   UNL     1       2.347   7.602  29.653  0.00  0.00    -0.191 NA
ENDROOT
BRANCH   1  12
HETATM   12  C   UNL     1       1.621   8.095  25.989  0.00  0.00    -0.021 C 
HETATM   13  C   UNL     1       2.815   8.791  25.779  0.00  0.00     0.015 C 
HETATM   14  C   UNL     1       3.822   8.294  24.952  0.00  0.00     0.040 C 
HETATM   15  C   UNL     1       3.779   6.986  24.465  0.00  0.00     0.101 C 
HETATM   16  C   UNL     1       2.640   6.221  24.723  0.00  0.00     0.102 C 
HETATM   17  C   UNL     1       1.547   6.833  25.377  0.00  0.00     0.052 C 
BRANCH  15  18
HETATM   18  O   UNL     1       4.799   6.474  23.711  0.00  0.00    -0.353 OA
HETATM   19  C   UNL     1       5.039   7.120  22.461  0.00  0.00     0.210 C 
ENDBRANCH  15  18
BRANCH  16  20
HETATM   20  O   UNL     1       2.387   4.909  24.434  0.00  0.00    -0.353 OA
HETATM   21  C   UNL     1       1.579   4.522  23.332  0.00  0.00     0.210 C 
ENDBRANCH  16  20
ENDBRANCH   1  12
BRANCH   8  22
HETATM   22  N   UNL     1      -0.710   9.156  30.287  0.00  0.00    -0.286 NA
HETATM   23  H   UNL     1       0.198   9.374  30.690  0.00  0.00     0.125 HD
HETATM   24  H   UNL     1      -1.448   9.735  30.677  0.00  0.00     0.125 HD
ENDBRANCH   8  22
BRANCH   3  25
HETATM   25  N   UNL     1      -0.536   9.001  23.635  0.00  0.00    -0.301 NA
HETATM   26  H   UNL     1      -0.774   8.011  23.527  0.00  0.00     0.124 HD
HETATM   27  H   UNL     1       0.470   9.081  23.467  0.00  0.00     0.124 HD
ENDBRANCH   3  25
BRANCH   4  28
HETATM   28  C   UNL     1      -2.471  11.404  23.481  0.00  0.00     0.265 C 
HETATM   29  O   UNL     1      -2.867  10.826  22.475  0.00  0.00    -0.267 OA
HETATM   30  N   UNL     1      -2.490  12.783  23.638  0.00  0.00    -0.322 N 
HETATM   31  H   UNL     1      -2.067  13.126  24.493  0.00  0.00     0.169 HD
BRANCH  30  32
HETATM   32  C   UNL     1      -2.998  13.747  22.731  0.00  0.00     0.035 A 
HETATM   33  C   UNL     1      -4.358  14.033  22.571  0.00  0.00     0.032 A 
HETATM   34  C   UNL     1      -4.783  15.006  21.657  0.00  0.00     0.044 A 
HETATM   35  C   UNL     1      -3.849  15.694  20.902  0.00  0.00     0.116 A 
HETATM   36  F   UNL     1      -4.257  16.625  20.029  0.00  0.00    -0.206 F 
HETATM   37  C   UNL     1      -2.491  15.431  21.043  0.00  0.00     0.044 A 
HETATM   38  C   UNL     1      -2.067  14.460  21.958  0.00  0.00     0.032 A 
ENDBRANCH  30  32
ENDBRANCH   4  28
TORSDOF 7
ENDMDL
MODEL 6
REMARK VINA RESULT:    -7.635      1.892      2.566
REMARK INTER + INTRA:         -11.450
REMARK INTER:                 -10.301
REMARK INTRA:                  -1.149
REMARK UNBOUND:                -1.137
REMARK  7 active torsions:
REMARK  status: ('A' for Active; 'I' for Inactive)
REMARK    1  A    between atoms: O_2  and  C_3 
REMARK    2  A    between atoms: C_6  and  C_7 
REMARK    3  A    between atoms: C_9  and  N_10 
REMARK    4  A    between atoms: C_11  and  C_12 
REMARK       I    between atoms: C_12  and  N_14 
REMARK    5  A    between atoms: N_14  and  C_15 
REMARK    6  A    between atoms: C_25  and  N_26 
REMARK    7  A    between atoms: C_31  and  O_32 
ROOT
HETATM    1  C   UNL     1      -1.261  15.396  21.936  0.00  0.00     0.013 C 
HETATM    2  C   UNL     1      -1.917  14.462  22.822  0.00  0.00     0.035 C 
HETATM    3  C   UNL     1      -1.524  13.600  23.940  0.00  0.00     0.043 C 
HETATM    4  C   UNL     1      -2.469  12.630  24.240  0.00  0.00     0.097 C 
HETATM    5  S   UNL     1      -3.951  12.977  23.456  0.00  0.00    -0.062 SA
HETATM    6  C   UNL     1      -3.283  14.285  22.609  0.00  0.00     0.113 C 
HETATM    7  N   UNL     1      -4.087  14.987  21.793  0.00  0.00    -0.227 NA
HETATM    8  C   UNL     1      -3.483  15.895  21.023  0.00  0.00     0.123 C 
HETATM    9  C   UNL     1      -2.103  16.078  20.997  0.00  0.00     0.096 C 
HETATM   10  C   UNL     1      -1.589  16.950  19.976  0.00  0.00     0.103 C 
HETATM   11  N   UNL     1      -1.192  17.709  19.185  0.00  0.00    -0.191 NA
ENDROOT
BRANCH   1  12
HETATM   12  C   UNL     1       0.222  15.574  21.948  0.00  0.00    -0.021 C 
HETATM   13  C   UNL     1       0.838  16.534  22.756  0.00  0.00     0.015 C 
HETATM   14  C   UNL     1       2.208  16.787  22.685  0.00  0.00     0.040 C 
HETATM   15  C   UNL     1       3.062  15.953  21.959  0.00  0.00     0.101 C 
HETATM   16  C   UNL     1       2.497  14.926  21.203  0.00  0.00     0.102 C 
HETATM   17  C   UNL     1       1.088  14.836  21.126  0.00  0.00     0.052 C 
BRANCH  15  18
HETATM   18  O   UNL     1       4.413  16.160  21.943  0.00  0.00    -0.353 OA
HETATM   19  C   UNL     1       5.207  15.166  22.589  0.00  0.00     0.210 C 
ENDBRANCH  15  18
BRANCH  16  20
HETATM   20  O   UNL     1       3.106  13.937  20.482  0.00  0.00    -0.353 OA
HETATM   21  C   UNL     1       2.413  13.184  19.498  0.00  0.00     0.210 C 
ENDBRANCH  16  20
ENDBRANCH   1  12
BRANCH   8  22
HETATM   22  N   UNL     1      -4.344  16.593  20.174  0.00  0.00    -0.286 NA
HETATM   23  H   UNL     1      -4.488  17.526  20.554  0.00  0.00     0.125 HD
HETATM   24  H   UNL     1      -4.042  16.620  19.204  0.00  0.00     0.125 HD
ENDBRANCH   8  22
BRANCH   3  25
HETATM   25  N   UNL     1      -0.334  13.663  24.604  0.00  0.00    -0.301 NA
HETATM   26  H   UNL     1      -0.144  12.932  25.295  0.00  0.00     0.124 HD
HETATM   27  H   UNL     1      -0.112  14.556  25.053  0.00  0.00     0.124 HD
ENDBRANCH   3  25
BRANCH   4  28
HETATM   28  C   UNL     1      -2.422  11.440  25.095  0.00  0.00     0.265 C 
HETATM   29  O   UNL     1      -3.417  11.025  25.680  0.00  0.00    -0.267 OA
HETATM   30  N   UNL     1      -1.175  10.835  25.171  0.00  0.00    -0.322 N 
HETATM   31  H   UNL     1      -0.427  11.326  24.693  0.00  0.00     0.169 HD
BRANCH  30  32
HETATM   32  C   UNL     1      -0.834   9.645  25.861  0.00  0.00     0.035 A 
HETATM   33  C   UNL     1      -0.757   9.541  27.254  0.00  0.00     0.032 A 
HETATM   34  C   UNL     1      -0.418   8.327  27.864  0.00  0.00     0.044 A 
HETATM   35  C   UNL     1      -0.156   7.215  27.084  0.00  0.00     0.116 A 
HETATM   36  F   UNL     1       0.167   6.053  27.669  0.00  0.00    -0.206 F 
HETATM   37  C   UNL     1      -0.227   7.290  25.697  0.00  0.00     0.044 A 
HETATM   38  C   UNL     1      -0.568   8.503  25.088  0.00  0.00     0.032 A 
ENDBRANCH  30  32
ENDBRANCH   4  28
TORSDOF 7
ENDMDL
MODEL 7
REMARK VINA RESULT:    -7.345      2.862      3.713
REMARK INTER + INTRA:         -11.059
REMARK INTER:                  -9.870
REMARK INTRA:                  -1.189
REMARK UNBOUND:                -1.137
REMARK  7 active torsions:
REMARK  status: ('A' for Active; 'I' for Inactive)
REMARK    1  A    between atoms: O_2  and  C_3 
REMARK    2  A    between atoms: C_6  and  C_7 
REMARK    3  A    between atoms: C_9  and  N_10 
REMARK    4  A    between atoms: C_11  and  C_12 
REMARK       I    between atoms: C_12  and  N_14 
REMARK    5  A    between atoms: N_14  and  C_15 
REMARK    6  A    between atoms: C_25  and  N_26 
REMARK    7  A    between atoms: C_31  and  O_32 
ROOT
HETATM    1  C   UNL     1      -1.515  12.974  22.880  0.00  0.00     0.013 C 
HETATM    2  C   UNL     1      -1.356  12.336  24.167  0.00  0.00     0.035 C 
HETATM    3  C   UNL     1      -0.316  11.565  24.852  0.00  0.00     0.043 C 
HETATM    4  C   UNL     1      -0.786  10.878  25.961  0.00  0.00     0.097 C 
HETATM    5  S   UNL     1      -2.344  11.439  26.395  0.00  0.00    -0.062 SA
HETATM    6  C   UNL     1      -2.445  12.440  25.030  0.00  0.00     0.113 C 
HETATM    7  N   UNL     1      -3.551  13.188  24.876  0.00  0.00    -0.227 NA
HETATM    8  C   UNL     1      -3.660  13.827  23.710  0.00  0.00     0.123 C 
HETATM    9  C   UNL     1      -2.738  13.694  22.675  0.00  0.00     0.096 C 
HETATM   10  C   UNL     1      -3.095  14.286  21.415  0.00  0.00     0.103 C 
HETATM   11  N   UNL     1      -3.367  14.825  20.418  0.00  0.00    -0.191 NA
ENDROOT
BRANCH   1  12
HETATM   12  C   UNL     1      -0.495  12.817  21.801  0.00  0.00    -0.021 C 
HETATM   13  C   UNL     1      -0.619  11.837  20.812  0.00  0.00     0.015 C 
HETATM   14  C   UNL     1       0.387  11.607  19.873  0.00  0.00     0.040 C 
HETATM   15  C   UNL     1       1.469  12.480  19.742  0.00  0.00     0.101 C 
HETATM   16  C   UNL     1       1.588  13.527  20.657  0.00  0.00     0.102 C 
HETATM   17  C   UNL     1       0.670  13.599  21.729  0.00  0.00     0.052 C 
BRANCH  15  18
HETATM   18  O   UNL     1       2.420  12.294  18.777  0.00  0.00    -0.353 OA
HETATM   19  C   UNL     1       2.046  11.459  17.682  0.00  0.00     0.210 C 
ENDBRANCH  15  18
BRANCH  16  20
HETATM   20  O   UNL     1       2.493  14.551  20.698  0.00  0.00    -0.353 OA
HETATM   21  C   UNL     1       3.726  14.441  21.393  0.00  0.00     0.210 C 
ENDBRANCH  16  20
ENDBRANCH   1  12
BRANCH   8  22
HETATM   22  N   UNL     1      -4.828  14.580  23.575  0.00  0.00    -0.286 NA
HETATM   23  H   UNL     1      -4.644  15.355  22.940  0.00  0.00     0.125 HD
HETATM   24  H   UNL     1      -5.641  14.041  23.289  0.00  0.00     0.125 HD
ENDBRANCH   8  22
BRANCH   3  25
HETATM   25  N   UNL     1       0.980  11.449  24.440  0.00  0.00    -0.301 NA
HETATM   26  H   UNL     1       1.185  11.689  23.467  0.00  0.00     0.124 HD
HETATM   27  H   UNL     1       1.436  10.551  24.624  0.00  0.00     0.124 HD
ENDBRANCH   3  25
BRANCH   4  28
HETATM   28  C   UNL     1      -0.188   9.832  26.798  0.00  0.00     0.265 C 
HETATM   29  O   UNL     1       0.967   9.454  26.632  0.00  0.00    -0.267 OA
HETATM   30  N   UNL     1      -1.030   9.332  27.781  0.00  0.00    -0.322 N 
HETATM   31  H   UNL     1      -1.980   9.686  27.758  0.00  0.00     0.169 HD
BRANCH  30  32
HETATM   32  C   UNL     1      -0.721   8.369  28.775  0.00  0.00     0.035 A 
HETATM   33  C   UNL     1      -0.623   6.995  28.530  0.00  0.00     0.032 A 
HETATM   34  C   UNL     1      -0.306   6.104  29.564  0.00  0.00     0.044 A 
HETATM   35  C   UNL     1      -0.087   6.585  30.843  0.00  0.00     0.116 A 
HETATM   36  F   UNL     1       0.217   5.733  31.831  0.00  0.00    -0.206 F 
HETATM   37  C   UNL     1      -0.176   7.947  31.112  0.00  0.00     0.044 A 
HETATM   38  C   UNL     1      -0.490   8.836  30.078  0.00  0.00     0.032 A 
ENDBRANCH  30  32
ENDBRANCH   4  28
TORSDOF 7
ENDMDL
MODEL 8
REMARK VINA RESULT:    -7.328      2.044      2.504
REMARK INTER + INTRA:         -11.035
REMARK INTER:                 -10.101
REMARK INTRA:                  -0.934
REMARK UNBOUND:                -1.137
REMARK  7 active torsions:
REMARK  status: ('A' for Active; 'I' for Inactive)
REMARK    1  A    between atoms: O_2  and  C_3 
REMARK    2  A    between atoms: C_6  and  C_7 
REMARK    3  A    between atoms: C_9  and  N_10 
REMARK    4  A    between atoms: C_11  and  C_12 
REMARK       I    between atoms: C_12  and  N_14 
REMARK    5  A    between atoms: N_14  and  C_15 
REMARK    6  A    between atoms: C_25  and  N_26 
REMARK    7  A    between atoms: C_31  and  O_32 
ROOT
HETATM    1  C   UNL     1      -1.667  12.838  23.298  0.00  0.00     0.013 C 
HETATM    2  C   UNL     1      -0.961  11.768  23.965  0.00  0.00     0.035 C 
HETATM    3  C   UNL     1       0.419  11.499  24.379  0.00  0.00     0.043 C 
HETATM    4  C   UNL     1       0.647  10.166  24.684  0.00  0.00     0.097 C 
HETATM    5  S   UNL     1      -0.836   9.325  24.837  0.00  0.00    -0.062 SA
HETATM    6  C   UNL     1      -1.737  10.671  24.336  0.00  0.00     0.113 C 
HETATM    7  N   UNL     1      -3.075  10.556  24.291  0.00  0.00    -0.227 NA
HETATM    8  C   UNL     1      -3.727  11.578  23.732  0.00  0.00     0.123 C 
HETATM    9  C   UNL     1      -3.085  12.674  23.163  0.00  0.00     0.096 C 
HETATM   10  C   UNL     1      -3.912  13.592  22.427  0.00  0.00     0.103 C 
HETATM   11  N   UNL     1      -4.602  14.362  21.888  0.00  0.00    -0.191 NA
ENDROOT
BRANCH   1  12
HETATM   12  C   UNL     1      -0.943  14.005  22.713  0.00  0.00    -0.021 C 
HETATM   13  C   UNL     1      -1.219  15.315  23.113  0.00  0.00     0.015 C 
HETATM   14  C   UNL     1      -0.634  16.416  22.487  0.00  0.00     0.040 C 
HETATM   15  C   UNL     1       0.412  16.259  21.575  0.00  0.00     0.101 C 
HETATM   16  C   UNL     1       0.780  14.964  21.208  0.00  0.00     0.102 C 
HETATM   17  C   UNL     1       0.019  13.878  21.697  0.00  0.00     0.052 C 
BRANCH  15  18
HETATM   18  O   UNL     1       1.032  17.340  21.011  0.00  0.00    -0.353 OA
HETATM   19  C   UNL     1       0.545  17.745  19.733  0.00  0.00     0.210 C 
ENDBRANCH  15  18
BRANCH  16  20
HETATM   20  O   UNL     1       1.808  14.542  20.412  0.00  0.00    -0.353 OA
HETATM   21  C   UNL     1       3.113  14.314  20.923  0.00  0.00     0.210 C 
ENDBRANCH  16  20
ENDBRANCH   1  12
BRANCH   8  22
HETATM   22  N   UNL     1      -5.113  11.418  23.686  0.00  0.00    -0.286 NA
HETATM   23  H   UNL     1      -5.340  10.765  22.939  0.00  0.00     0.125 HD
HETATM   24  H   UNL     1      -5.531  11.142  24.570  0.00  0.00     0.125 HD
ENDBRANCH   8  22
BRANCH   3  25
HETATM   25  N   UNL     1       1.426  12.419  24.412  0.00  0.00    -0.301 NA
HETATM   26  H   UNL     1       1.160  13.401  24.525  0.00  0.00     0.124 HD
HETATM   27  H   UNL     1       2.098  12.384  23.640  0.00  0.00     0.124 HD
ENDBRANCH   3  25
BRANCH   4  28
HETATM   28  C   UNL     1       1.880   9.406  24.918  0.00  0.00     0.265 C 
HETATM   29  O   UNL     1       2.715   9.768  25.740  0.00  0.00    -0.267 OA
HETATM   30  N   UNL     1       2.003   8.259  24.147  0.00  0.00    -0.322 N 
HETATM   31  H   UNL     1       1.271   8.120  23.459  0.00  0.00     0.169 HD
BRANCH  30  32
HETATM   32  C   UNL     1       3.042   7.295  24.193  0.00  0.00     0.035 A 
HETATM   33  C   UNL     1       3.264   6.433  25.272  0.00  0.00     0.032 A 
HETATM   34  C   UNL     1       4.309   5.502  25.241  0.00  0.00     0.044 A 
HETATM   35  C   UNL     1       5.135   5.431  24.133  0.00  0.00     0.116 A 
HETATM   36  F   UNL     1       6.134   4.539  24.103  0.00  0.00    -0.206 F 
HETATM   37  C   UNL     1       4.935   6.275  23.046  0.00  0.00     0.044 A 
HETATM   38  C   UNL     1       3.888   7.204  23.077  0.00  0.00     0.032 A 
ENDBRANCH  30  32
ENDBRANCH   4  28
TORSDOF 7
ENDMDL
MODEL 9
REMARK VINA RESULT:    -7.239      1.431      2.226
REMARK INTER + INTRA:         -10.916
REMARK INTER:                  -9.779
REMARK INTRA:                  -1.137
REMARK UNBOUND:                -1.137
REMARK  7 active torsions:
REMARK  status: ('A' for Active; 'I' for Inactive)
REMARK    1  A    between atoms: O_2  and  C_3 
REMARK    2  A    between atoms: C_6  and  C_7 
REMARK    3  A    between atoms: C_9  and  N_10 
REMARK    4  A    between atoms: C_11  and  C_12 
REMARK       I    between atoms: C_12  and  N_14 
REMARK    5  A    between atoms: N_14  and  C_15 
REMARK    6  A    between atoms: C_25  and  N_26 
REMARK    7  A    between atoms: C_31  and  O_32 
ROOT
HETATM    1  C   UNL     1      -0.748  14.096  22.118  0.00  0.00     0.013 C 
HETATM    2  C   UNL     1      -0.983  12.941  22.953  0.00  0.00     0.035 C 
HETATM    3  C   UNL     1      -0.164  11.989  23.708  0.00  0.00     0.043 C 
HETATM    4  C   UNL     1      -0.855  10.843  24.073  0.00  0.00     0.097 C 
HETATM    5  S   UNL     1      -2.537  11.063  23.848  0.00  0.00    -0.062 SA
HETATM    6  C   UNL     1      -2.318  12.579  23.121  0.00  0.00     0.113 C 
HETATM    7  N   UNL     1      -3.411  13.259  22.736  0.00  0.00    -0.227 NA
HETATM    8  C   UNL     1      -3.185  14.363  22.020  0.00  0.00     0.123 C 
HETATM    9  C   UNL     1      -1.914  14.770  21.625  0.00  0.00     0.096 C 
HETATM   10  C   UNL     1      -1.850  15.864  20.694  0.00  0.00     0.103 C 
HETATM   11  N   UNL     1      -1.810  16.793  19.990  0.00  0.00    -0.191 NA
ENDROOT
BRANCH   1  12
HETATM   12  C   UNL     1       0.632  14.510  21.727  0.00  0.00    -0.021 C 
HETATM   13  C   UNL     1       1.432  13.710  20.906  0.00  0.00     0.015 C 
HETATM   14  C   UNL     1       2.763  14.032  20.636  0.00  0.00     0.040 C 
HETATM   15  C   UNL     1       3.296  15.271  20.996  0.00  0.00     0.101 C 
HETATM   16  C   UNL     1       2.502  16.139  21.746  0.00  0.00     0.102 C 
HETATM   17  C   UNL     1       1.237  15.691  22.189  0.00  0.00     0.052 C 
BRANCH  15  18
HETATM   18  O   UNL     1       4.580  15.613  20.672  0.00  0.00    -0.353 OA
HETATM   19  C   UNL     1       5.605  15.044  21.485  0.00  0.00     0.210 C 
ENDBRANCH  15  18
BRANCH  16  20
HETATM   20  O   UNL     1       2.753  17.421  22.150  0.00  0.00    -0.353 OA
HETATM   21  C   UNL     1       1.806  18.178  22.890  0.00  0.00     0.210 C 
ENDBRANCH  16  20
ENDBRANCH   1  12
BRANCH   8  22
HETATM   22  N   UNL     1      -4.342  15.035  21.621  0.00  0.00    -0.286 NA
HETATM   23  H   UNL     1      -4.541  15.769  22.298  0.00  0.00     0.125 HD
HETATM   24  H   UNL     1      -4.309  15.395  20.671  0.00  0.00     0.125 HD
ENDBRANCH   8  22
BRANCH   3  25
HETATM   25  N   UNL     1       1.163  12.141  23.990  0.00  0.00    -0.301 NA
HETATM   26  H   UNL     1       1.640  12.946  23.577  0.00  0.00     0.124 HD
HETATM   27  H   UNL     1       1.758  11.326  23.819  0.00  0.00     0.124 HD
ENDBRANCH   3  25
BRANCH   4  28
HETATM   28  C   UNL     1      -0.410   9.558  24.621  0.00  0.00     0.265 C 
HETATM   29  O   UNL     1      -0.835   9.129  25.689  0.00  0.00    -0.267 OA
HETATM   30  N   UNL     1       0.507   8.882  23.829  0.00  0.00    -0.322 N 
HETATM   31  H   UNL     1       0.823   9.386  23.007  0.00  0.00     0.169 HD
BRANCH  30  32
HETATM   32  C   UNL     1       1.067   7.600  24.059  0.00  0.00     0.035 A 
HETATM   33  C   UNL     1       0.447   6.398  23.699  0.00  0.00     0.032 A 
HETATM   34  C   UNL     1       1.067   5.168  23.954  0.00  0.00     0.044 A 
HETATM   35  C   UNL     1       2.306   5.137  24.570  0.00  0.00     0.116 A 
HETATM   36  F   UNL     1       2.899   3.960  24.813  0.00  0.00    -0.206 F 
HETATM   37  C   UNL     1       2.945   6.317  24.936  0.00  0.00     0.044 A 
HETATM   38  C   UNL     1       2.326   7.546  24.678  0.00  0.00     0.032 A 
ENDBRANCH  30  32
ENDBRANCH   4  28
TORSDOF 7
ENDMDL
