MODEL 1
REMARK VINA RESULT:    -8.456      0.000      0.000
REMARK INTER + INTRA:         -12.011
REMARK INTER:                 -10.903
REMARK INTRA:                  -1.109
REMARK UNBOUND:                -0.836
REMARK  6 active torsions:
REMARK  status: ('A' for Active; 'I' for Inactive)
REMARK    1  A    between atoms: N_6  and  C_7 
REMARK    2  A    between atoms: C_12  and  N_13 
REMARK       I    between atoms: N_13  and  C_15 
REMARK    3  A    between atoms: C_15  and  C_17 
REMARK    4  A    between atoms: C_19  and  O_20 
REMARK    5  A    between atoms: C_27  and  C_28 
REMARK    6  A    between atoms: C_28  and  C_29 
ROOT
HETATM    1  C   UNL     1       4.406   7.526  22.807  0.00  0.00     0.066 C 
HETATM    2  C   UNL     1       3.913   8.116  21.623  0.00  0.00     0.035 C 
HETATM    3  C   UNL     1       5.574   6.744  22.714  0.00  0.00     0.083 C 
HETATM    4  C   UNL     1       6.194   6.466  21.488  0.00  0.00     0.069 C 
HETATM    5  C   UNL     1       5.551   6.929  20.336  0.00  0.00     0.065 A 
HETATM    6  C   UNL     1       4.400   7.711  20.364  0.00  0.00     0.020 A 
HETATM    7  N   UNL     1       5.844   6.778  19.010  0.00  0.00    -0.277 N 
HETATM    8  H   UNL     1       6.650   6.317  18.605  0.00  0.00     0.189 HD
HETATM    9  N   UNL     1       4.915   7.280  18.181  0.00  0.00    -0.178 NA
HETATM   10  C   UNL     1       4.000   7.840  18.996  0.00  0.00     0.071 A 
ENDROOT
BRANCH   1  11
HETATM   11  C   UNL     1       3.719   7.667  24.160  0.00  0.00     0.260 C 
HETATM   12  N   UNL     1       2.907   6.623  24.694  0.00  0.00    -0.318 N 
HETATM   13  C   UNL     1       2.754   5.339  23.989  0.00  0.00     0.159 C 
HETATM   14  O   UNL     1       3.982   8.716  24.737  0.00  0.00    -0.267 OA
BRANCH  12  15
HETATM   15  C   UNL     1       2.290   6.680  26.018  0.00  0.00     0.037 C 
HETATM   16  C   UNL     1       2.975   6.192  27.151  0.00  0.00     0.032 C 
HETATM   17  C   UNL     1       2.526   6.413  28.466  0.00  0.00     0.031 C 
HETATM   18  C   UNL     1       1.342   7.089  28.734  0.00  0.00     0.030 C 
HETATM   19  C   UNL     1       0.588   7.437  27.605  0.00  0.00     0.031 C 
HETATM   20  C   UNL     1       1.046   7.241  26.282  0.00  0.00     0.032 C 
BRANCH  18  21
HETATM   21  N   UNL     1       0.921   7.367  30.015  0.00  0.00    -0.377 N 
HETATM   22  C   UNL     1       0.813   8.720  30.584  0.00  0.00     0.149 C 
HETATM   23  C   UNL     1       1.438   8.710  31.993  0.00  0.00     0.187 C 
HETATM   24  O   UNL     1       0.852   7.706  32.843  0.00  0.00    -0.388 OA
HETATM   25  C   UNL     1       0.988   6.400  32.249  0.00  0.00     0.187 C 
HETATM   26  C   UNL     1       0.302   6.348  30.878  0.00  0.00     0.149 C 
ENDBRANCH  18  21
ENDBRANCH  12  15
ENDBRANCH   1  11
BRANCH   3  27
HETATM   27  O   UNL     1       6.202   6.193  23.806  0.00  0.00    -0.360 OA
HETATM   28  H   UNL     1       5.568   5.578  24.239  0.00  0.00     0.217 HD
ENDBRANCH   3  27
BRANCH  10  29
HETATM   29  C   UNL     1       2.768   8.465  18.386  0.00  0.00     0.100 C 
BRANCH  29  30
HETATM   30  C   UNL     1       1.882   7.433  17.689  0.00  0.00    -0.052 A 
HETATM   31  C   UNL     1       1.619   7.455  16.311  0.00  0.00     0.007 A 
HETATM   32  C   UNL     1       0.799   6.494  15.713  0.00  0.00     0.001 A 
HETATM   33  C   UNL     1       0.148   5.540  16.490  0.00  0.00     0.007 A 
HETATM   34  C   UNL     1       0.280   5.560  17.880  0.00  0.00    -0.061 A 
HETATM   35  C   UNL     1       1.176   6.480  18.465  0.00  0.00     0.014 A 
HETATM   36  C   UNL     1      -0.543   4.604  18.699  0.00  0.00     0.048 C 
ENDBRANCH  29  30
ENDBRANCH  10  29
TORSDOF 6
ENDMDL
MODEL 2
REMARK VINA RESULT:    -8.436      0.830      1.043
REMARK INTER + INTRA:         -11.985
REMARK INTER:                 -11.096
REMARK INTRA:                  -0.888
REMARK UNBOUND:                -0.836
REMARK  6 active torsions:
REMARK  status: ('A' for Active; 'I' for Inactive)
REMARK    1  A    between atoms: N_6  and  C_7 
REMARK    2  A    between atoms: C_12  and  N_13 
REMARK       I    between atoms: N_13  and  C_15 
REMARK    3  A    between atoms: C_15  and  C_17 
REMARK    4  A    between atoms: C_19  and  O_20 
REMARK    5  A    between atoms: C_27  and  C_28 
REMARK    6  A    between atoms: C_28  and  C_29 
ROOT
HETATM    1  C   UNL     1       4.400   7.032  22.803  0.00  0.00     0.066 C 
HETATM    2  C   UNL     1       3.804   7.747  21.742  0.00  0.00     0.035 C 
HETATM    3  C   UNL     1       5.678   6.478  22.585  0.00  0.00     0.083 C 
HETATM    4  C   UNL     1       6.318   6.538  21.340  0.00  0.00     0.069 C 
HETATM    5  C   UNL     1       5.594   7.099  20.284  0.00  0.00     0.065 A 
HETATM    6  C   UNL     1       4.333   7.668  20.438  0.00  0.00     0.020 A 
HETATM    7  N   UNL     1       5.889   7.247  18.958  0.00  0.00    -0.277 N 
HETATM    8  H   UNL     1       6.754   7.005  18.488  0.00  0.00     0.189 HD
HETATM    9  N   UNL     1       4.881   7.740  18.222  0.00  0.00    -0.178 NA
HETATM   10  C   UNL     1       3.899   7.984  19.110  0.00  0.00     0.071 A 
ENDROOT
BRANCH   1  11
HETATM   11  C   UNL     1       3.718   6.806  24.147  0.00  0.00     0.260 C 
HETATM   12  N   UNL     1       3.378   7.897  25.001  0.00  0.00    -0.318 N 
HETATM   13  C   UNL     1       3.614   9.291  24.589  0.00  0.00     0.159 C 
HETATM   14  O   UNL     1       3.454   5.631  24.371  0.00  0.00    -0.267 OA
BRANCH  12  15
HETATM   15  C   UNL     1       2.657   7.738  26.262  0.00  0.00     0.037 C 
HETATM   16  C   UNL     1       3.169   6.910  27.283  0.00  0.00     0.032 C 
HETATM   17  C   UNL     1       2.636   6.886  28.584  0.00  0.00     0.031 C 
HETATM   18  C   UNL     1       1.528   7.647  28.938  0.00  0.00     0.030 C 
HETATM   19  C   UNL     1       0.929   8.349  27.883  0.00  0.00     0.031 C 
HETATM   20  C   UNL     1       1.475   8.398  26.580  0.00  0.00     0.032 C 
BRANCH  18  21
HETATM   21  N   UNL     1       1.032   7.681  30.221  0.00  0.00    -0.377 N 
HETATM   22  C   UNL     1       0.937   8.896  31.049  0.00  0.00     0.149 C 
HETATM   23  C   UNL     1       1.465   8.570  32.460  0.00  0.00     0.187 C 
HETATM   24  O   UNL     1       0.785   7.446  33.050  0.00  0.00    -0.388 OA
HETATM   25  C   UNL     1       0.910   6.282  32.211  0.00  0.00     0.187 C 
HETATM   26  C   UNL     1       0.317   6.542  30.820  0.00  0.00     0.149 C 
ENDBRANCH  18  21
ENDBRANCH  12  15
ENDBRANCH   1  11
BRANCH   3  27
HETATM   27  O   UNL     1       6.400   5.841  23.566  0.00  0.00    -0.360 OA
HETATM   28  H   UNL     1       6.287   4.871  23.440  0.00  0.00     0.217 HD
ENDBRANCH   3  27
BRANCH  10  29
HETATM   29  C   UNL     1       2.574   8.507  18.608  0.00  0.00     0.100 C 
BRANCH  29  30
HETATM   30  C   UNL     1       1.819   7.465  17.783  0.00  0.00    -0.052 A 
HETATM   31  C   UNL     1       1.757   7.495  16.382  0.00  0.00     0.007 A 
HETATM   32  C   UNL     1       1.050   6.525  15.666  0.00  0.00     0.001 A 
HETATM   33  C   UNL     1       0.312   5.553  16.334  0.00  0.00     0.007 A 
HETATM   34  C   UNL     1       0.242   5.562  17.729  0.00  0.00    -0.061 A 
HETATM   35  C   UNL     1       1.026   6.492  18.443  0.00  0.00     0.014 A 
HETATM   36  C   UNL     1      -0.671   4.583  18.414  0.00  0.00     0.048 C 
ENDBRANCH  29  30
ENDBRANCH  10  29
TORSDOF 6
ENDMDL
MODEL 3
REMARK VINA RESULT:    -8.158      0.465      1.164
REMARK INTER + INTRA:         -11.617
REMARK INTER:                 -10.564
REMARK INTRA:                  -1.054
REMARK UNBOUND:                -0.836
REMARK  6 active torsions:
REMARK  status: ('A' for Active; 'I' for Inactive)
REMARK    1  A    between atoms: N_6  and  C_7 
REMARK    2  A    between atoms: C_12  and  N_13 
REMARK       I    between atoms: N_13  and  C_15 
REMARK    3  A    between atoms: C_15  and  C_17 
REMARK    4  A    between atoms: C_19  and  O_20 
REMARK    5  A    between atoms: C_27  and  C_28 
REMARK    6  A    between atoms: C_28  and  C_29 
ROOT
HETATM    1  C   UNL     1       4.237   7.429  22.673  0.00  0.00     0.066 C 
HETATM    2  C   UNL     1       3.711   7.962  21.476  0.00  0.00     0.035 C 
HETATM    3  C   UNL     1       5.419   6.667  22.589  0.00  0.00     0.083 C 
HETATM    4  C   UNL     1       6.023   6.352  21.363  0.00  0.00     0.069 C 
HETATM    5  C   UNL     1       5.350   6.756  20.206  0.00  0.00     0.065 A 
HETATM    6  C   UNL     1       4.184   7.517  20.225  0.00  0.00     0.020 A 
HETATM    7  N   UNL     1       5.622   6.558  18.882  0.00  0.00    -0.277 N 
HETATM    8  H   UNL     1       6.430   6.097  18.481  0.00  0.00     0.189 HD
HETATM    9  N   UNL     1       4.668   7.009  18.051  0.00  0.00    -0.178 NA
HETATM   10  C   UNL     1       3.757   7.582  18.860  0.00  0.00     0.071 A 
ENDROOT
BRANCH   1  11
HETATM   11  C   UNL     1       3.572   7.611  24.032  0.00  0.00     0.260 C 
HETATM   12  N   UNL     1       2.793   6.572  24.623  0.00  0.00    -0.318 N 
HETATM   13  C   UNL     1       2.656   5.257  23.973  0.00  0.00     0.159 C 
HETATM   14  O   UNL     1       3.822   8.687  24.560  0.00  0.00    -0.267 OA
BRANCH  12  15
HETATM   15  C   UNL     1       2.199   6.669  25.954  0.00  0.00     0.037 C 
HETATM   16  C   UNL     1       2.796   6.022  27.056  0.00  0.00     0.032 C 
HETATM   17  C   UNL     1       2.395   6.253  28.385  0.00  0.00     0.031 C 
HETATM   18  C   UNL     1       1.342   7.105  28.697  0.00  0.00     0.030 C 
HETATM   19  C   UNL     1       0.653   7.625  27.593  0.00  0.00     0.031 C 
HETATM   20  C   UNL     1       1.067   7.418  26.257  0.00  0.00     0.032 C 
BRANCH  18  21
HETATM   21  N   UNL     1       0.978   7.389  29.993  0.00  0.00    -0.377 N 
HETATM   22  C   UNL     1       0.890   8.746  30.559  0.00  0.00     0.149 C 
HETATM   23  C   UNL     1       1.578   8.747  31.938  0.00  0.00     0.187 C 
HETATM   24  O   UNL     1       1.035   7.745  32.819  0.00  0.00    -0.388 OA
HETATM   25  C   UNL     1       1.148   6.437  32.228  0.00  0.00     0.187 C 
HETATM   26  C   UNL     1       0.402   6.373  30.890  0.00  0.00     0.149 C 
ENDBRANCH  18  21
ENDBRANCH  12  15
ENDBRANCH   1  11
BRANCH   3  27
HETATM   27  O   UNL     1       6.077   6.172  23.690  0.00  0.00    -0.360 OA
HETATM   28  H   UNL     1       7.032   6.388  23.591  0.00  0.00     0.217 HD
ENDBRANCH   3  27
BRANCH  10  29
HETATM   29  C   UNL     1       2.502   8.159  18.249  0.00  0.00     0.100 C 
BRANCH  29  30
HETATM   30  C   UNL     1       1.541   7.071  17.771  0.00  0.00    -0.052 A 
HETATM   31  C   UNL     1       0.731   6.327  18.642  0.00  0.00     0.007 A 
HETATM   32  C   UNL     1      -0.131   5.337  18.164  0.00  0.00     0.001 A 
HETATM   33  C   UNL     1      -0.140   5.001  16.813  0.00  0.00     0.007 A 
HETATM   34  C   UNL     1       0.742   5.628  15.930  0.00  0.00    -0.061 A 
HETATM   35  C   UNL     1       1.546   6.684  16.407  0.00  0.00     0.014 A 
HETATM   36  C   UNL     1       0.802   5.148  14.506  0.00  0.00     0.048 C 
ENDBRANCH  29  30
ENDBRANCH  10  29
TORSDOF 6
ENDMDL
MODEL 4
REMARK VINA RESULT:    -8.150      1.409      1.878
REMARK INTER + INTRA:         -11.607
REMARK INTER:                 -10.433
REMARK INTRA:                  -1.174
REMARK UNBOUND:                -0.836
REMARK  6 active torsions:
REMARK  status: ('A' for Active; 'I' for Inactive)
REMARK    1  A    between atoms: N_6  and  C_7 
REMARK    2  A    between atoms: C_12  and  N_13 
REMARK       I    between atoms: N_13  and  C_15 
REMARK    3  A    between atoms: C_15  and  C_17 
REMARK    4  A    between atoms: C_19  and  O_20 
REMARK    5  A    between atoms: C_27  and  C_28 
REMARK    6  A    between atoms: C_28  and  C_29 
ROOT
HETATM    1  C   UNL     1       4.113   7.457  21.230  0.00  0.00     0.066 C 
HETATM    2  C   UNL     1       3.317   7.725  20.095  0.00  0.00     0.035 C 
HETATM    3  C   UNL     1       5.340   6.795  21.030  0.00  0.00     0.083 C 
HETATM    4  C   UNL     1       5.741   6.325  19.772  0.00  0.00     0.069 C 
HETATM    5  C   UNL     1       4.825   6.461  18.725  0.00  0.00     0.065 A 
HETATM    6  C   UNL     1       3.601   7.110  18.859  0.00  0.00     0.020 A 
HETATM    7  N   UNL     1       4.870   6.058  17.420  0.00  0.00    -0.277 N 
HETATM    8  H   UNL     1       5.640   5.605  16.941  0.00  0.00     0.189 HD
HETATM    9  N   UNL     1       3.734   6.273  16.738  0.00  0.00    -0.178 NA
HETATM   10  C   UNL     1       2.926   6.900  17.615  0.00  0.00     0.071 A 
ENDROOT
BRANCH   1  11
HETATM   11  C   UNL     1       3.692   7.816  22.650  0.00  0.00     0.260 C 
HETATM   12  N   UNL     1       2.944   6.907  23.456  0.00  0.00    -0.318 N 
HETATM   13  C   UNL     1       2.605   5.558  22.970  0.00  0.00     0.159 C 
HETATM   14  O   UNL     1       4.104   8.908  23.022  0.00  0.00    -0.267 OA
BRANCH  12  15
HETATM   15  C   UNL     1       2.582   7.174  24.846  0.00  0.00     0.037 C 
HETATM   16  C   UNL     1       3.522   6.985  25.881  0.00  0.00     0.032 C 
HETATM   17  C   UNL     1       3.302   7.425  27.199  0.00  0.00     0.031 C 
HETATM   18  C   UNL     1       2.113   8.035  27.582  0.00  0.00     0.030 C 
HETATM   19  C   UNL     1       1.124   8.082  26.589  0.00  0.00     0.031 C 
HETATM   20  C   UNL     1       1.348   7.666  25.257  0.00  0.00     0.032 C 
BRANCH  18  21
HETATM   21  N   UNL     1       1.907   8.526  28.851  0.00  0.00    -0.377 N 
HETATM   22  C   UNL     1       2.981   8.886  29.793  0.00  0.00     0.149 C 
HETATM   23  C   UNL     1       2.635   8.299  31.176  0.00  0.00     0.187 C 
HETATM   24  O   UNL     1       1.335   8.715  31.635  0.00  0.00    -0.388 OA
HETATM   25  C   UNL     1       0.319   8.338  30.687  0.00  0.00     0.187 C 
HETATM   26  C   UNL     1       0.584   8.973  29.317  0.00  0.00     0.149 C 
ENDBRANCH  18  21
ENDBRANCH  12  15
ENDBRANCH   1  11
BRANCH   3  27
HETATM   27  O   UNL     1       6.244   6.559  22.039  0.00  0.00    -0.360 OA
HETATM   28  H   UNL     1       5.946   5.758  22.527  0.00  0.00     0.217 HD
ENDBRANCH   3  27
BRANCH  10  29
HETATM   29  C   UNL     1       1.521   7.251  17.187  0.00  0.00     0.100 C 
BRANCH  29  30
HETATM   30  C   UNL     1       0.786   6.055  16.581  0.00  0.00    -0.052 A 
HETATM   31  C   UNL     1       0.398   5.996  15.235  0.00  0.00     0.007 A 
HETATM   32  C   UNL     1      -0.277   4.885  14.722  0.00  0.00     0.001 A 
HETATM   33  C   UNL     1      -0.662   3.844  15.561  0.00  0.00     0.007 A 
HETATM   34  C   UNL     1      -0.408   3.919  16.933  0.00  0.00    -0.061 A 
HETATM   35  C   UNL     1       0.348   5.004  17.425  0.00  0.00     0.014 A 
HETATM   36  C   UNL     1      -0.955   2.844  17.830  0.00  0.00     0.048 C 
ENDBRANCH  29  30
ENDBRANCH  10  29
TORSDOF 6
ENDMDL
MODEL 5
REMARK VINA RESULT:    -8.033      3.276      9.650
REMARK INTER + INTRA:         -11.452
REMARK INTER:                 -10.402
REMARK INTRA:                  -1.050
REMARK UNBOUND:                -0.836
REMARK  6 active torsions:
REMARK  status: ('A' for Active; 'I' for Inactive)
REMARK    1  A    between atoms: N_6  and  C_7 
REMARK    2  A    between atoms: C_12  and  N_13 
REMARK       I    between atoms: N_13  and  C_15 
REMARK    3  A    between atoms: C_15  and  C_17 
REMARK    4  A    between atoms: C_19  and  O_20 
REMARK    5  A    between atoms: C_27  and  C_28 
REMARK    6  A    between atoms: C_28  and  C_29 
ROOT
HETATM    1  C   UNL     1       2.363   7.737  25.728  0.00  0.00     0.066 C 
HETATM    2  C   UNL     1       1.111   8.133  26.246  0.00  0.00     0.035 C 
HETATM    3  C   UNL     1       3.430   7.582  26.636  0.00  0.00     0.083 C 
HETATM    4  C   UNL     1       3.306   7.892  27.998  0.00  0.00     0.069 C 
HETATM    5  C   UNL     1       2.093   8.451  28.411  0.00  0.00     0.065 A 
HETATM    6  C   UNL     1       1.002   8.623  27.563  0.00  0.00     0.020 A 
HETATM    7  N   UNL     1       1.675   8.919  29.624  0.00  0.00    -0.277 N 
HETATM    8  H   UNL     1       2.183   8.899  30.501  0.00  0.00     0.189 HD
HETATM    9  N   UNL     1       0.463   9.495  29.604  0.00  0.00    -0.178 NA
HETATM   10  C   UNL     1       0.038   9.347  28.335  0.00  0.00     0.071 A 
ENDROOT
BRANCH   1  11
HETATM   11  C   UNL     1       2.620   7.508  24.244  0.00  0.00     0.260 C 
HETATM   12  N   UNL     1       2.725   6.193  23.702  0.00  0.00    -0.318 N 
HETATM   13  C   UNL     1       2.524   5.002  24.545  0.00  0.00     0.159 C 
HETATM   14  O   UNL     1       2.665   8.543  23.589  0.00  0.00    -0.267 OA
BRANCH  12  15
HETATM   15  C   UNL     1       2.894   5.921  22.276  0.00  0.00     0.037 C 
HETATM   16  C   UNL     1       2.180   4.875  21.655  0.00  0.00     0.032 C 
HETATM   17  C   UNL     1       2.139   4.704  20.259  0.00  0.00     0.031 C 
HETATM   18  C   UNL     1       2.847   5.532  19.397  0.00  0.00     0.030 C 
HETATM   19  C   UNL     1       3.676   6.472  20.024  0.00  0.00     0.031 C 
HETATM   20  C   UNL     1       3.701   6.666  21.424  0.00  0.00     0.032 C 
BRANCH  18  21
HETATM   21  N   UNL     1       2.768   5.417  18.028  0.00  0.00    -0.377 N 
HETATM   22  C   UNL     1       3.267   6.421  17.073  0.00  0.00     0.149 C 
HETATM   23  C   UNL     1       2.191   6.646  15.993  0.00  0.00     0.187 C 
HETATM   24  O   UNL     1       1.801   5.419  15.348  0.00  0.00    -0.388 OA
HETATM   25  C   UNL     1       1.315   4.472  16.317  0.00  0.00     0.187 C 
HETATM   26  C   UNL     1       2.391   4.158  17.364  0.00  0.00     0.149 C 
ENDBRANCH  18  21
ENDBRANCH  12  15
ENDBRANCH   1  11
BRANCH   3  27
HETATM   27  O   UNL     1       4.670   7.116  26.270  0.00  0.00    -0.360 OA
HETATM   28  H   UNL     1       5.153   6.869  27.091  0.00  0.00     0.217 HD
ENDBRANCH   3  27
BRANCH  10  29
HETATM   29  C   UNL     1      -1.295   9.937  27.939  0.00  0.00     0.100 C 
BRANCH  29  30
HETATM   30  C   UNL     1      -1.243  10.613  26.569  0.00  0.00    -0.052 A 
HETATM   31  C   UNL     1      -1.789  10.041  25.412  0.00  0.00     0.007 A 
HETATM   32  C   UNL     1      -1.715  10.691  24.176  0.00  0.00     0.001 A 
HETATM   33  C   UNL     1      -1.015  11.887  24.050  0.00  0.00     0.007 A 
HETATM   34  C   UNL     1      -0.348  12.429  25.151  0.00  0.00    -0.061 A 
HETATM   35  C   UNL     1      -0.499  11.810  26.409  0.00  0.00     0.014 A 
HETATM   36  C   UNL     1       0.510  13.647  24.949  0.00  0.00     0.048 C 
ENDBRANCH  29  30
ENDBRANCH  10  29
TORSDOF 6
ENDMDL
MODEL 6
REMARK VINA RESULT:    -7.954      3.067     10.074
REMARK INTER + INTRA:         -11.348
REMARK INTER:                 -10.390
REMARK INTRA:                  -0.958
REMARK UNBOUND:                -0.836
REMARK  6 active torsions:
REMARK  status: ('A' for Active; 'I' for Inactive)
REMARK    1  A    between atoms: N_6  and  C_7 
REMARK    2  A    between atoms: C_12  and  N_13 
REMARK       I    between atoms: N_13  and  C_15 
REMARK    3  A    between atoms: C_15  and  C_17 
REMARK    4  A    between atoms: C_19  and  O_20 
REMARK    5  A    between atoms: C_27  and  C_28 
REMARK    6  A    between atoms: C_28  and  C_29 
ROOT
HETATM    1  C   UNL     1       4.458   5.348  29.026  0.00  0.00     0.066 C 
HETATM    2  C   UNL     1       3.192   5.454  29.640  0.00  0.00     0.035 C 
HETATM    3  C   UNL     1       5.594   5.356  29.859  0.00  0.00     0.083 C 
HETATM    4  C   UNL     1       5.507   5.553  31.244  0.00  0.00     0.069 C 
HETATM    5  C   UNL     1       4.240   5.834  31.763  0.00  0.00     0.065 A 
HETATM    6  C   UNL     1       3.080   5.834  30.992  0.00  0.00     0.020 A 
HETATM    7  N   UNL     1       3.823   6.137  33.029  0.00  0.00    -0.277 N 
HETATM    8  H   UNL     1       4.385   6.166  33.872  0.00  0.00     0.189 HD
HETATM    9  N   UNL     1       2.523   6.459  33.118  0.00  0.00    -0.178 NA
HETATM   10  C   UNL     1       2.049   6.305  31.867  0.00  0.00     0.071 A 
ENDROOT
BRANCH   1  11
HETATM   11  C   UNL     1       4.651   5.263  27.517  0.00  0.00     0.260 C 
HETATM   12  N   UNL     1       4.251   6.327  26.655  0.00  0.00    -0.318 N 
HETATM   13  C   UNL     1       3.697   7.580  27.196  0.00  0.00     0.159 C 
HETATM   14  O   UNL     1       5.219   4.240  27.152  0.00  0.00    -0.267 OA
BRANCH  12  15
HETATM   15  C   UNL     1       4.483   6.325  25.212  0.00  0.00     0.037 C 
HETATM   16  C   UNL     1       3.595   6.991  24.341  0.00  0.00     0.032 C 
HETATM   17  C   UNL     1       3.879   7.203  22.980  0.00  0.00     0.031 C 
HETATM   18  C   UNL     1       5.041   6.723  22.388  0.00  0.00     0.030 C 
HETATM   19  C   UNL     1       5.846   5.931  23.218  0.00  0.00     0.031 C 
HETATM   20  C   UNL     1       5.580   5.736  24.593  0.00  0.00     0.032 C 
BRANCH  18  21
HETATM   21  N   UNL     1       5.362   6.975  21.074  0.00  0.00    -0.377 N 
HETATM   22  C   UNL     1       6.731   7.189  20.573  0.00  0.00     0.149 C 
HETATM   23  C   UNL     1       6.723   8.413  19.636  0.00  0.00     0.187 C 
HETATM   24  O   UNL     1       5.761   8.279  18.572  0.00  0.00    -0.388 OA
HETATM   25  C   UNL     1       4.440   8.078  19.108  0.00  0.00     0.187 C 
HETATM   26  C   UNL     1       4.388   6.818  19.981  0.00  0.00     0.149 C 
ENDBRANCH  18  21
ENDBRANCH  12  15
ENDBRANCH   1  11
BRANCH   3  27
HETATM   27  O   UNL     1       6.874   5.169  29.391  0.00  0.00    -0.360 OA
HETATM   28  H   UNL     1       7.308   6.050  29.343  0.00  0.00     0.217 HD
ENDBRANCH   3  27
BRANCH  10  29
HETATM   29  C   UNL     1       0.602   6.639  31.590  0.00  0.00     0.100 C 
BRANCH  29  30
HETATM   30  C   UNL     1       0.333   6.845  30.100  0.00  0.00    -0.052 A 
HETATM   31  C   UNL     1       0.404   8.098  29.475  0.00  0.00     0.007 A 
HETATM   32  C   UNL     1       0.145   8.244  28.109  0.00  0.00     0.001 A 
HETATM   33  C   UNL     1      -0.280   7.157  27.352  0.00  0.00     0.007 A 
HETATM   34  C   UNL     1      -0.487   5.917  27.960  0.00  0.00    -0.061 A 
HETATM   35  C   UNL     1      -0.142   5.761  29.319  0.00  0.00     0.014 A 
HETATM   36  C   UNL     1      -1.075   4.799  27.144  0.00  0.00     0.048 C 
ENDBRANCH  29  30
ENDBRANCH  10  29
TORSDOF 6
ENDMDL
MODEL 7
REMARK VINA RESULT:    -7.940      3.468     10.329
REMARK INTER + INTRA:         -11.329
REMARK INTER:                 -10.284
REMARK INTRA:                  -1.045
REMARK UNBOUND:                -0.836
REMARK  6 active torsions:
REMARK  status: ('A' for Active; 'I' for Inactive)
REMARK    1  A    between atoms: N_6  and  C_7 
REMARK    2  A    between atoms: C_12  and  N_13 
REMARK       I    between atoms: N_13  and  C_15 
REMARK    3  A    between atoms: C_15  and  C_17 
REMARK    4  A    between atoms: C_19  and  O_20 
REMARK    5  A    between atoms: C_27  and  C_28 
REMARK    6  A    between atoms: C_28  and  C_29 
ROOT
HETATM    1  C   UNL     1       3.564   6.387  22.647  0.00  0.00     0.066 C 
HETATM    2  C   UNL     1       2.671   6.159  23.717  0.00  0.00     0.035 C 
HETATM    3  C   UNL     1       4.887   6.753  22.964  0.00  0.00     0.083 C 
HETATM    4  C   UNL     1       5.307   6.981  24.281  0.00  0.00     0.069 C 
HETATM    5  C   UNL     1       4.328   6.916  25.277  0.00  0.00     0.065 A 
HETATM    6  C   UNL     1       3.007   6.553  25.027  0.00  0.00     0.020 A 
HETATM    7  N   UNL     1       4.384   7.146  26.622  0.00  0.00    -0.277 N 
HETATM    8  H   UNL     1       5.202   7.371  27.176  0.00  0.00     0.189 HD
HETATM    9  N   UNL     1       3.192   7.092  27.239  0.00  0.00    -0.178 NA
HETATM   10  C   UNL     1       2.322   6.753  26.269  0.00  0.00     0.071 A 
ENDROOT
BRANCH   1  11
HETATM   11  C   UNL     1       3.156   6.291  21.182  0.00  0.00     0.260 C 
HETATM   12  N   UNL     1       2.582   5.100  20.647  0.00  0.00    -0.318 N 
HETATM   13  C   UNL     1       2.300   3.936  21.506  0.00  0.00     0.159 C 
HETATM   14  O   UNL     1       3.318   7.333  20.559  0.00  0.00    -0.267 OA
BRANCH  12  15
HETATM   15  C   UNL     1       2.106   4.984  19.271  0.00  0.00     0.037 C 
HETATM   16  C   UNL     1       2.755   4.128  18.356  0.00  0.00     0.032 C 
HETATM   17  C   UNL     1       2.219   3.815  17.093  0.00  0.00     0.031 C 
HETATM   18  C   UNL     1       1.029   4.372  16.642  0.00  0.00     0.030 C 
HETATM   19  C   UNL     1       0.467   5.338  17.488  0.00  0.00     0.031 C 
HETATM   20  C   UNL     1       0.986   5.637  18.768  0.00  0.00     0.032 C 
BRANCH  18  21
HETATM   21  N   UNL     1       0.461   4.029  15.436  0.00  0.00    -0.377 N 
HETATM   22  C   UNL     1      -0.746   3.198  15.286  0.00  0.00     0.149 C 
HETATM   23  C   UNL     1      -0.485   2.151  14.186  0.00  0.00     0.187 C 
HETATM   24  O   UNL     1      -0.074   2.754  12.945  0.00  0.00    -0.388 OA
HETATM   25  C   UNL     1       1.111   3.550  13.139  0.00  0.00     0.187 C 
HETATM   26  C   UNL     1       0.864   4.660  14.168  0.00  0.00     0.149 C 
ENDBRANCH  18  21
ENDBRANCH  12  15
ENDBRANCH   1  11
BRANCH   3  27
HETATM   27  O   UNL     1       5.872   6.913  22.018  0.00  0.00    -0.360 OA
HETATM   28  H   UNL     1       6.514   7.575  22.362  0.00  0.00     0.217 HD
ENDBRANCH   3  27
BRANCH  10  29
HETATM   29  C   UNL     1       0.855   6.652  26.610  0.00  0.00     0.100 C 
BRANCH  29  30
HETATM   30  C   UNL     1       0.108   7.957  26.334  0.00  0.00    -0.052 A 
HETATM   31  C   UNL     1      -0.098   8.463  25.042  0.00  0.00     0.007 A 
HETATM   32  C   UNL     1      -0.783   9.664  24.834  0.00  0.00     0.001 A 
HETATM   33  C   UNL     1      -1.200  10.435  25.914  0.00  0.00     0.007 A 
HETATM   34  C   UNL     1      -0.904  10.032  27.218  0.00  0.00    -0.061 A 
HETATM   35  C   UNL     1      -0.288   8.778  27.419  0.00  0.00     0.014 A 
HETATM   36  C   UNL     1      -1.247  10.953  28.356  0.00  0.00     0.048 C 
ENDBRANCH  29  30
ENDBRANCH  10  29
TORSDOF 6
ENDMDL
MODEL 8
REMARK VINA RESULT:    -7.914      2.842      9.958
REMARK INTER + INTRA:         -11.294
REMARK INTER:                 -10.022
REMARK INTRA:                  -1.272
REMARK UNBOUND:                -0.836
REMARK  6 active torsions:
REMARK  status: ('A' for Active; 'I' for Inactive)
REMARK    1  A    between atoms: N_6  and  C_7 
REMARK    2  A    between atoms: C_12  and  N_13 
REMARK       I    between atoms: N_13  and  C_15 
REMARK    3  A    between atoms: C_15  and  C_17 
REMARK    4  A    between atoms: C_19  and  O_20 
REMARK    5  A    between atoms: C_27  and  C_28 
REMARK    6  A    between atoms: C_28  and  C_29 
ROOT
HETATM    1  C   UNL     1       3.100   6.097  25.262  0.00  0.00     0.066 C 
HETATM    2  C   UNL     1       1.940   6.156  26.064  0.00  0.00     0.035 C 
HETATM    3  C   UNL     1       4.348   6.059  25.915  0.00  0.00     0.083 C 
HETATM    4  C   UNL     1       4.469   6.167  27.308  0.00  0.00     0.069 C 
HETATM    5  C   UNL     1       3.294   6.406  28.027  0.00  0.00     0.065 A 
HETATM    6  C   UNL     1       2.033   6.448  27.440  0.00  0.00     0.020 A 
HETATM    7  N   UNL     1       3.072   6.625  29.357  0.00  0.00    -0.277 N 
HETATM    8  H   UNL     1       3.754   6.604  30.107  0.00  0.00     0.189 HD
HETATM    9  N   UNL     1       1.801   6.933  29.660  0.00  0.00    -0.178 NA
HETATM   10  C   UNL     1       1.145   6.855  28.486  0.00  0.00     0.071 A 
ENDROOT
BRANCH   1  11
HETATM   11  C   UNL     1       3.065   6.110  23.739  0.00  0.00     0.260 C 
HETATM   12  N   UNL     1       3.065   4.899  22.985  0.00  0.00    -0.318 N 
HETATM   13  C   UNL     1       3.032   3.585  23.652  0.00  0.00     0.159 C 
HETATM   14  O   UNL     1       2.982   7.235  23.260  0.00  0.00    -0.267 OA
BRANCH  12  15
HETATM   15  C   UNL     1       2.956   4.857  21.529  0.00  0.00     0.037 C 
HETATM   16  C   UNL     1       1.789   4.362  20.910  0.00  0.00     0.032 C 
HETATM   17  C   UNL     1       1.543   4.494  19.531  0.00  0.00     0.031 C 
HETATM   18  C   UNL     1       2.465   5.083  18.674  0.00  0.00     0.030 C 
HETATM   19  C   UNL     1       3.687   5.433  19.265  0.00  0.00     0.031 C 
HETATM   20  C   UNL     1       3.929   5.327  20.654  0.00  0.00     0.032 C 
BRANCH  18  21
HETATM   21  N   UNL     1       2.213   5.275  17.334  0.00  0.00    -0.377 N 
HETATM   22  C   UNL     1       2.833   6.326  16.509  0.00  0.00     0.149 C 
HETATM   23  C   UNL     1       1.732   6.997  15.664  0.00  0.00     0.187 C 
HETATM   24  O   UNL     1       0.991   6.045  14.879  0.00  0.00    -0.388 OA
HETATM   25  C   UNL     1       0.400   5.042  15.726  0.00  0.00     0.187 C 
HETATM   26  C   UNL     1       1.475   4.293  16.523  0.00  0.00     0.149 C 
ENDBRANCH  18  21
ENDBRANCH  12  15
ENDBRANCH   1  11
BRANCH   3  27
HETATM   27  O   UNL     1       5.543   5.910  25.251  0.00  0.00    -0.360 OA
HETATM   28  H   UNL     1       5.906   5.025  25.482  0.00  0.00     0.217 HD
ENDBRANCH   3  27
BRANCH  10  29
HETATM   29  C   UNL     1      -0.326   7.197  28.451  0.00  0.00     0.100 C 
BRANCH  29  30
HETATM   30  C   UNL     1      -0.576   8.616  27.939  0.00  0.00    -0.052 A 
HETATM   31  C   UNL     1      -0.924   9.683  28.780  0.00  0.00     0.007 A 
HETATM   32  C   UNL     1      -1.149  10.965  28.272  0.00  0.00     0.001 A 
HETATM   33  C   UNL     1      -1.120  11.194  26.899  0.00  0.00     0.007 A 
HETATM   34  C   UNL     1      -0.902  10.134  26.016  0.00  0.00    -0.061 A 
HETATM   35  C   UNL     1      -0.593   8.862  26.544  0.00  0.00     0.014 A 
HETATM   36  C   UNL     1      -1.013  10.389  24.538  0.00  0.00     0.048 C 
ENDBRANCH  29  30
ENDBRANCH  10  29
TORSDOF 6
ENDMDL
MODEL 9
REMARK VINA RESULT:    -7.813      4.198      9.165
REMARK INTER + INTRA:         -11.162
REMARK INTER:                 -10.326
REMARK INTRA:                  -0.836
REMARK UNBOUND:                -0.836
REMARK  6 active torsions:
REMARK  status: ('A' for Active; 'I' for Inactive)
REMARK    1  A    between atoms: N_6  and  C_7 
REMARK    2  A    between atoms: C_12  and  N_13 
REMARK       I    between atoms: N_13  and  C_15 
REMARK    3  A    between atoms: C_15  and  C_17 
REMARK    4  A    between atoms: C_19  and  O_20 
REMARK    5  A    between atoms: C_27  and  C_28 
REMARK    6  A    between atoms: C_28  and  C_29 
ROOT
HETATM    1  C   UNL     1       0.814   7.308  26.670  0.00  0.00     0.066 C 
HETATM    2  C   UNL     1      -0.344   8.053  26.357  0.00  0.00     0.035 C 
HETATM    3  C   UNL     1       1.386   7.489  27.945  0.00  0.00     0.083 C 
HETATM    4  C   UNL     1       0.900   8.436  28.857  0.00  0.00     0.069 C 
HETATM    5  C   UNL     1      -0.134   9.267  28.415  0.00  0.00     0.065 A 
HETATM    6  C   UNL     1      -0.743   9.132  27.171  0.00  0.00     0.020 A 
HETATM    7  N   UNL     1      -0.776  10.313  29.013  0.00  0.00    -0.277 N 
HETATM    8  H   UNL     1      -0.642  10.662  29.955  0.00  0.00     0.189 HD
HETATM    9  N   UNL     1      -1.653  10.947  28.218  0.00  0.00    -0.178 NA
HETATM   10  C   UNL     1      -1.631  10.251  27.066  0.00  0.00     0.071 A 
ENDROOT
BRANCH   1  11
HETATM   11  C   UNL     1       1.485   6.355  25.688  0.00  0.00     0.260 C 
HETATM   12  N   UNL     1       2.227   6.840  24.570  0.00  0.00    -0.318 N 
HETATM   13  C   UNL     1       2.429   8.284  24.357  0.00  0.00     0.159 C 
HETATM   14  O   UNL     1       1.367   5.174  25.993  0.00  0.00    -0.267 OA
BRANCH  12  15
HETATM   15  C   UNL     1       2.950   5.970  23.646  0.00  0.00     0.037 C 
HETATM   16  C   UNL     1       3.421   4.709  24.067  0.00  0.00     0.032 C 
HETATM   17  C   UNL     1       3.930   3.749  23.173  0.00  0.00     0.031 C 
HETATM   18  C   UNL     1       4.048   4.002  21.812  0.00  0.00     0.030 C 
HETATM   19  C   UNL     1       3.724   5.308  21.421  0.00  0.00     0.031 C 
HETATM   20  C   UNL     1       3.188   6.268  22.309  0.00  0.00     0.032 C 
BRANCH  18  21
HETATM   21  N   UNL     1       4.486   3.052  20.917  0.00  0.00    -0.377 N 
HETATM   22  C   UNL     1       5.162   3.351  19.643  0.00  0.00     0.149 C 
HETATM   23  C   UNL     1       4.530   2.482  18.538  0.00  0.00     0.187 C 
HETATM   24  O   UNL     1       4.561   1.080  18.862  0.00  0.00    -0.388 OA
HETATM   25  C   UNL     1       3.884   0.835  20.110  0.00  0.00     0.187 C 
HETATM   26  C   UNL     1       4.540   1.619  21.253  0.00  0.00     0.149 C 
ENDBRANCH  18  21
ENDBRANCH  12  15
ENDBRANCH   1  11
BRANCH   3  27
HETATM   27  O   UNL     1       2.458   6.758  28.401  0.00  0.00    -0.360 OA
HETATM   28  H   UNL     1       2.107   6.015  28.942  0.00  0.00     0.217 HD
ENDBRANCH   3  27
BRANCH  10  29
HETATM   29  C   UNL     1      -2.479  10.728  25.910  0.00  0.00     0.100 C 
BRANCH  29  30
HETATM   30  C   UNL     1      -1.673  11.551  24.905  0.00  0.00    -0.052 A 
HETATM   31  C   UNL     1      -0.549  12.310  25.263  0.00  0.00     0.007 A 
HETATM   32  C   UNL     1       0.156  13.054  24.313  0.00  0.00     0.001 A 
HETATM   33  C   UNL     1      -0.295  13.130  22.999  0.00  0.00     0.007 A 
HETATM   34  C   UNL     1      -1.482  12.493  22.628  0.00  0.00    -0.061 A 
HETATM   35  C   UNL     1      -2.140  11.677  23.573  0.00  0.00     0.014 A 
HETATM   36  C   UNL     1      -2.014  12.707  21.238  0.00  0.00     0.048 C 
ENDBRANCH  29  30
ENDBRANCH  10  29
TORSDOF 6
ENDMDL
