MODEL 1
REMARK VINA RESULT:    -8.600      0.000      0.000
REMARK INTER + INTRA:         -13.989
REMARK INTER:                 -11.901
REMARK INTRA:                  -2.088
REMARK UNBOUND:                -2.623
REMARK  6 active torsions:
REMARK  status: ('A' for Active; 'I' for Inactive)
REMARK    1  A    between atoms: C_7  and  C_8 
REMARK    2  A    between atoms: C_8  and  N_9 
REMARK       I    between atoms: N_9  and  C_11 
REMARK    3  A    between atoms: C_11  and  C_13 
REMARK    4  A    between atoms: C_15  and  O_16 
REMARK    5  A    between atoms: C_23  and  C_24 
REMARK    6  A    between atoms: C_24  and  C_25 
ROOT
HETATM    1  C   UNL     1      10.731  14.434  24.817  0.00  0.00     0.066 C 
HETATM    2  C   UNL     1       9.411  14.238  24.318  0.00  0.00     0.035 C 
HETATM    3  C   UNL     1      11.585  15.227  24.051  0.00  0.00     0.083 C 
HETATM    4  C   UNL     1      11.152  15.976  22.949  0.00  0.00     0.069 C 
HETATM    5  C   UNL     1       9.849  15.766  22.513  0.00  0.00     0.065 A 
HETATM    6  C   UNL     1       8.983  14.871  23.126  0.00  0.00     0.020 A 
HETATM    7  N   UNL     1       9.169  16.269  21.441  0.00  0.00    -0.277 N 
HETATM    8  H   UNL     1       9.492  16.964  20.778  0.00  0.00     0.189 HD
HETATM    9  N   UNL     1       7.995  15.672  21.213  0.00  0.00    -0.178 NA
HETATM   10  C   UNL     1       7.869  14.797  22.228  0.00  0.00     0.071 A 
ENDROOT
BRANCH   1  11
HETATM   11  C   UNL     1      11.080  13.666  26.068  0.00  0.00     0.256 C 
HETATM   12  N   UNL     1      11.782  12.448  26.102  0.00  0.00    -0.348 N 
HETATM   13  C   UNL     1      12.297  12.044  27.407  0.00  0.00     0.153 C 
HETATM   14  O   UNL     1      10.775  14.224  27.131  0.00  0.00    -0.267 OA
BRANCH  12  15
HETATM   15  C   UNL     1      12.167  11.591  24.982  0.00  0.00     0.164 C 
BRANCH  15  16
HETATM   16  C   UNL     1      11.013  10.986  24.179  0.00  0.00    -0.040 A 
HETATM   17  C   UNL     1      10.953  11.271  22.806  0.00  0.00     0.010 A 
HETATM   18  C   UNL     1       9.811  10.970  22.060  0.00  0.00     0.024 A 
HETATM   19  C   UNL     1       8.719  10.368  22.681  0.00  0.00     0.034 A 
HETATM   20 CL   UNL     1       7.264  10.121  21.794  0.00  0.00    -0.084 Cl
HETATM   21  C   UNL     1       8.783  10.002  24.023  0.00  0.00     0.024 A 
HETATM   22  C   UNL     1       9.930  10.300  24.770  0.00  0.00     0.010 A 
ENDBRANCH  15  16
ENDBRANCH  12  15
ENDBRANCH   1  11
BRANCH   3  23
HETATM   23  O   UNL     1      12.932  15.275  24.235  0.00  0.00    -0.360 OA
HETATM   24  H   UNL     1      13.077  15.589  25.147  0.00  0.00     0.217 HD
ENDBRANCH   3  23
BRANCH  10  25
HETATM   25  C   UNL     1       6.793  13.764  22.169  0.00  0.00     0.100 C 
BRANCH  25  26
HETATM   26  C   UNL     1       5.578  14.263  22.906  0.00  0.00    -0.052 A 
HETATM   27  C   UNL     1       5.486  15.604  23.313  0.00  0.00     0.007 A 
HETATM   28  C   UNL     1       4.306  16.098  23.870  0.00  0.00     0.001 A 
HETATM   29  C   UNL     1       3.209  15.256  24.038  0.00  0.00     0.000 A 
HETATM   30  C   UNL     1       3.299  13.914  23.670  0.00  0.00     0.001 A 
HETATM   31  C   UNL     1       4.477  13.419  23.109  0.00  0.00     0.007 A 
ENDBRANCH  25  26
ENDBRANCH  10  25
TORSDOF 6
ENDMDL
MODEL 2
REMARK VINA RESULT:    -8.246      3.079      4.878
REMARK INTER + INTRA:         -13.520
REMARK INTER:                 -10.964
REMARK INTRA:                  -2.556
REMARK UNBOUND:                -2.623
REMARK  6 active torsions:
REMARK  status: ('A' for Active; 'I' for Inactive)
REMARK    1  A    between atoms: C_7  and  C_8 
REMARK    2  A    between atoms: C_8  and  N_9 
REMARK       I    between atoms: N_9  and  C_11 
REMARK    3  A    between atoms: C_11  and  C_13 
REMARK    4  A    between atoms: C_15  and  O_16 
REMARK    5  A    between atoms: C_23  and  C_24 
REMARK    6  A    between atoms: C_24  and  C_25 
ROOT
HETATM    1  C   UNL     1       8.880  11.064  24.385  0.00  0.00     0.066 C 
HETATM    2  C   UNL     1       8.186  11.864  25.338  0.00  0.00     0.035 C 
HETATM    3  C   UNL     1       9.967  11.653  23.738  0.00  0.00     0.083 C 
HETATM    4  C   UNL     1      10.507  12.889  24.118  0.00  0.00     0.069 C 
HETATM    5  C   UNL     1       9.805  13.622  25.067  0.00  0.00     0.065 A 
HETATM    6  C   UNL     1       8.624  13.175  25.645  0.00  0.00     0.020 A 
HETATM    7  N   UNL     1      10.020  14.870  25.576  0.00  0.00    -0.277 N 
HETATM    8  H   UNL     1      10.803  15.486  25.387  0.00  0.00     0.189 HD
HETATM    9  N   UNL     1       9.010  15.337  26.317  0.00  0.00    -0.178 NA
HETATM   10  C   UNL     1       8.133  14.317  26.357  0.00  0.00     0.071 A 
ENDROOT
BRANCH   1  11
HETATM   11  C   UNL     1       8.286   9.705  24.111  0.00  0.00     0.256 C 
HETATM   12  N   UNL     1       7.275   9.437  23.171  0.00  0.00    -0.348 N 
HETATM   13  C   UNL     1       7.075   8.032  22.831  0.00  0.00     0.153 C 
HETATM   14  O   UNL     1       8.810   8.767  24.727  0.00  0.00    -0.267 OA
BRANCH  12  15
HETATM   15  C   UNL     1       6.476  10.389  22.401  0.00  0.00     0.164 C 
BRANCH  15  16
HETATM   16  C   UNL     1       5.218  10.917  23.093  0.00  0.00    -0.040 A 
HETATM   17  C   UNL     1       4.375  11.766  22.358  0.00  0.00     0.010 A 
HETATM   18  C   UNL     1       3.354  12.483  22.986  0.00  0.00     0.024 A 
HETATM   19  C   UNL     1       3.157  12.347  24.358  0.00  0.00     0.034 A 
HETATM   20 CL   UNL     1       1.989  13.332  25.153  0.00  0.00    -0.084 Cl
HETATM   21  C   UNL     1       3.926  11.452  25.097  0.00  0.00     0.024 A 
HETATM   22  C   UNL     1       4.948  10.730  24.466  0.00  0.00     0.010 A 
ENDBRANCH  15  16
ENDBRANCH  12  15
ENDBRANCH   1  11
BRANCH   3  23
HETATM   23  O   UNL     1      10.544  11.138  22.619  0.00  0.00    -0.360 OA
HETATM   24  H   UNL     1      10.710  10.194  22.802  0.00  0.00     0.217 HD
ENDBRANCH   3  23
BRANCH  10  25
HETATM   25  C   UNL     1       6.758  14.559  26.886  0.00  0.00     0.100 C 
BRANCH  25  26
HETATM   26  C   UNL     1       5.860  15.004  25.763  0.00  0.00    -0.052 A 
HETATM   27  C   UNL     1       4.613  15.593  26.031  0.00  0.00     0.007 A 
HETATM   28  C   UNL     1       3.844  16.131  24.998  0.00  0.00     0.001 A 
HETATM   29  C   UNL     1       4.306  16.075  23.685  0.00  0.00     0.000 A 
HETATM   30  C   UNL     1       5.526  15.462  23.400  0.00  0.00     0.001 A 
HETATM   31  C   UNL     1       6.298  14.927  24.432  0.00  0.00     0.007 A 
ENDBRANCH  25  26
ENDBRANCH  10  25
TORSDOF 6
ENDMDL
MODEL 3
REMARK VINA RESULT:    -8.182      2.404      4.053
REMARK INTER + INTRA:         -13.435
REMARK INTER:                 -11.028
REMARK INTRA:                  -2.407
REMARK UNBOUND:                -2.623
REMARK  6 active torsions:
REMARK  status: ('A' for Active; 'I' for Inactive)
REMARK    1  A    between atoms: C_7  and  C_8 
REMARK    2  A    between atoms: C_8  and  N_9 
REMARK       I    between atoms: N_9  and  C_11 
REMARK    3  A    between atoms: C_11  and  C_13 
REMARK    4  A    between atoms: C_15  and  O_16 
REMARK    5  A    between atoms: C_23  and  C_24 
REMARK    6  A    between atoms: C_24  and  C_25 
ROOT
HETATM    1  C   UNL     1      10.993  12.678  23.460  0.00  0.00     0.066 C 
HETATM    2  C   UNL     1       9.877  13.397  23.979  0.00  0.00     0.035 C 
HETATM    3  C   UNL     1      11.096  11.332  23.812  0.00  0.00     0.083 C 
HETATM    4  C   UNL     1      10.077  10.632  24.470  0.00  0.00     0.069 C 
HETATM    5  C   UNL     1       8.999  11.374  24.939  0.00  0.00     0.065 A 
HETATM    6  C   UNL     1       8.897  12.748  24.769  0.00  0.00     0.020 A 
HETATM    7  N   UNL     1       7.909  11.008  25.676  0.00  0.00    -0.277 N 
HETATM    8  H   UNL     1       7.652  10.073  25.971  0.00  0.00     0.189 HD
HETATM    9  N   UNL     1       7.187  12.038  26.128  0.00  0.00    -0.178 NA
HETATM   10  C   UNL     1       7.788  13.118  25.596  0.00  0.00     0.071 A 
ENDROOT
BRANCH   1  11
HETATM   11  C   UNL     1      11.991  13.492  22.675  0.00  0.00     0.256 C 
HETATM   12  N   UNL     1      12.091  13.521  21.273  0.00  0.00    -0.348 N 
HETATM   13  C   UNL     1      12.890  14.605  20.711  0.00  0.00     0.153 C 
HETATM   14  O   UNL     1      12.710  14.240  23.353  0.00  0.00    -0.267 OA
BRANCH  12  15
HETATM   15  C   UNL     1      11.403  12.677  20.297  0.00  0.00     0.164 C 
BRANCH  15  16
HETATM   16  C   UNL     1       9.893  12.526  20.493  0.00  0.00    -0.040 A 
HETATM   17  C   UNL     1       9.120  13.697  20.546  0.00  0.00     0.010 A 
HETATM   18  C   UNL     1       7.789  13.661  20.968  0.00  0.00     0.024 A 
HETATM   19  C   UNL     1       7.213  12.446  21.330  0.00  0.00     0.034 A 
HETATM   20 CL   UNL     1       5.617  12.420  21.978  0.00  0.00    -0.084 Cl
HETATM   21  C   UNL     1       7.931  11.259  21.211  0.00  0.00     0.024 A 
HETATM   22  C   UNL     1       9.265  11.295  20.784  0.00  0.00     0.010 A 
ENDBRANCH  15  16
ENDBRANCH  12  15
ENDBRANCH   1  11
BRANCH   3  23
HETATM   23  O   UNL     1      12.228  10.596  23.642  0.00  0.00    -0.360 OA
HETATM   24  H   UNL     1      11.955   9.765  23.209  0.00  0.00     0.217 HD
ENDBRANCH   3  23
BRANCH  10  25
HETATM   25  C   UNL     1       7.411  14.477  26.088  0.00  0.00     0.100 C 
BRANCH  25  26
HETATM   26  C   UNL     1       6.212  14.972  25.324  0.00  0.00    -0.052 A 
HETATM   27  C   UNL     1       5.013  15.277  25.990  0.00  0.00     0.007 A 
HETATM   28  C   UNL     1       3.950  15.865  25.303  0.00  0.00     0.001 A 
HETATM   29  C   UNL     1       4.068  16.144  23.943  0.00  0.00     0.000 A 
HETATM   30  C   UNL     1       5.240  15.815  23.264  0.00  0.00     0.001 A 
HETATM   31  C   UNL     1       6.306  15.230  23.949  0.00  0.00     0.007 A 
ENDBRANCH  25  26
ENDBRANCH  10  25
TORSDOF 6
ENDMDL
MODEL 4
REMARK VINA RESULT:    -8.147      2.980      5.653
REMARK INTER + INTRA:         -13.390
REMARK INTER:                 -10.863
REMARK INTRA:                  -2.527
REMARK UNBOUND:                -2.623
REMARK  6 active torsions:
REMARK  status: ('A' for Active; 'I' for Inactive)
REMARK    1  A    between atoms: C_7  and  C_8 
REMARK    2  A    between atoms: C_8  and  N_9 
REMARK       I    between atoms: N_9  and  C_11 
REMARK    3  A    between atoms: C_11  and  C_13 
REMARK    4  A    between atoms: C_15  and  O_16 
REMARK    5  A    between atoms: C_23  and  C_24 
REMARK    6  A    between atoms: C_24  and  C_25 
ROOT
HETATM    1  C   UNL     1      10.949  11.666  21.715  0.00  0.00     0.066 C 
HETATM    2  C   UNL     1      10.448  12.301  22.887  0.00  0.00     0.035 C 
HETATM    3  C   UNL     1      12.045  10.816  21.876  0.00  0.00     0.083 C 
HETATM    4  C   UNL     1      12.532  10.423  23.129  0.00  0.00     0.069 C 
HETATM    5  C   UNL     1      11.996  11.057  24.244  0.00  0.00     0.065 A 
HETATM    6  C   UNL     1      11.012  12.033  24.158  0.00  0.00     0.020 A 
HETATM    7  N   UNL     1      12.310  10.960  25.569  0.00  0.00    -0.277 N 
HETATM    8  H   UNL     1      12.978  10.331  25.999  0.00  0.00     0.189 HD
HETATM    9  N   UNL     1      11.726  11.887  26.336  0.00  0.00    -0.178 NA
HETATM   10  C   UNL     1      10.938  12.568  25.485  0.00  0.00     0.071 A 
ENDROOT
BRANCH   1  11
HETATM   11  C   UNL     1      10.298  12.073  20.417  0.00  0.00     0.256 C 
HETATM   12  N   UNL     1       8.912  12.151  20.195  0.00  0.00    -0.348 N 
HETATM   13  C   UNL     1       8.496  12.870  18.995  0.00  0.00     0.153 C 
HETATM   14  O   UNL     1      11.079  12.435  19.526  0.00  0.00    -0.267 OA
BRANCH  12  15
HETATM   15  C   UNL     1       7.827  11.707  21.069  0.00  0.00     0.164 C 
BRANCH  15  16
HETATM   16  C   UNL     1       7.164  12.797  21.915  0.00  0.00    -0.040 A 
HETATM   17  C   UNL     1       5.833  12.596  22.313  0.00  0.00     0.010 A 
HETATM   18  C   UNL     1       5.084  13.638  22.864  0.00  0.00     0.024 A 
HETATM   19  C   UNL     1       5.666  14.892  23.036  0.00  0.00     0.034 A 
HETATM   20 CL   UNL     1       4.704  16.209  23.588  0.00  0.00    -0.084 Cl
HETATM   21  C   UNL     1       7.007  15.097  22.724  0.00  0.00     0.024 A 
HETATM   22  C   UNL     1       7.760  14.051  22.174  0.00  0.00     0.010 A 
ENDBRANCH  15  16
ENDBRANCH  12  15
ENDBRANCH   1  11
BRANCH   3  23
HETATM   23  O   UNL     1      12.807  10.369  20.841  0.00  0.00    -0.360 OA
HETATM   24  H   UNL     1      12.267  10.471  20.035  0.00  0.00     0.217 HD
ENDBRANCH   3  23
BRANCH  10  25
HETATM   25  C   UNL     1      10.319  13.851  25.933  0.00  0.00     0.100 C 
BRANCH  25  26
HETATM   26  C   UNL     1       8.823  13.693  25.990  0.00  0.00    -0.052 A 
HETATM   27  C   UNL     1       8.222  12.449  25.731  0.00  0.00     0.007 A 
HETATM   28  C   UNL     1       6.851  12.270  25.919  0.00  0.00     0.001 A 
HETATM   29  C   UNL     1       6.063  13.333  26.355  0.00  0.00     0.000 A 
HETATM   30  C   UNL     1       6.641  14.581  26.582  0.00  0.00     0.001 A 
HETATM   31  C   UNL     1       8.012  14.762  26.398  0.00  0.00     0.007 A 
ENDBRANCH  25  26
ENDBRANCH  10  25
TORSDOF 6
ENDMDL
MODEL 5
REMARK VINA RESULT:    -8.136      2.699      6.246
REMARK INTER + INTRA:         -13.375
REMARK INTER:                 -11.782
REMARK INTRA:                  -1.593
REMARK UNBOUND:                -2.623
REMARK  6 active torsions:
REMARK  status: ('A' for Active; 'I' for Inactive)
REMARK    1  A    between atoms: C_7  and  C_8 
REMARK    2  A    between atoms: C_8  and  N_9 
REMARK       I    between atoms: N_9  and  C_11 
REMARK    3  A    between atoms: C_11  and  C_13 
REMARK    4  A    between atoms: C_15  and  O_16 
REMARK    5  A    between atoms: C_23  and  C_24 
REMARK    6  A    between atoms: C_24  and  C_25 
ROOT
HETATM    1  C   UNL     1       9.174  11.597  23.565  0.00  0.00     0.066 C 
HETATM    2  C   UNL     1      10.034  12.731  23.624  0.00  0.00     0.035 C 
HETATM    3  C   UNL     1       8.992  10.880  24.748  0.00  0.00     0.083 C 
HETATM    4  C   UNL     1       9.448  11.329  25.994  0.00  0.00     0.069 C 
HETATM    5  C   UNL     1      10.267  12.452  26.002  0.00  0.00     0.065 A 
HETATM    6  C   UNL     1      10.627  13.132  24.847  0.00  0.00     0.020 A 
HETATM    7  N   UNL     1      10.925  13.076  27.022  0.00  0.00    -0.277 N 
HETATM    8  H   UNL     1      10.881  12.855  28.010  0.00  0.00     0.189 HD
HETATM    9  N   UNL     1      11.798  14.006  26.619  0.00  0.00    -0.178 NA
HETATM   10  C   UNL     1      11.643  14.043  25.283  0.00  0.00     0.071 A 
ENDROOT
BRANCH   1  11
HETATM   11  C   UNL     1       8.645  11.244  22.197  0.00  0.00     0.256 C 
HETATM   12  N   UNL     1       8.178  12.168  21.246  0.00  0.00    -0.348 N 
HETATM   13  C   UNL     1       8.021  11.660  19.886  0.00  0.00     0.153 C 
HETATM   14  O   UNL     1       8.718  10.045  21.898  0.00  0.00    -0.267 OA
BRANCH  12  15
HETATM   15  C   UNL     1       7.939  13.600  21.413  0.00  0.00     0.164 C 
BRANCH  15  16
HETATM   16  C   UNL     1       6.750  13.980  22.298  0.00  0.00    -0.040 A 
HETATM   17  C   UNL     1       5.729  13.030  22.462  0.00  0.00     0.010 A 
HETATM   18  C   UNL     1       4.507  13.384  23.040  0.00  0.00     0.024 A 
HETATM   19  C   UNL     1       4.299  14.692  23.470  0.00  0.00     0.034 A 
HETATM   20 CL   UNL     1       2.748  15.159  24.056  0.00  0.00    -0.084 Cl
HETATM   21  C   UNL     1       5.322  15.633  23.391  0.00  0.00     0.024 A 
HETATM   22  C   UNL     1       6.549  15.278  22.816  0.00  0.00     0.010 A 
ENDBRANCH  15  16
ENDBRANCH  12  15
ENDBRANCH   1  11
BRANCH   3  23
HETATM   23  O   UNL     1       8.446   9.635  24.795  0.00  0.00    -0.360 OA
HETATM   24  H   UNL     1       9.134   9.019  24.480  0.00  0.00     0.217 HD
ENDBRANCH   3  23
BRANCH  10  25
HETATM   25  C   UNL     1      12.637  14.789  24.455  0.00  0.00     0.100 C 
BRANCH  25  26
HETATM   26  C   UNL     1      11.961  15.320  23.219  0.00  0.00    -0.052 A 
HETATM   27  C   UNL     1      12.252  14.782  21.954  0.00  0.00     0.007 A 
HETATM   28  C   UNL     1      11.526  15.178  20.829  0.00  0.00     0.001 A 
HETATM   29  C   UNL     1      10.512  16.125  20.953  0.00  0.00     0.000 A 
HETATM   30  C   UNL     1      10.236  16.692  22.196  0.00  0.00     0.001 A 
HETATM   31  C   UNL     1      10.958  16.295  23.323  0.00  0.00     0.007 A 
ENDBRANCH  25  26
ENDBRANCH  10  25
TORSDOF 6
ENDMDL
MODEL 6
REMARK VINA RESULT:    -8.073      2.635      3.860
REMARK INTER + INTRA:         -13.292
REMARK INTER:                 -10.896
REMARK INTRA:                  -2.395
REMARK UNBOUND:                -2.623
REMARK  6 active torsions:
REMARK  status: ('A' for Active; 'I' for Inactive)
REMARK    1  A    between atoms: C_7  and  C_8 
REMARK    2  A    between atoms: C_8  and  N_9 
REMARK       I    between atoms: N_9  and  C_11 
REMARK    3  A    between atoms: C_11  and  C_13 
REMARK    4  A    between atoms: C_15  and  O_16 
REMARK    5  A    between atoms: C_23  and  C_24 
REMARK    6  A    between atoms: C_24  and  C_25 
ROOT
HETATM    1  C   UNL     1      10.293  13.565  21.433  0.00  0.00     0.066 C 
HETATM    2  C   UNL     1       8.981  13.405  21.964  0.00  0.00     0.035 C 
HETATM    3  C   UNL     1      10.638  12.758  20.348  0.00  0.00     0.083 C 
HETATM    4  C   UNL     1       9.712  11.964  19.659  0.00  0.00     0.069 C 
HETATM    5  C   UNL     1       8.439  11.857  20.205  0.00  0.00     0.065 A 
HETATM    6  C   UNL     1       8.062  12.503  21.375  0.00  0.00     0.020 A 
HETATM    7  N   UNL     1       7.359  11.112  19.826  0.00  0.00    -0.277 N 
HETATM    8  H   UNL     1       7.273  10.526  19.004  0.00  0.00     0.189 HD
HETATM    9  N   UNL     1       6.366  11.098  20.723  0.00  0.00    -0.178 NA
HETATM   10  C   UNL     1       6.786  11.933  21.690  0.00  0.00     0.071 A 
ENDROOT
BRANCH   1  11
HETATM   11  C   UNL     1      11.193  14.517  22.180  0.00  0.00     0.256 C 
HETATM   12  N   UNL     1      11.814  14.248  23.412  0.00  0.00    -0.348 N 
HETATM   13  C   UNL     1      12.888  15.158  23.799  0.00  0.00     0.153 C 
HETATM   14  O   UNL     1      11.440  15.579  21.592  0.00  0.00    -0.267 OA
BRANCH  12  15
HETATM   15  C   UNL     1      11.606  13.107  24.303  0.00  0.00     0.164 C 
BRANCH  15  16
HETATM   16  C   UNL     1      10.310  13.123  25.116  0.00  0.00    -0.040 A 
HETATM   17  C   UNL     1       9.653  11.900  25.322  0.00  0.00     0.010 A 
HETATM   18  C   UNL     1       8.352  11.861  25.830  0.00  0.00     0.024 A 
HETATM   19  C   UNL     1       7.699  13.049  26.149  0.00  0.00     0.034 A 
HETATM   20 CL   UNL     1       6.051  13.007  26.646  0.00  0.00    -0.084 Cl
HETATM   21  C   UNL     1       8.356  14.271  26.029  0.00  0.00     0.024 A 
HETATM   22  C   UNL     1       9.662  14.310  25.523  0.00  0.00     0.010 A 
ENDBRANCH  15  16
ENDBRANCH  12  15
ENDBRANCH   1  11
BRANCH   3  23
HETATM   23  O   UNL     1      11.917  12.584  19.918  0.00  0.00    -0.360 OA
HETATM   24  H   UNL     1      12.490  12.695  20.699  0.00  0.00     0.217 HD
ENDBRANCH   3  23
BRANCH  10  25
HETATM   25  C   UNL     1       6.048  11.974  22.987  0.00  0.00     0.100 C 
BRANCH  25  26
HETATM   26  C   UNL     1       5.349  13.301  23.125  0.00  0.00    -0.052 A 
HETATM   27  C   UNL     1       3.968  13.362  23.375  0.00  0.00     0.007 A 
HETATM   28  C   UNL     1       3.348  14.584  23.639  0.00  0.00     0.001 A 
HETATM   29  C   UNL     1       4.097  15.759  23.645  0.00  0.00     0.000 A 
HETATM   30  C   UNL     1       5.462  15.716  23.365  0.00  0.00     0.001 A 
HETATM   31  C   UNL     1       6.085  14.495  23.103  0.00  0.00     0.007 A 
ENDBRANCH  25  26
ENDBRANCH  10  25
TORSDOF 6
ENDMDL
MODEL 7
REMARK VINA RESULT:    -7.946      2.591      3.786
REMARK INTER + INTRA:         -13.124
REMARK INTER:                 -10.237
REMARK INTRA:                  -2.887
REMARK UNBOUND:                -2.623
REMARK  6 active torsions:
REMARK  status: ('A' for Active; 'I' for Inactive)
REMARK    1  A    between atoms: C_7  and  C_8 
REMARK    2  A    between atoms: C_8  and  N_9 
REMARK       I    between atoms: N_9  and  C_11 
REMARK    3  A    between atoms: C_11  and  C_13 
REMARK    4  A    between atoms: C_15  and  O_16 
REMARK    5  A    between atoms: C_23  and  C_24 
REMARK    6  A    between atoms: C_24  and  C_25 
ROOT
HETATM    1  C   UNL     1      11.712  12.751  24.205  0.00  0.00     0.066 C 
HETATM    2  C   UNL     1      11.155  13.527  23.148  0.00  0.00     0.035 C 
HETATM    3  C   UNL     1      11.965  11.405  23.935  0.00  0.00     0.083 C 
HETATM    4  C   UNL     1      11.880  10.852  22.651  0.00  0.00     0.069 C 
HETATM    5  C   UNL     1      11.349  11.656  21.649  0.00  0.00     0.065 A 
HETATM    6  C   UNL     1      10.924  12.959  21.871  0.00  0.00     0.020 A 
HETATM    7  N   UNL     1      11.064  11.390  20.340  0.00  0.00    -0.277 N 
HETATM    8  H   UNL     1      11.256  10.536  19.830  0.00  0.00     0.189 HD
HETATM    9  N   UNL     1      10.356  12.347  19.731  0.00  0.00    -0.178 NA
HETATM   10  C   UNL     1      10.244  13.313  20.661  0.00  0.00     0.071 A 
ENDROOT
BRANCH   1  11
HETATM   11  C   UNL     1      11.863  13.457  25.529  0.00  0.00     0.256 C 
HETATM   12  N   UNL     1      10.884  14.263  26.134  0.00  0.00    -0.348 N 
HETATM   13  C   UNL     1      11.098  14.581  27.543  0.00  0.00     0.153 C 
HETATM   14  O   UNL     1      12.917  13.219  26.135  0.00  0.00    -0.267 OA
BRANCH  12  15
HETATM   15  C   UNL     1       9.618  14.730  25.571  0.00  0.00     0.164 C 
BRANCH  15  16
HETATM   16  C   UNL     1       8.390  13.877  25.893  0.00  0.00    -0.040 A 
HETATM   17  C   UNL     1       8.349  12.570  25.382  0.00  0.00     0.010 A 
HETATM   18  C   UNL     1       7.170  11.822  25.417  0.00  0.00     0.024 A 
HETATM   19  C   UNL     1       6.019  12.371  25.977  0.00  0.00     0.034 A 
HETATM   20 CL   UNL     1       4.535  11.503  25.898  0.00  0.00    -0.084 Cl
HETATM   21  C   UNL     1       6.053  13.634  26.563  0.00  0.00     0.024 A 
HETATM   22  C   UNL     1       7.236  14.383  26.531  0.00  0.00     0.010 A 
ENDBRANCH  15  16
ENDBRANCH  12  15
ENDBRANCH   1  11
BRANCH   3  23
HETATM   23  O   UNL     1      12.219  10.480  24.900  0.00  0.00    -0.360 OA
HETATM   24  H   UNL     1      13.080  10.719  25.292  0.00  0.00     0.217 HD
ENDBRANCH   3  23
BRANCH  10  25
HETATM   25  C   UNL     1       9.294  14.442  20.428  0.00  0.00     0.100 C 
BRANCH  25  26
HETATM   26  C   UNL     1       8.121  14.311  21.362  0.00  0.00    -0.052 A 
HETATM   27  C   UNL     1       7.715  15.393  22.160  0.00  0.00     0.007 A 
HETATM   28  C   UNL     1       6.547  15.316  22.921  0.00  0.00     0.001 A 
HETATM   29  C   UNL     1       5.780  14.153  22.902  0.00  0.00     0.000 A 
HETATM   30  C   UNL     1       6.190  13.060  22.142  0.00  0.00     0.001 A 
HETATM   31  C   UNL     1       7.356  13.135  21.378  0.00  0.00     0.007 A 
ENDBRANCH  25  26
ENDBRANCH  10  25
TORSDOF 6
ENDMDL
MODEL 8
REMARK VINA RESULT:    -7.909      3.500      6.095
REMARK INTER + INTRA:         -13.075
REMARK INTER:                 -10.452
REMARK INTRA:                  -2.623
REMARK UNBOUND:                -2.623
REMARK  6 active torsions:
REMARK  status: ('A' for Active; 'I' for Inactive)
REMARK    1  A    between atoms: C_7  and  C_8 
REMARK    2  A    between atoms: C_8  and  N_9 
REMARK       I    between atoms: N_9  and  C_11 
REMARK    3  A    between atoms: C_11  and  C_13 
REMARK    4  A    between atoms: C_15  and  O_16 
REMARK    5  A    between atoms: C_23  and  C_24 
REMARK    6  A    between atoms: C_24  and  C_25 
ROOT
HETATM    1  C   UNL     1       5.422  13.544  22.925  0.00  0.00     0.066 C 
HETATM    2  C   UNL     1       6.668  14.023  22.426  0.00  0.00     0.035 C 
HETATM    3  C   UNL     1       4.964  12.328  22.416  0.00  0.00     0.083 C 
HETATM    4  C   UNL     1       5.746  11.491  21.610  0.00  0.00     0.069 C 
HETATM    5  C   UNL     1       6.963  11.996  21.167  0.00  0.00     0.065 A 
HETATM    6  C   UNL     1       7.421  13.264  21.498  0.00  0.00     0.020 A 
HETATM    7  N   UNL     1       7.898  11.472  20.320  0.00  0.00    -0.277 N 
HETATM    8  H   UNL     1       7.896  10.552  19.895  0.00  0.00     0.189 HD
HETATM    9  N   UNL     1       8.846  12.340  19.953  0.00  0.00    -0.178 NA
HETATM   10  C   UNL     1       8.561  13.453  20.652  0.00  0.00     0.071 A 
ENDROOT
BRANCH   1  11
HETATM   11  C   UNL     1       4.693  14.468  23.868  0.00  0.00     0.256 C 
HETATM   12  N   UNL     1       4.843  14.482  25.266  0.00  0.00    -0.348 N 
HETATM   13  C   UNL     1       4.306  15.651  25.955  0.00  0.00     0.153 C 
HETATM   14  O   UNL     1       3.975  15.317  23.324  0.00  0.00    -0.267 OA
BRANCH  12  15
HETATM   15  C   UNL     1       5.570  13.535  26.110  0.00  0.00     0.164 C 
BRANCH  15  16
HETATM   16  C   UNL     1       7.078  13.446  25.868  0.00  0.00    -0.040 A 
HETATM   17  C   UNL     1       7.628  12.177  25.629  0.00  0.00     0.010 A 
HETATM   18  C   UNL     1       9.011  11.979  25.648  0.00  0.00     0.024 A 
HETATM   19  C   UNL     1       9.860  13.056  25.895  0.00  0.00     0.034 A 
HETATM   20 CL   UNL     1      11.553  12.786  26.053  0.00  0.00    -0.084 Cl
HETATM   21  C   UNL     1       9.344  14.339  26.056  0.00  0.00     0.024 A 
HETATM   22  C   UNL     1       7.958  14.538  26.032  0.00  0.00     0.010 A 
ENDBRANCH  15  16
ENDBRANCH  12  15
ENDBRANCH   1  11
BRANCH   3  23
HETATM   23  O   UNL     1       3.687  11.884  22.568  0.00  0.00    -0.360 OA
HETATM   24  H   UNL     1       3.188  12.612  22.984  0.00  0.00     0.217 HD
ENDBRANCH   3  23
BRANCH  10  25
HETATM   25  C   UNL     1       9.260  14.727  20.309  0.00  0.00     0.100 C 
BRANCH  25  26
HETATM   26  C   UNL     1      10.175  15.118  21.438  0.00  0.00    -0.052 A 
HETATM   27  C   UNL     1       9.913  16.260  22.213  0.00  0.00     0.007 A 
HETATM   28  C   UNL     1      10.681  16.544  23.343  0.00  0.00     0.001 A 
HETATM   29  C   UNL     1      11.725  15.696  23.706  0.00  0.00     0.000 A 
HETATM   30  C   UNL     1      12.018  14.578  22.927  0.00  0.00     0.001 A 
HETATM   31  C   UNL     1      11.249  14.291  21.798  0.00  0.00     0.007 A 
ENDBRANCH  25  26
ENDBRANCH  10  25
TORSDOF 6
ENDMDL
MODEL 9
REMARK VINA RESULT:    -7.894      2.379      3.827
REMARK INTER + INTRA:         -13.056
REMARK INTER:                 -10.140
REMARK INTRA:                  -2.916
REMARK UNBOUND:                -2.623
REMARK  6 active torsions:
REMARK  status: ('A' for Active; 'I' for Inactive)
REMARK    1  A    between atoms: C_7  and  C_8 
REMARK    2  A    between atoms: C_8  and  N_9 
REMARK       I    between atoms: N_9  and  C_11 
REMARK    3  A    between atoms: C_11  and  C_13 
REMARK    4  A    between atoms: C_15  and  O_16 
REMARK    5  A    between atoms: C_23  and  C_24 
REMARK    6  A    between atoms: C_24  and  C_25 
ROOT
HETATM    1  C   UNL     1      10.739  11.671  25.016  0.00  0.00     0.066 C 
HETATM    2  C   UNL     1       9.358  11.943  24.798  0.00  0.00     0.035 C 
HETATM    3  C   UNL     1      11.375  10.846  24.088  0.00  0.00     0.083 C 
HETATM    4  C   UNL     1      10.781  10.448  22.884  0.00  0.00     0.069 C 
HETATM    5  C   UNL     1       9.437  10.755  22.708  0.00  0.00     0.065 A 
HETATM    6  C   UNL     1       8.688  11.436  23.658  0.00  0.00     0.020 A 
HETATM    7  N   UNL     1       8.568  10.441  21.703  0.00  0.00    -0.277 N 
HETATM    8  H   UNL     1       8.777   9.957  20.837  0.00  0.00     0.189 HD
HETATM    9  N   UNL     1       7.291  10.724  21.980  0.00  0.00    -0.178 NA
HETATM   10  C   UNL     1       7.341  11.320  23.185  0.00  0.00     0.071 A 
ENDROOT
BRANCH   1  11
HETATM   11  C   UNL     1      11.324  12.225  26.292  0.00  0.00     0.256 C 
HETATM   12  N   UNL     1      12.062  13.417  26.395  0.00  0.00    -0.348 N 
HETATM   13  C   UNL     1      12.253  13.937  27.745  0.00  0.00     0.153 C 
HETATM   14  O   UNL     1      11.043  11.591  27.319  0.00  0.00    -0.267 OA
BRANCH  12  15
HETATM   15  C   UNL     1      12.564  14.269  25.318  0.00  0.00     0.164 C 
BRANCH  15  16
HETATM   16  C   UNL     1      11.522  14.748  24.305  0.00  0.00    -0.040 A 
HETATM   17  C   UNL     1      10.371  15.381  24.802  0.00  0.00     0.010 A 
HETATM   18  C   UNL     1       9.270  15.620  23.976  0.00  0.00     0.024 A 
HETATM   19  C   UNL     1       9.314  15.237  22.638  0.00  0.00     0.034 A 
HETATM   20 CL   UNL     1       7.910  15.407  21.656  0.00  0.00    -0.084 Cl
HETATM   21  C   UNL     1      10.472  14.679  22.100  0.00  0.00     0.024 A 
HETATM   22  C   UNL     1      11.577  14.444  22.928  0.00  0.00     0.010 A 
ENDBRANCH  15  16
ENDBRANCH  12  15
ENDBRANCH   1  11
BRANCH   3  23
HETATM   23  O   UNL     1      12.588  10.268  24.304  0.00  0.00    -0.360 OA
HETATM   24  H   UNL     1      12.625   9.480  23.730  0.00  0.00     0.217 HD
ENDBRANCH   3  23
BRANCH  10  25
HETATM   25  C   UNL     1       6.071  11.550  23.937  0.00  0.00     0.100 C 
BRANCH  25  26
HETATM   26  C   UNL     1       5.810  13.029  24.039  0.00  0.00    -0.052 A 
HETATM   27  C   UNL     1       5.087  13.701  23.039  0.00  0.00     0.007 A 
HETATM   28  C   UNL     1       4.726  15.040  23.201  0.00  0.00     0.001 A 
HETATM   29  C   UNL     1       5.093  15.725  24.357  0.00  0.00     0.000 A 
HETATM   30  C   UNL     1       5.840  15.079  25.342  0.00  0.00     0.001 A 
HETATM   31  C   UNL     1       6.200  13.740  25.183  0.00  0.00     0.007 A 
ENDBRANCH  25  26
ENDBRANCH  10  25
TORSDOF 6
ENDMDL
