MODEL 1
REMARK VINA RESULT:    -7.378      0.000      0.000
REMARK INTER + INTRA:          -8.679
REMARK INTER:                  -8.311
REMARK INTRA:                  -0.369
REMARK UNBOUND:                -0.439
REMARK  3 active torsions:
REMARK  status: ('A' for Active; 'I' for Inactive)
REMARK    1  A    between atoms: C_8  and  N_9 
REMARK    2  A    between atoms: C_11  and  C_12 
REMARK       I    between atoms: C_12  and  N_14 
REMARK    3  A    between atoms: C_20  and  O_21 
ROOT
HETATM    1  C   UNL     1       5.013  11.124  18.417  0.00  0.00     0.016 A 
HETATM    2  C   UNL     1       4.148  10.809  17.368  0.00  0.00     0.001 A 
HETATM    3  C   UNL     1       3.624   9.528  17.281  0.00  0.00     0.002 A 
HETATM    4  C   UNL     1       3.991   8.571  18.230  0.00  0.00     0.032 A 
HETATM    5  C   UNL     1       4.874   8.858  19.266  0.00  0.00     0.072 A 
HETATM    6  C   UNL     1       5.379  10.154  19.392  0.00  0.00     0.027 A 
HETATM    7  N   UNL     1       5.215   7.857  20.085  0.00  0.00    -0.218 NA
HETATM    8  C   UNL     1       6.071   8.116  21.068  0.00  0.00     0.200 A 
HETATM    9  N   UNL     1       6.571   9.311  21.345  0.00  0.00    -0.212 NA
HETATM   10  C   UNL     1       6.237  10.316  20.494  0.00  0.00     0.140 A 
ENDROOT
BRANCH  10  11
HETATM   11  C   UNL     1       6.874  11.649  20.823  0.00  0.00     0.273 C 
HETATM   12  O   UNL     1       8.060  11.847  20.565  0.00  0.00    -0.266 OA
HETATM   13  N   UNL     1       6.111  12.641  21.441  0.00  0.00    -0.342 N 
HETATM   14  C   UNL     1       6.680  13.941  21.787  0.00  0.00     0.139 C 
HETATM   15  C   UNL     1       4.724  12.541  21.846  0.00  0.00     0.161 C 
HETATM   16  C   UNL     1       5.939  14.312  23.070  0.00  0.00     0.057 C 
HETATM   17  C   UNL     1       4.615  13.602  22.900  0.00  0.00    -0.050 C 
HETATM   18  C   UNL     1       5.715  15.750  23.450  0.00  0.00    -0.013 C 
HETATM   19  C   UNL     1       3.515  13.928  23.594  0.00  0.00     0.041 C 
HETATM   20  C   UNL     1       3.588  15.097  24.509  0.00  0.00     0.065 C 
HETATM   21  C   UNL     1       4.638  16.112  24.174  0.00  0.00     0.033 C 
BRANCH  20  22
HETATM   22  O   UNL     1       2.766  15.215  25.497  0.00  0.00    -0.361 OA
HETATM   23  H   UNL     1       2.385  16.121  25.572  0.00  0.00     0.217 HD
ENDBRANCH  20  22
ENDBRANCH  10  11
BRANCH   8  24
HETATM   24  N   UNL     1       6.490   7.052  21.838  0.00  0.00    -0.271 NA
HETATM   25  H   UNL     1       7.359   7.293  22.298  0.00  0.00     0.127 HD
HETATM   26  H   UNL     1       6.479   6.191  21.313  0.00  0.00     0.127 HD
ENDBRANCH   8  24
TORSDOF 3
ENDMDL
MODEL 2
REMARK VINA RESULT:    -7.264      2.438      4.108
REMARK INTER + INTRA:          -8.553
REMARK INTER:                  -8.118
REMARK INTRA:                  -0.435
REMARK UNBOUND:                -0.439
REMARK  3 active torsions:
REMARK  status: ('A' for Active; 'I' for Inactive)
REMARK    1  A    between atoms: C_8  and  N_9 
REMARK    2  A    between atoms: C_11  and  C_12 
REMARK       I    between atoms: C_12  and  N_14 
REMARK    3  A    between atoms: C_20  and  O_21 
ROOT
HETATM    1  C   UNL     1       5.361   8.843  21.205  0.00  0.00     0.016 A 
HETATM    2  C   UNL     1       5.717   7.495  21.144  0.00  0.00     0.001 A 
HETATM    3  C   UNL     1       5.794   6.868  19.909  0.00  0.00     0.002 A 
HETATM    4  C   UNL     1       5.489   7.591  18.753  0.00  0.00     0.032 A 
HETATM    5  C   UNL     1       5.104   8.928  18.797  0.00  0.00     0.072 A 
HETATM    6  C   UNL     1       5.063   9.584  20.028  0.00  0.00     0.027 A 
HETATM    7  N   UNL     1       4.769   9.514  17.642  0.00  0.00    -0.218 NA
HETATM    8  C   UNL     1       4.385  10.785  17.674  0.00  0.00     0.200 A 
HETATM    9  N   UNL     1       4.366  11.547  18.759  0.00  0.00    -0.212 NA
HETATM   10  C   UNL     1       4.685  10.936  19.929  0.00  0.00     0.140 A 
ENDROOT
BRANCH  10  11
HETATM   11  C   UNL     1       4.600  11.834  21.145  0.00  0.00     0.273 C 
HETATM   12  O   UNL     1       3.524  11.993  21.719  0.00  0.00    -0.266 OA
HETATM   13  N   UNL     1       5.744  12.496  21.592  0.00  0.00    -0.342 N 
HETATM   14  C   UNL     1       5.713  13.380  22.755  0.00  0.00     0.139 C 
HETATM   15  C   UNL     1       7.064  12.445  20.996  0.00  0.00     0.161 C 
HETATM   16  C   UNL     1       6.739  14.454  22.399  0.00  0.00     0.057 C 
HETATM   17  C   UNL     1       7.698  13.705  21.502  0.00  0.00    -0.050 C 
HETATM   18  C   UNL     1       7.494  15.191  23.470  0.00  0.00    -0.013 C 
HETATM   19  C   UNL     1       8.943  14.132  21.244  0.00  0.00     0.041 C 
HETATM   20  C   UNL     1       9.423  15.352  21.944  0.00  0.00     0.065 C 
HETATM   21  C   UNL     1       8.735  15.662  23.239  0.00  0.00     0.033 C 
BRANCH  20  22
HETATM   22  O   UNL     1      10.389  16.056  21.458  0.00  0.00    -0.361 OA
HETATM   23  H   UNL     1      10.134  16.541  20.639  0.00  0.00     0.217 HD
ENDBRANCH  20  22
ENDBRANCH  10  11
BRANCH   8  24
HETATM   24  N   UNL     1       3.945  11.343  16.493  0.00  0.00    -0.271 NA
HETATM   25  H   UNL     1       3.342  12.130  16.697  0.00  0.00     0.127 HD
HETATM   26  H   UNL     1       3.577  10.641  15.869  0.00  0.00     0.127 HD
ENDBRANCH   8  24
TORSDOF 3
ENDMDL
MODEL 3
REMARK VINA RESULT:    -7.241      2.001      3.110
REMARK INTER + INTRA:          -8.526
REMARK INTER:                  -8.222
REMARK INTRA:                  -0.305
REMARK UNBOUND:                -0.439
REMARK  3 active torsions:
REMARK  status: ('A' for Active; 'I' for Inactive)
REMARK    1  A    between atoms: C_8  and  N_9 
REMARK    2  A    between atoms: C_11  and  C_12 
REMARK       I    between atoms: C_12  and  N_14 
REMARK    3  A    between atoms: C_20  and  O_21 
ROOT
HETATM    1  C   UNL     1       4.240  11.051  18.337  0.00  0.00     0.016 A 
HETATM    2  C   UNL     1       3.994  10.884  16.973  0.00  0.00     0.001 A 
HETATM    3  C   UNL     1       4.335   9.687  16.363  0.00  0.00     0.002 A 
HETATM    4  C   UNL     1       4.941   8.680  17.119  0.00  0.00     0.032 A 
HETATM    5  C   UNL     1       5.221   8.839  18.473  0.00  0.00     0.072 A 
HETATM    6  C   UNL     1       4.846  10.023  19.111  0.00  0.00     0.027 A 
HETATM    7  N   UNL     1       5.863   7.844  19.094  0.00  0.00    -0.218 NA
HETATM    8  C   UNL     1       6.150   7.992  20.382  0.00  0.00     0.200 A 
HETATM    9  N   UNL     1       5.793   9.028  21.127  0.00  0.00    -0.212 NA
HETATM   10  C   UNL     1       5.161  10.044  20.482  0.00  0.00     0.140 A 
ENDROOT
BRANCH  10  11
HETATM   11  C   UNL     1       4.820  11.226  21.364  0.00  0.00     0.273 C 
HETATM   12  O   UNL     1       3.655  11.425  21.705  0.00  0.00    -0.266 OA
HETATM   13  N   UNL     1       5.832  12.098  21.766  0.00  0.00    -0.342 N 
HETATM   14  C   UNL     1       5.555  13.258  22.609  0.00  0.00     0.139 C 
HETATM   15  C   UNL     1       7.235  12.022  21.409  0.00  0.00     0.161 C 
HETATM   16  C   UNL     1       6.564  14.293  22.116  0.00  0.00     0.057 C 
HETATM   17  C   UNL     1       7.702  13.431  21.620  0.00  0.00    -0.050 C 
HETATM   18  C   UNL     1       7.083  15.369  23.029  0.00  0.00    -0.013 C 
HETATM   19  C   UNL     1       8.946  13.895  21.436  0.00  0.00     0.041 C 
HETATM   20  C   UNL     1       9.230  15.303  21.820  0.00  0.00     0.065 C 
HETATM   21  C   UNL     1       8.317  15.883  22.858  0.00  0.00     0.033 C 
BRANCH  20  22
HETATM   22  O   UNL     1      10.222  15.943  21.301  0.00  0.00    -0.361 OA
HETATM   23  H   UNL     1       9.961  16.817  20.928  0.00  0.00     0.217 HD
ENDBRANCH  20  22
ENDBRANCH  10  11
BRANCH   8  24
HETATM   24  N   UNL     1       6.901   7.003  20.981  0.00  0.00    -0.271 NA
HETATM   25  H   UNL     1       6.371   6.590  21.738  0.00  0.00     0.127 HD
HETATM   26  H   UNL     1       7.829   7.331  21.205  0.00  0.00     0.127 HD
ENDBRANCH   8  24
TORSDOF 3
ENDMDL
MODEL 4
REMARK VINA RESULT:    -7.191      3.440      6.019
REMARK INTER + INTRA:          -8.471
REMARK INTER:                  -8.035
REMARK INTRA:                  -0.436
REMARK UNBOUND:                -0.439
REMARK  3 active torsions:
REMARK  status: ('A' for Active; 'I' for Inactive)
REMARK    1  A    between atoms: C_8  and  N_9 
REMARK    2  A    between atoms: C_11  and  C_12 
REMARK       I    between atoms: C_12  and  N_14 
REMARK    3  A    between atoms: C_20  and  O_21 
ROOT
HETATM    1  C   UNL     1       8.641  14.677  21.881  0.00  0.00     0.016 A 
HETATM    2  C   UNL     1       9.183  15.879  21.423  0.00  0.00     0.001 A 
HETATM    3  C   UNL     1      10.225  16.466  22.126  0.00  0.00     0.002 A 
HETATM    4  C   UNL     1      10.695  15.857  23.292  0.00  0.00     0.032 A 
HETATM    5  C   UNL     1      10.148  14.673  23.780  0.00  0.00     0.072 A 
HETATM    6  C   UNL     1       9.127  14.048  23.061  0.00  0.00     0.027 A 
HETATM    7  N   UNL     1      10.622  14.204  24.938  0.00  0.00    -0.218 NA
HETATM    8  C   UNL     1      10.096  13.084  25.422  0.00  0.00     0.200 A 
HETATM    9  N   UNL     1       9.174  12.352  24.813  0.00  0.00    -0.212 NA
HETATM   10  C   UNL     1       8.683  12.849  23.648  0.00  0.00     0.140 A 
ENDROOT
BRANCH  10  11
HETATM   11  C   UNL     1       7.597  12.004  23.017  0.00  0.00     0.273 C 
HETATM   12  O   UNL     1       7.894  11.008  22.359  0.00  0.00    -0.266 OA
HETATM   13  N   UNL     1       6.261  12.376  23.170  0.00  0.00    -0.342 N 
HETATM   14  C   UNL     1       5.176  11.600  22.574  0.00  0.00     0.139 C 
HETATM   15  C   UNL     1       5.760  13.541  23.872  0.00  0.00     0.161 C 
HETATM   16  C   UNL     1       4.142  12.667  22.221  0.00  0.00     0.057 C 
HETATM   17  C   UNL     1       4.408  13.736  23.256  0.00  0.00    -0.050 C 
HETATM   18  C   UNL     1       2.675  12.341  22.172  0.00  0.00    -0.013 C 
HETATM   19  C   UNL     1       3.519  14.690  23.568  0.00  0.00     0.041 C 
HETATM   20  C   UNL     1       2.180  14.635  22.923  0.00  0.00     0.065 C 
HETATM   21  C   UNL     1       1.750  13.280  22.450  0.00  0.00     0.033 C 
BRANCH  20  22
HETATM   22  O   UNL     1       1.451  15.695  22.823  0.00  0.00    -0.361 OA
HETATM   23  H   UNL     1       0.500  15.492  22.662  0.00  0.00     0.217 HD
ENDBRANCH  20  22
ENDBRANCH  10  11
BRANCH   8  24
HETATM   24  N   UNL     1      10.523  12.669  26.666  0.00  0.00    -0.271 NA
HETATM   25  H   UNL     1      10.372  13.411  27.338  0.00  0.00     0.127 HD
HETATM   26  H   UNL     1      11.452  12.278  26.624  0.00  0.00     0.127 HD
ENDBRANCH   8  24
TORSDOF 3
ENDMDL
MODEL 5
REMARK VINA RESULT:    -7.149      3.374      5.563
REMARK INTER + INTRA:          -8.424
REMARK INTER:                  -7.995
REMARK INTRA:                  -0.429
REMARK UNBOUND:                -0.439
REMARK  3 active torsions:
REMARK  status: ('A' for Active; 'I' for Inactive)
REMARK    1  A    between atoms: C_8  and  N_9 
REMARK    2  A    between atoms: C_11  and  C_12 
REMARK       I    between atoms: C_12  and  N_14 
REMARK    3  A    between atoms: C_20  and  O_21 
ROOT
HETATM    1  C   UNL     1       3.691  14.298  24.629  0.00  0.00     0.016 A 
HETATM    2  C   UNL     1       2.464  14.956  24.524  0.00  0.00     0.001 A 
HETATM    3  C   UNL     1       1.440  14.372  23.794  0.00  0.00     0.002 A 
HETATM    4  C   UNL     1       1.663  13.150  23.157  0.00  0.00     0.032 A 
HETATM    5  C   UNL     1       2.888  12.492  23.226  0.00  0.00     0.072 A 
HETATM    6  C   UNL     1       3.916  13.047  23.991  0.00  0.00     0.027 A 
HETATM    7  N   UNL     1       3.023  11.360  22.527  0.00  0.00    -0.218 NA
HETATM    8  C   UNL     1       4.193  10.733  22.572  0.00  0.00     0.200 A 
HETATM    9  N   UNL     1       5.229  11.107  23.310  0.00  0.00    -0.212 NA
HETATM   10  C   UNL     1       5.089  12.270  23.997  0.00  0.00     0.140 A 
ENDROOT
BRANCH  10  11
HETATM   11  C   UNL     1       6.316  12.681  24.784  0.00  0.00     0.273 C 
HETATM   12  O   UNL     1       6.385  12.442  25.988  0.00  0.00    -0.266 OA
HETATM   13  N   UNL     1       7.354  13.352  24.136  0.00  0.00    -0.342 N 
HETATM   14  C   UNL     1       8.555  13.778  24.851  0.00  0.00     0.139 C 
HETATM   15  C   UNL     1       7.397  13.742  22.741  0.00  0.00     0.161 C 
HETATM   16  C   UNL     1       8.937  15.076  24.142  0.00  0.00     0.057 C 
HETATM   17  C   UNL     1       8.401  14.856  22.746  0.00  0.00    -0.050 C 
HETATM   18  C   UNL     1      10.366  15.538  24.086  0.00  0.00    -0.013 C 
HETATM   19  C   UNL     1       8.815  15.561  21.683  0.00  0.00     0.041 C 
HETATM   20  C   UNL     1       9.912  16.545  21.882  0.00  0.00     0.065 C 
HETATM   21  C   UNL     1      10.812  16.276  23.050  0.00  0.00     0.033 C 
BRANCH  20  22
HETATM   22  O   UNL     1      10.069  17.533  21.068  0.00  0.00    -0.361 OA
HETATM   23  H   UNL     1       9.496  18.305  21.288  0.00  0.00     0.217 HD
ENDBRANCH  20  22
ENDBRANCH  10  11
BRANCH   8  24
HETATM   24  N   UNL     1       4.349   9.625  21.767  0.00  0.00    -0.271 NA
HETATM   25  H   UNL     1       3.868   8.837  22.182  0.00  0.00     0.127 HD
HETATM   26  H   UNL     1       5.317   9.484  21.518  0.00  0.00     0.127 HD
ENDBRANCH   8  24
TORSDOF 3
ENDMDL
MODEL 6
REMARK VINA RESULT:    -7.149      2.194      6.929
REMARK INTER + INTRA:          -8.424
REMARK INTER:                  -8.020
REMARK INTRA:                  -0.403
REMARK UNBOUND:                -0.439
REMARK  3 active torsions:
REMARK  status: ('A' for Active; 'I' for Inactive)
REMARK    1  A    between atoms: C_8  and  N_9 
REMARK    2  A    between atoms: C_11  and  C_12 
REMARK       I    between atoms: C_12  and  N_14 
REMARK    3  A    between atoms: C_20  and  O_21 
ROOT
HETATM    1  C   UNL     1       5.123  13.430  23.773  0.00  0.00     0.016 A 
HETATM    2  C   UNL     1       4.272  14.397  24.311  0.00  0.00     0.001 A 
HETATM    3  C   UNL     1       4.610  15.737  24.199  0.00  0.00     0.002 A 
HETATM    4  C   UNL     1       5.808  16.093  23.574  0.00  0.00     0.032 A 
HETATM    5  C   UNL     1       6.683  15.142  23.058  0.00  0.00     0.072 A 
HETATM    6  C   UNL     1       6.337  13.791  23.125  0.00  0.00     0.027 A 
HETATM    7  N   UNL     1       7.835  15.578  22.538  0.00  0.00    -0.218 NA
HETATM    8  C   UNL     1       8.686  14.678  22.057  0.00  0.00     0.200 A 
HETATM    9  N   UNL     1       8.457  13.374  21.993  0.00  0.00    -0.212 NA
HETATM   10  C   UNL     1       7.295  12.939  22.544  0.00  0.00     0.140 A 
ENDROOT
BRANCH  10  11
HETATM   11  C   UNL     1       7.103  11.438  22.492  0.00  0.00     0.273 C 
HETATM   12  O   UNL     1       7.689  10.713  23.294  0.00  0.00    -0.266 OA
HETATM   13  N   UNL     1       6.276  10.885  21.514  0.00  0.00    -0.342 N 
HETATM   14  C   UNL     1       6.064   9.443  21.415  0.00  0.00     0.139 C 
HETATM   15  C   UNL     1       5.560  11.601  20.478  0.00  0.00     0.161 C 
HETATM   16  C   UNL     1       5.904   9.220  19.912  0.00  0.00     0.057 C 
HETATM   17  C   UNL     1       5.332  10.539  19.445  0.00  0.00    -0.050 C 
HETATM   18  C   UNL     1       5.084   8.077  19.380  0.00  0.00    -0.013 C 
HETATM   19  C   UNL     1       4.694  10.686  18.275  0.00  0.00     0.041 C 
HETATM   20  C   UNL     1       4.468   9.474  17.445  0.00  0.00     0.065 C 
HETATM   21  C   UNL     1       4.453   8.176  18.194  0.00  0.00     0.033 C 
BRANCH  20  22
HETATM   22  O   UNL     1       4.270   9.571  16.174  0.00  0.00    -0.361 OA
HETATM   23  H   UNL     1       3.468  10.098  15.950  0.00  0.00     0.217 HD
ENDBRANCH  20  22
ENDBRANCH  10  11
BRANCH   8  24
HETATM   24  N   UNL     1       9.911  15.135  21.619  0.00  0.00    -0.271 NA
HETATM   25  H   UNL     1      10.534  14.349  21.485  0.00  0.00     0.127 HD
HETATM   26  H   UNL     1      10.250  15.889  22.197  0.00  0.00     0.127 HD
ENDBRANCH   8  24
TORSDOF 3
ENDMDL
MODEL 7
REMARK VINA RESULT:    -7.142      4.707      6.173
REMARK INTER + INTRA:          -8.416
REMARK INTER:                  -7.936
REMARK INTRA:                  -0.480
REMARK UNBOUND:                -0.439
REMARK  3 active torsions:
REMARK  status: ('A' for Active; 'I' for Inactive)
REMARK    1  A    between atoms: C_8  and  N_9 
REMARK    2  A    between atoms: C_11  and  C_12 
REMARK       I    between atoms: C_12  and  N_14 
REMARK    3  A    between atoms: C_20  and  O_21 
ROOT
HETATM    1  C   UNL     1       8.430  11.997  24.553  0.00  0.00     0.016 A 
HETATM    2  C   UNL     1       8.901  10.691  24.399  0.00  0.00     0.001 A 
HETATM    3  C   UNL     1      10.040  10.465  23.642  0.00  0.00     0.002 A 
HETATM    4  C   UNL     1      10.680  11.543  23.026  0.00  0.00     0.032 A 
HETATM    5  C   UNL     1      10.209  12.848  23.144  0.00  0.00     0.072 A 
HETATM    6  C   UNL     1       9.088  13.098  23.937  0.00  0.00     0.027 A 
HETATM    7  N   UNL     1      10.853  13.802  22.463  0.00  0.00    -0.218 NA
HETATM    8  C   UNL     1      10.402  15.048  22.554  0.00  0.00     0.200 A 
HETATM    9  N   UNL     1       9.394  15.438  23.323  0.00  0.00    -0.212 NA
HETATM   10  C   UNL     1       8.733  14.458  23.992  0.00  0.00     0.140 A 
ENDROOT
BRANCH  10  11
HETATM   11  C   UNL     1       7.560  14.946  24.814  0.00  0.00     0.273 C 
HETATM   12  O   UNL     1       7.739  15.361  25.958  0.00  0.00    -0.266 OA
HETATM   13  N   UNL     1       6.275  14.901  24.273  0.00  0.00    -0.342 N 
HETATM   14  C   UNL     1       5.108  15.352  25.027  0.00  0.00     0.139 C 
HETATM   15  C   UNL     1       5.903  14.399  22.965  0.00  0.00     0.161 C 
HETATM   16  C   UNL     1       4.002  14.415  24.545  0.00  0.00     0.057 C 
HETATM   17  C   UNL     1       4.450  14.075  23.142  0.00  0.00    -0.050 C 
HETATM   18  C   UNL     1       2.563  14.850  24.543  0.00  0.00    -0.013 C 
HETATM   19  C   UNL     1       3.622  13.582  22.209  0.00  0.00     0.041 C 
HETATM   20  C   UNL     1       2.183  13.446  22.554  0.00  0.00     0.065 C 
HETATM   21  C   UNL     1       1.694  14.354  23.641  0.00  0.00     0.033 C 
BRANCH  20  22
HETATM   22  O   UNL     1       1.427  12.616  21.919  0.00  0.00    -0.361 OA
HETATM   23  H   UNL     1       1.936  11.900  21.471  0.00  0.00     0.217 HD
ENDBRANCH  20  22
ENDBRANCH  10  11
BRANCH   8  24
HETATM   24  N   UNL     1      11.012  16.002  21.767  0.00  0.00    -0.271 NA
HETATM   25  H   UNL     1      10.505  16.875  21.845  0.00  0.00     0.127 HD
HETATM   26  H   UNL     1      11.178  15.656  20.834  0.00  0.00     0.127 HD
ENDBRANCH   8  24
TORSDOF 3
ENDMDL
MODEL 8
REMARK VINA RESULT:    -7.074      1.342      2.880
REMARK INTER + INTRA:          -8.340
REMARK INTER:                  -7.853
REMARK INTRA:                  -0.487
REMARK UNBOUND:                -0.439
REMARK  3 active torsions:
REMARK  status: ('A' for Active; 'I' for Inactive)
REMARK    1  A    between atoms: C_8  and  N_9 
REMARK    2  A    between atoms: C_11  and  C_12 
REMARK       I    between atoms: C_12  and  N_14 
REMARK    3  A    between atoms: C_20  and  O_21 
ROOT
HETATM    1  C   UNL     1       6.968   9.593  22.784  0.00  0.00     0.016 A 
HETATM    2  C   UNL     1       6.837   8.399  23.495  0.00  0.00     0.001 A 
HETATM    3  C   UNL     1       6.405   7.259  22.835  0.00  0.00     0.002 A 
HETATM    4  C   UNL     1       6.083   7.333  21.478  0.00  0.00     0.032 A 
HETATM    5  C   UNL     1       6.180   8.520  20.758  0.00  0.00     0.072 A 
HETATM    6  C   UNL     1       6.654   9.667  21.398  0.00  0.00     0.027 A 
HETATM    7  N   UNL     1       5.787   8.504  19.480  0.00  0.00    -0.218 NA
HETATM    8  C   UNL     1       5.858   9.636  18.789  0.00  0.00     0.200 A 
HETATM    9  N   UNL     1       6.352  10.777  19.248  0.00  0.00    -0.212 NA
HETATM   10  C   UNL     1       6.727  10.790  20.553  0.00  0.00     0.140 A 
ENDROOT
BRANCH  10  11
HETATM   11  C   UNL     1       7.236  12.128  21.044  0.00  0.00     0.273 C 
HETATM   12  O   UNL     1       8.424  12.419  20.921  0.00  0.00    -0.266 OA
HETATM   13  N   UNL     1       6.351  13.018  21.655  0.00  0.00    -0.342 N 
HETATM   14  C   UNL     1       6.792  14.318  22.154  0.00  0.00     0.139 C 
HETATM   15  C   UNL     1       4.941  12.799  21.911  0.00  0.00     0.161 C 
HETATM   16  C   UNL     1       5.909  14.536  23.380  0.00  0.00     0.057 C 
HETATM   17  C   UNL     1       4.660  13.762  23.025  0.00  0.00    -0.050 C 
HETATM   18  C   UNL     1       5.551  15.921  23.843  0.00  0.00    -0.013 C 
HETATM   19  C   UNL     1       3.479  13.961  23.629  0.00  0.00     0.041 C 
HETATM   20  C   UNL     1       3.383  15.054  24.632  0.00  0.00     0.065 C 
HETATM   21  C   UNL     1       4.387  16.156  24.481  0.00  0.00     0.033 C 
BRANCH  20  22
HETATM   22  O   UNL     1       2.466  15.039  25.539  0.00  0.00    -0.361 OA
HETATM   23  H   UNL     1       2.205  14.127  25.806  0.00  0.00     0.217 HD
ENDBRANCH  20  22
ENDBRANCH  10  11
BRANCH   8  24
HETATM   24  N   UNL     1       5.354   9.628  17.506  0.00  0.00    -0.271 NA
HETATM   25  H   UNL     1       5.708  10.430  17.000  0.00  0.00     0.127 HD
HETATM   26  H   UNL     1       4.354   9.498  17.505  0.00  0.00     0.127 HD
ENDBRANCH   8  24
TORSDOF 3
ENDMDL
MODEL 9
REMARK VINA RESULT:    -6.889      3.195      6.864
REMARK INTER + INTRA:          -8.133
REMARK INTER:                  -7.694
REMARK INTRA:                  -0.439
REMARK UNBOUND:                -0.439
REMARK  3 active torsions:
REMARK  status: ('A' for Active; 'I' for Inactive)
REMARK    1  A    between atoms: C_8  and  N_9 
REMARK    2  A    between atoms: C_11  and  C_12 
REMARK       I    between atoms: C_12  and  N_14 
REMARK    3  A    between atoms: C_20  and  O_21 
ROOT
HETATM    1  C   UNL     1       5.784  14.030  22.396  0.00  0.00     0.016 A 
HETATM    2  C   UNL     1       6.387  15.177  22.917  0.00  0.00     0.001 A 
HETATM    3  C   UNL     1       5.629  16.058  23.673  0.00  0.00     0.002 A 
HETATM    4  C   UNL     1       4.273  15.796  23.878  0.00  0.00     0.032 A 
HETATM    5  C   UNL     1       3.648  14.673  23.343  0.00  0.00     0.072 A 
HETATM    6  C   UNL     1       4.406  13.755  22.615  0.00  0.00     0.027 A 
HETATM    7  N   UNL     1       2.332  14.545  23.540  0.00  0.00    -0.218 NA
HETATM    8  C   UNL     1       1.722  13.485  23.020  0.00  0.00     0.200 A 
HETATM    9  N   UNL     1       2.327  12.503  22.369  0.00  0.00    -0.212 NA
HETATM   10  C   UNL     1       3.660  12.654  22.155  0.00  0.00     0.140 A 
ENDROOT
BRANCH  10  11
HETATM   11  C   UNL     1       4.296  11.531  21.363  0.00  0.00     0.273 C 
HETATM   12  O   UNL     1       4.319  11.579  20.134  0.00  0.00    -0.266 OA
HETATM   13  N   UNL     1       4.833  10.434  22.037  0.00  0.00    -0.342 N 
HETATM   14  C   UNL     1       5.450   9.321  21.320  0.00  0.00     0.139 C 
HETATM   15  C   UNL     1       4.840  10.215  23.470  0.00  0.00     0.161 C 
HETATM   16  C   UNL     1       5.106   8.115  22.192  0.00  0.00     0.057 C 
HETATM   17  C   UNL     1       5.001   8.728  23.570  0.00  0.00    -0.050 C 
HETATM   18  C   UNL     1       5.994   6.902  22.227  0.00  0.00    -0.013 C 
HETATM   19  C   UNL     1       5.076   8.008  24.699  0.00  0.00     0.041 C 
HETATM   20  C   UNL     1       5.359   6.553  24.582  0.00  0.00     0.065 C 
HETATM   21  C   UNL     1       6.072   6.136  23.332  0.00  0.00     0.033 C 
BRANCH  20  22
HETATM   22  O   UNL     1       5.029   5.738  25.526  0.00  0.00    -0.361 OA
HETATM   23  H   UNL     1       5.477   4.862  25.449  0.00  0.00     0.217 HD
ENDBRANCH  20  22
ENDBRANCH  10  11
BRANCH   8  24
HETATM   24  N   UNL     1       0.350  13.420  23.144  0.00  0.00    -0.271 NA
HETATM   25  H   UNL     1      -0.050  14.327  22.936  0.00  0.00     0.127 HD
HETATM   26  H   UNL     1       0.080  12.997  24.019  0.00  0.00     0.127 HD
ENDBRANCH   8  24
TORSDOF 3
ENDMDL
