MODEL 1
REMARK VINA RESULT:    -7.058      0.000      0.000
REMARK INTER + INTRA:         -10.059
REMARK INTER:                  -9.047
REMARK INTRA:                  -1.012
REMARK UNBOUND:                -0.938
REMARK  5 active torsions:
REMARK  status: ('A' for Active; 'I' for Inactive)
REMARK    1  A    between atoms: N8_1  and  C24_2 
REMARK    2  A    between atoms: N8_1  and  C7_8 
REMARK    3  A    between atoms: C2_13  and  N1_14 
REMARK    4  A    between atoms: N1_14  and  C17_15 
REMARK    5  A    between atoms: C14_16  and  C13_19 
ROOT
ATOM      1  C17 FTA A   1       2.671   8.479  21.806  1.00  0.00     0.142 C 
ATOM      2  C14 FTA A   1       1.331   8.624  21.776  1.00  0.00     0.158 C 
ATOM      3  C18 FTA A   1       0.528   7.789  20.909  1.00  0.00     0.069 C 
ATOM      4  N21 FTA A   1       0.015   7.088  20.121  1.00  0.00    -0.197 NA
ENDROOT
BRANCH   2   5
ATOM      5  C13 FTA A   1       0.689   9.633  22.649  1.00  0.00     0.197 A 
ATOM      6  N15 FTA A   1      -0.453  10.373  22.348  1.00  0.00    -0.093 NA
ATOM      7  N19 FTA A   1      -0.687  11.232  23.414  1.00  0.00    -0.231 N 
ATOM      8  N20 FTA A   1       0.294  11.040  24.377  1.00  0.00    -0.017 NA
ATOM      9  H15 FTA A   1      -1.465  11.904  23.480  1.00  0.00     0.200 HD
ATOM     10  N16 FTA A   1       1.142  10.042  23.909  1.00  0.00    -0.090 NA
ENDBRANCH   2   5
BRANCH   1  11
ATOM     11  N1  FTA A   1       3.448   9.563  21.616  1.00  0.00    -0.389 N 
ATOM     12  H11 FTA A   1       3.263  10.141  20.784  1.00  0.00     0.159 HD
BRANCH  11  13
ATOM     13  C2  FTA A   1       4.503   9.970  22.477  1.00  0.00     0.028 A 
ATOM     14  C4  FTA A   1       4.480  11.186  23.155  1.00  0.00     0.031 A 
ATOM     15  C6  FTA A   1       5.643  11.629  23.798  1.00  0.00     0.031 A 
ATOM     16  C7  FTA A   1       6.825  10.892  23.781  1.00  0.00     0.032 A 
ATOM     17  C5  FTA A   1       6.825   9.673  23.125  1.00  0.00     0.031 A 
ATOM     18  C3  FTA A   1       5.685   9.224  22.469  1.00  0.00     0.031 A 
BRANCH  16  19
ATOM     19  N8  FTA A   1       8.062  11.410  24.241  1.00  0.00    -0.356 N 
ATOM     20  H1  FTA A   1       8.386  12.296  23.827  1.00  0.00     0.166 HD
BRANCH  19  21
ATOM     21  C24 FTA A   1       8.895  10.806  25.231  1.00  0.00     0.032 A 
ATOM     22  C26 FTA A   1      10.266  10.834  25.134  1.00  0.00     0.029 A 
ATOM     23  C28 FTA A   1      11.008  10.086  26.028  1.00  0.00     0.002 A 
ATOM     24  C30 FTA A   1      10.424   9.336  27.034  1.00  0.00     0.000 A 
ATOM     25  C29 FTA A   1       9.061   9.330  27.165  1.00  0.00     0.002 A 
ATOM     26  C27 FTA A   1       8.306  10.083  26.259  1.00  0.00     0.029 A 
ENDBRANCH  19  21
ENDBRANCH  16  19
ENDBRANCH  11  13
ENDBRANCH   1  11
TORSDOF 5
ENDMDL
MODEL 2
REMARK VINA RESULT:    -6.539      1.148      1.569
REMARK INTER + INTRA:          -9.389
REMARK INTER:                  -8.423
REMARK INTRA:                  -0.965
REMARK UNBOUND:                -0.938
REMARK  5 active torsions:
REMARK  status: ('A' for Active; 'I' for Inactive)
REMARK    1  A    between atoms: N8_1  and  C24_2 
REMARK    2  A    between atoms: N8_1  and  C7_8 
REMARK    3  A    between atoms: C2_13  and  N1_14 
REMARK    4  A    between atoms: N1_14  and  C17_15 
REMARK    5  A    between atoms: C14_16  and  C13_19 
ROOT
ATOM      1  C17 FTA A   1       1.593   8.129  23.368  1.00  0.00     0.142 C 
ATOM      2  C14 FTA A   1       0.935   8.999  22.577  1.00  0.00     0.158 C 
ATOM      3  C18 FTA A   1       0.913   8.804  21.143  1.00  0.00     0.069 C 
ATOM      4  N21 FTA A   1       1.028   8.554  20.003  1.00  0.00    -0.197 NA
ENDROOT
BRANCH   2   5
ATOM      5  C13 FTA A   1       0.224  10.145  23.187  1.00  0.00     0.197 A 
ATOM      6  N15 FTA A   1      -0.892  10.794  22.664  1.00  0.00    -0.093 NA
ATOM      7  N19 FTA A   1      -1.211  11.837  23.524  1.00  0.00    -0.231 N 
ATOM      8  N20 FTA A   1      -0.308  11.851  24.576  1.00  0.00    -0.017 NA
ATOM      9  H15 FTA A   1      -1.993  12.496  23.399  1.00  0.00     0.200 HD
ATOM     10  N16 FTA A   1       0.576  10.796  24.376  1.00  0.00    -0.090 NA
ENDBRANCH   2   5
BRANCH   1  11
ATOM     11  N1  FTA A   1       2.503   8.602  24.241  1.00  0.00    -0.389 N 
ATOM     12  H11 FTA A   1       2.296   8.503  25.246  1.00  0.00     0.159 HD
BRANCH  11  13
ATOM     13  C2  FTA A   1       3.728   9.228  23.882  1.00  0.00     0.028 A 
ATOM     14  C4  FTA A   1       4.789   8.517  23.328  1.00  0.00     0.031 A 
ATOM     15  C6  FTA A   1       6.039   9.141  23.213  1.00  0.00     0.031 A 
ATOM     16  C7  FTA A   1       6.255  10.449  23.637  1.00  0.00     0.032 A 
ATOM     17  C5  FTA A   1       5.185  11.151  24.162  1.00  0.00     0.031 A 
ATOM     18  C3  FTA A   1       3.941  10.546  24.297  1.00  0.00     0.031 A 
BRANCH  16  19
ATOM     19  N8  FTA A   1       7.548  11.026  23.724  1.00  0.00    -0.356 N 
ATOM     20  H1  FTA A   1       7.822  11.686  22.982  1.00  0.00     0.166 HD
BRANCH  19  21
ATOM     21  C24 FTA A   1       8.501  10.768  24.756  1.00  0.00     0.032 A 
ATOM     22  C26 FTA A   1       9.829  11.089  24.606  1.00  0.00     0.029 A 
ATOM     23  C28 FTA A   1      10.726  10.658  25.565  1.00  0.00     0.002 A 
ATOM     24  C30 FTA A   1      10.332   9.945  26.685  1.00  0.00     0.000 A 
ATOM     25  C29 FTA A   1       9.006   9.653  26.864  1.00  0.00     0.002 A 
ATOM     26  C27 FTA A   1       8.096  10.084  25.893  1.00  0.00     0.029 A 
ENDBRANCH  19  21
ENDBRANCH  16  19
ENDBRANCH  11  13
ENDBRANCH   1  11
TORSDOF 5
ENDMDL
MODEL 3
REMARK VINA RESULT:    -6.367      8.818     12.735
REMARK INTER + INTRA:          -9.166
REMARK INTER:                  -8.086
REMARK INTRA:                  -1.080
REMARK UNBOUND:                -0.938
REMARK  5 active torsions:
REMARK  status: ('A' for Active; 'I' for Inactive)
REMARK    1  A    between atoms: N8_1  and  C24_2 
REMARK    2  A    between atoms: N8_1  and  C7_8 
REMARK    3  A    between atoms: C2_13  and  N1_14 
REMARK    4  A    between atoms: N1_14  and  C17_15 
REMARK    5  A    between atoms: C14_16  and  C13_19 
ROOT
ATOM      1  C17 FTA A   1       9.315  16.536  19.388  1.00  0.00     0.142 C 
ATOM      2  C14 FTA A   1      10.111  17.479  18.846  1.00  0.00     0.158 C 
ATOM      3  C18 FTA A   1       9.819  18.882  19.050  1.00  0.00     0.069 C 
ATOM      4  N21 FTA A   1       9.431  19.970  19.249  1.00  0.00    -0.197 NA
ENDROOT
BRANCH   2   5
ATOM      5  C13 FTA A   1      11.293  17.067  18.055  1.00  0.00     0.197 A 
ATOM      6  N15 FTA A   1      11.446  15.862  17.372  1.00  0.00    -0.093 NA
ATOM      7  N19 FTA A   1      12.713  15.862  16.804  1.00  0.00    -0.231 N 
ATOM      8  N20 FTA A   1      13.356  17.050  17.124  1.00  0.00    -0.017 NA
ATOM      9  H15 FTA A   1      13.113  15.102  16.236  1.00  0.00     0.200 HD
ATOM     10  N16 FTA A   1      12.472  17.803  17.891  1.00  0.00    -0.090 NA
ENDBRANCH   2   5
BRANCH   1  11
ATOM     11  N1  FTA A   1       8.809  15.574  18.593  1.00  0.00    -0.389 N 
ATOM     12  H11 FTA A   1       9.378  14.727  18.450  1.00  0.00     0.159 HD
BRANCH  11  13
ATOM     13  C2  FTA A   1       7.551  15.639  17.934  1.00  0.00     0.028 A 
ATOM     14  C4  FTA A   1       7.440  15.900  16.571  1.00  0.00     0.031 A 
ATOM     15  C6  FTA A   1       6.176  16.178  16.033  1.00  0.00     0.031 A 
ATOM     16  C7  FTA A   1       5.027  16.204  16.818  1.00  0.00     0.032 A 
ATOM     17  C5  FTA A   1       5.150  15.917  18.166  1.00  0.00     0.031 A 
ATOM     18  C3  FTA A   1       6.396  15.652  18.721  1.00  0.00     0.031 A 
BRANCH  16  19
ATOM     19  N8  FTA A   1       3.780  16.684  16.342  1.00  0.00    -0.356 N 
ATOM     20  H1  FTA A   1       3.605  17.697  16.414  1.00  0.00     0.166 HD
BRANCH  19  21
ATOM     21  C24 FTA A   1       2.748  15.880  15.770  1.00  0.00     0.032 A 
ATOM     22  C26 FTA A   1       1.794  15.271  16.549  1.00  0.00     0.029 A 
ATOM     23  C28 FTA A   1       0.930  14.370  15.956  1.00  0.00     0.002 A 
ATOM     24  C30 FTA A   1       0.971  14.083  14.602  1.00  0.00     0.000 A 
ATOM     25  C29 FTA A   1       1.892  14.712  13.808  1.00  0.00     0.002 A 
ATOM     26  C27 FTA A   1       2.770  15.622  14.406  1.00  0.00     0.029 A 
ENDBRANCH  19  21
ENDBRANCH  16  19
ENDBRANCH  11  13
ENDBRANCH   1  11
TORSDOF 5
ENDMDL
MODEL 4
REMARK VINA RESULT:    -6.197      8.782     12.258
REMARK INTER + INTRA:          -8.946
REMARK INTER:                  -7.998
REMARK INTRA:                  -0.948
REMARK UNBOUND:                -0.938
REMARK  5 active torsions:
REMARK  status: ('A' for Active; 'I' for Inactive)
REMARK    1  A    between atoms: N8_1  and  C24_2 
REMARK    2  A    between atoms: N8_1  and  C7_8 
REMARK    3  A    between atoms: C2_13  and  N1_14 
REMARK    4  A    between atoms: N1_14  and  C17_15 
REMARK    5  A    between atoms: C14_16  and  C13_19 
ROOT
ATOM      1  C17 FTA A   1       9.070  16.378  17.377  1.00  0.00     0.142 C 
ATOM      2  C14 FTA A   1      10.130  16.658  18.161  1.00  0.00     0.158 C 
ATOM      3  C18 FTA A   1      11.468  16.330  17.718  1.00  0.00     0.069 C 
ATOM      4  N21 FTA A   1      12.481  15.958  17.258  1.00  0.00    -0.197 NA
ENDROOT
BRANCH   2   5
ATOM      5  C13 FTA A   1       9.915  17.317  19.469  1.00  0.00     0.197 A 
ATOM      6  N15 FTA A   1       9.322  16.742  20.591  1.00  0.00    -0.093 NA
ATOM      7  N19 FTA A   1       9.275  17.714  21.583  1.00  0.00    -0.231 N 
ATOM      8  N20 FTA A   1       9.829  18.889  21.095  1.00  0.00    -0.017 NA
ATOM      9  H15 FTA A   1       8.891  17.583  22.530  1.00  0.00     0.200 HD
ATOM     10  N16 FTA A   1      10.236  18.641  19.788  1.00  0.00    -0.090 NA
ENDBRANCH   2   5
BRANCH   1  11
ATOM     11  N1  FTA A   1       8.048  15.669  17.893  1.00  0.00    -0.389 N 
ATOM     12  H11 FTA A   1       8.263  15.009  18.655  1.00  0.00     0.159 HD
BRANCH  11  13
ATOM     13  C2  FTA A   1       6.694  15.762  17.468  1.00  0.00     0.028 A 
ATOM     14  C4  FTA A   1       6.349  16.058  16.152  1.00  0.00     0.031 A 
ATOM     15  C6  FTA A   1       5.015  16.361  15.850  1.00  0.00     0.031 A 
ATOM     16  C7  FTA A   1       4.021  16.380  16.826  1.00  0.00     0.032 A 
ATOM     17  C5  FTA A   1       4.375  16.059  18.124  1.00  0.00     0.031 A 
ATOM     18  C3  FTA A   1       5.695  15.768  18.446  1.00  0.00     0.031 A 
BRANCH  16  19
ATOM     19  N8  FTA A   1       2.717  16.884  16.587  1.00  0.00    -0.356 N 
ATOM     20  H1  FTA A   1       2.567  17.892  16.734  1.00  0.00     0.166 HD
BRANCH  19  21
ATOM     21  C24 FTA A   1       1.597  16.109  16.159  1.00  0.00     0.032 A 
ATOM     22  C26 FTA A   1       0.401  16.698  15.821  1.00  0.00     0.029 A 
ATOM     23  C28 FTA A   1      -0.692  15.886  15.584  1.00  0.00     0.002 A 
ATOM     24  C30 FTA A   1      -0.619  14.505  15.643  1.00  0.00     0.000 A 
ATOM     25  C29 FTA A   1       0.576  13.906  15.941  1.00  0.00     0.002 A 
ATOM     26  C27 FTA A   1       1.684  14.725  16.186  1.00  0.00     0.029 A 
ENDBRANCH  19  21
ENDBRANCH  16  19
ENDBRANCH  11  13
ENDBRANCH   1  11
TORSDOF 5
ENDMDL
MODEL 5
REMARK VINA RESULT:    -6.118     10.222     12.354
REMARK INTER + INTRA:          -8.844
REMARK INTER:                  -7.777
REMARK INTRA:                  -1.067
REMARK UNBOUND:                -0.938
REMARK  5 active torsions:
REMARK  status: ('A' for Active; 'I' for Inactive)
REMARK    1  A    between atoms: N8_1  and  C24_2 
REMARK    2  A    between atoms: N8_1  and  C7_8 
REMARK    3  A    between atoms: C2_13  and  N1_14 
REMARK    4  A    between atoms: N1_14  and  C17_15 
REMARK    5  A    between atoms: C14_16  and  C13_19 
ROOT
ATOM      1  C17 FTA A   1      10.402  19.660  24.563  1.00  0.00     0.142 C 
ATOM      2  C14 FTA A   1      11.219  19.159  25.512  1.00  0.00     0.158 C 
ATOM      3  C18 FTA A   1      12.644  19.401  25.447  1.00  0.00     0.069 C 
ATOM      4  N21 FTA A   1      13.775  19.627  25.235  1.00  0.00    -0.197 NA
ENDROOT
BRANCH   2   5
ATOM      5  C13 FTA A   1      10.643  18.374  26.627  1.00  0.00     0.197 A 
ATOM      6  N15 FTA A   1       9.327  18.431  27.080  1.00  0.00    -0.093 NA
ATOM      7  N19 FTA A   1       9.221  17.573  28.167  1.00  0.00    -0.231 N 
ATOM      8  N20 FTA A   1      10.454  16.982  28.402  1.00  0.00    -0.017 NA
ATOM      9  H15 FTA A   1       8.363  17.403  28.712  1.00  0.00     0.200 HD
ATOM     10  N16 FTA A   1      11.334  17.469  27.442  1.00  0.00    -0.090 NA
ENDBRANCH   2   5
BRANCH   1  11
ATOM     11  N1  FTA A   1       9.558  18.828  23.925  1.00  0.00    -0.389 N 
ATOM     12  H11 FTA A   1       8.921  18.261  24.504  1.00  0.00     0.159 HD
BRANCH  11  13
ATOM     13  C2  FTA A   1       9.477  18.672  22.515  1.00  0.00     0.028 A 
ATOM     14  C4  FTA A   1       9.233  17.437  21.918  1.00  0.00     0.031 A 
ATOM     15  C6  FTA A   1       9.394  17.308  20.532  1.00  0.00     0.031 A 
ATOM     16  C7  FTA A   1       9.794  18.374  19.731  1.00  0.00     0.032 A 
ATOM     17  C5  FTA A   1      10.009  19.600  20.335  1.00  0.00     0.031 A 
ATOM     18  C3  FTA A   1       9.867  19.746  21.710  1.00  0.00     0.031 A 
BRANCH  16  19
ATOM     19  N8  FTA A   1      10.165  18.219  18.371  1.00  0.00    -0.356 N 
ATOM     20  H1  FTA A   1       9.520  18.593  17.660  1.00  0.00     0.166 HD
BRANCH  19  21
ATOM     21  C24 FTA A   1      11.358  17.586  17.906  1.00  0.00     0.032 A 
ATOM     22  C26 FTA A   1      11.378  16.258  17.550  1.00  0.00     0.029 A 
ATOM     23  C28 FTA A   1      12.595  15.665  17.276  1.00  0.00     0.002 A 
ATOM     24  C30 FTA A   1      13.789  16.365  17.315  1.00  0.00     0.000 A 
ATOM     25  C29 FTA A   1      13.778  17.697  17.631  1.00  0.00     0.002 A 
ATOM     26  C27 FTA A   1      12.547  18.300  17.913  1.00  0.00     0.029 A 
ENDBRANCH  19  21
ENDBRANCH  16  19
ENDBRANCH  11  13
ENDBRANCH   1  11
TORSDOF 5
ENDMDL
MODEL 6
REMARK VINA RESULT:    -6.021      8.986     12.876
REMARK INTER + INTRA:          -8.718
REMARK INTER:                  -7.743
REMARK INTRA:                  -0.975
REMARK UNBOUND:                -0.938
REMARK  5 active torsions:
REMARK  status: ('A' for Active; 'I' for Inactive)
REMARK    1  A    between atoms: N8_1  and  C24_2 
REMARK    2  A    between atoms: N8_1  and  C7_8 
REMARK    3  A    between atoms: C2_13  and  N1_14 
REMARK    4  A    between atoms: N1_14  and  C17_15 
REMARK    5  A    between atoms: C14_16  and  C13_19 
ROOT
ATOM      1  C17 FTA A   1       8.956  15.981  18.498  1.00  0.00     0.142 C 
ATOM      2  C14 FTA A   1       9.884  16.867  18.910  1.00  0.00     0.158 C 
ATOM      3  C18 FTA A   1       9.641  17.685  20.079  1.00  0.00     0.069 C 
ATOM      4  N21 FTA A   1       9.285  18.317  21.001  1.00  0.00    -0.197 NA
ENDROOT
BRANCH   2   5
ATOM      5  C13 FTA A   1      11.160  16.985  18.167  1.00  0.00     0.197 A 
ATOM      6  N15 FTA A   1      11.941  18.133  18.051  1.00  0.00    -0.093 NA
ATOM      7  N19 FTA A   1      13.021  17.822  17.235  1.00  0.00    -0.231 N 
ATOM      8  N20 FTA A   1      12.925  16.496  16.838  1.00  0.00    -0.017 NA
ATOM      9  H15 FTA A   1      13.775  18.472  16.968  1.00  0.00     0.200 HD
ATOM     10  N16 FTA A   1      11.777  15.972  17.424  1.00  0.00    -0.090 NA
ENDBRANCH   2   5
BRANCH   1  11
ATOM     11  N1  FTA A   1       8.542  16.021  17.216  1.00  0.00    -0.389 N 
ATOM     12  H11 FTA A   1       9.263  16.111  16.486  1.00  0.00     0.159 HD
BRANCH  11  13
ATOM     13  C2  FTA A   1       7.187  15.948  16.795  1.00  0.00     0.028 A 
ATOM     14  C4  FTA A   1       6.802  16.221  15.485  1.00  0.00     0.031 A 
ATOM     15  C6  FTA A   1       5.438  16.357  15.191  1.00  0.00     0.031 A 
ATOM     16  C7  FTA A   1       4.454  16.229  16.168  1.00  0.00     0.032 A 
ATOM     17  C5  FTA A   1       4.851  15.933  17.460  1.00  0.00     0.031 A 
ATOM     18  C3  FTA A   1       6.199  15.808  17.774  1.00  0.00     0.031 A 
BRANCH  16  19
ATOM     19  N8  FTA A   1       3.095  16.567  15.941  1.00  0.00    -0.356 N 
ATOM     20  H1  FTA A   1       2.814  17.541  16.124  1.00  0.00     0.166 HD
BRANCH  19  21
ATOM     21  C24 FTA A   1       2.087  15.668  15.480  1.00  0.00     0.032 A 
ATOM     22  C26 FTA A   1       1.432  14.817  16.339  1.00  0.00     0.029 A 
ATOM     23  C28 FTA A   1       0.594  13.855  15.807  1.00  0.00     0.002 A 
ATOM     24  C30 FTA A   1       0.366  13.738  14.447  1.00  0.00     0.000 A 
ATOM     25  C29 FTA A   1       0.983  14.604  13.583  1.00  0.00     0.002 A 
ATOM     26  C27 FTA A   1       1.835  15.577  14.118  1.00  0.00     0.029 A 
ENDBRANCH  19  21
ENDBRANCH  16  19
ENDBRANCH  11  13
ENDBRANCH   1  11
TORSDOF 5
ENDMDL
MODEL 7
REMARK VINA RESULT:    -5.975      9.038     12.609
REMARK INTER + INTRA:          -8.659
REMARK INTER:                  -7.635
REMARK INTRA:                  -1.024
REMARK UNBOUND:                -0.938
REMARK  5 active torsions:
REMARK  status: ('A' for Active; 'I' for Inactive)
REMARK    1  A    between atoms: N8_1  and  C24_2 
REMARK    2  A    between atoms: N8_1  and  C7_8 
REMARK    3  A    between atoms: C2_13  and  N1_14 
REMARK    4  A    between atoms: N1_14  and  C17_15 
REMARK    5  A    between atoms: C14_16  and  C13_19 
ROOT
ATOM      1  C17 FTA A   1       5.544  17.655  16.642  1.00  0.00     0.142 C 
ATOM      2  C14 FTA A   1       5.931  17.280  17.877  1.00  0.00     0.158 C 
ATOM      3  C18 FTA A   1       6.922  16.238  18.044  1.00  0.00     0.069 C 
ATOM      4  N21 FTA A   1       7.685  15.348  18.028  1.00  0.00    -0.197 NA
ENDROOT
BRANCH   2   5
ATOM      5  C13 FTA A   1       5.345  17.952  19.059  1.00  0.00     0.197 A 
ATOM      6  N15 FTA A   1       6.012  18.263  20.243  1.00  0.00    -0.093 NA
ATOM      7  N19 FTA A   1       5.088  18.843  21.103  1.00  0.00    -0.231 N 
ATOM      8  N20 FTA A   1       3.853  18.897  20.474  1.00  0.00    -0.017 NA
ATOM      9  H15 FTA A   1       5.288  19.179  22.056  1.00  0.00     0.200 HD
ATOM     10  N16 FTA A   1       4.012  18.355  19.203  1.00  0.00    -0.090 NA
ENDBRANCH   2   5
BRANCH   1  11
ATOM     11  N1  FTA A   1       4.230  17.668  16.346  1.00  0.00    -0.389 N 
ATOM     12  H11 FTA A   1       3.731  18.565  16.435  1.00  0.00     0.159 HD
BRANCH  11  13
ATOM     13  C2  FTA A   1       3.480  16.537  15.921  1.00  0.00     0.028 A 
ATOM     14  C4  FTA A   1       3.338  16.205  14.576  1.00  0.00     0.031 A 
ATOM     15  C6  FTA A   1       2.404  15.226  14.213  1.00  0.00     0.031 A 
ATOM     16  C7  FTA A   1       1.611  14.574  15.154  1.00  0.00     0.032 A 
ATOM     17  C5  FTA A   1       1.782  14.897  16.488  1.00  0.00     0.031 A 
ATOM     18  C3  FTA A   1       2.692  15.875  16.868  1.00  0.00     0.031 A 
BRANCH  16  19
ATOM     19  N8  FTA A   1       0.522  13.739  14.796  1.00  0.00    -0.356 N 
ATOM     20  H1  FTA A   1       0.706  12.728  14.721  1.00  0.00     0.166 HD
BRANCH  19  21
ATOM     21  C24 FTA A   1      -0.809  14.183  14.531  1.00  0.00     0.032 A 
ATOM     22  C26 FTA A   1      -1.538  14.874  15.470  1.00  0.00     0.029 A 
ATOM     23  C28 FTA A   1      -2.874  15.124  15.219  1.00  0.00     0.002 A 
ATOM     24  C30 FTA A   1      -3.495  14.732  14.045  1.00  0.00     0.000 A 
ATOM     25  C29 FTA A   1      -2.770  14.077  13.085  1.00  0.00     0.002 A 
ATOM     26  C27 FTA A   1      -1.418  13.819  13.339  1.00  0.00     0.029 A 
ENDBRANCH  19  21
ENDBRANCH  16  19
ENDBRANCH  11  13
ENDBRANCH   1  11
TORSDOF 5
ENDMDL
MODEL 8
REMARK VINA RESULT:    -5.777      8.360     12.314
REMARK INTER + INTRA:          -8.403
REMARK INTER:                  -7.359
REMARK INTRA:                  -1.044
REMARK UNBOUND:                -0.938
REMARK  5 active torsions:
REMARK  status: ('A' for Active; 'I' for Inactive)
REMARK    1  A    between atoms: N8_1  and  C24_2 
REMARK    2  A    between atoms: N8_1  and  C7_8 
REMARK    3  A    between atoms: C2_13  and  N1_14 
REMARK    4  A    between atoms: N1_14  and  C17_15 
REMARK    5  A    between atoms: C14_16  and  C13_19 
ROOT
ATOM      1  C17 FTA A   1       7.378  17.568  20.324  1.00  0.00     0.142 C 
ATOM      2  C14 FTA A   1       8.720  17.617  20.429  1.00  0.00     0.158 C 
ATOM      3  C18 FTA A   1       9.337  18.131  21.633  1.00  0.00     0.069 C 
ATOM      4  N21 FTA A   1       9.694  18.621  22.637  1.00  0.00    -0.197 NA
ENDROOT
BRANCH   2   5
ATOM      5  C13 FTA A   1       9.557  17.128  19.310  1.00  0.00     0.197 A 
ATOM      6  N15 FTA A   1       9.272  16.043  18.483  1.00  0.00    -0.093 NA
ATOM      7  N19 FTA A   1      10.334  15.900  17.600  1.00  0.00    -0.231 N 
ATOM      8  N20 FTA A   1      11.281  16.879  17.864  1.00  0.00    -0.017 NA
ATOM      9  H15 FTA A   1      10.407  15.182  16.865  1.00  0.00     0.200 HD
ATOM     10  N16 FTA A   1      10.796  17.648  18.917  1.00  0.00    -0.090 NA
ENDBRANCH   2   5
BRANCH   1  11
ATOM     11  N1  FTA A   1       6.787  18.133  19.253  1.00  0.00    -0.389 N 
ATOM     12  H11 FTA A   1       7.147  19.046  18.937  1.00  0.00     0.159 HD
BRANCH  11  13
ATOM     13  C2  FTA A   1       5.707  17.566  18.524  1.00  0.00     0.028 A 
ATOM     14  C4  FTA A   1       4.631  18.330  18.078  1.00  0.00     0.031 A 
ATOM     15  C6  FTA A   1       3.498  17.679  17.573  1.00  0.00     0.031 A 
ATOM     16  C7  FTA A   1       3.410  16.291  17.504  1.00  0.00     0.032 A 
ATOM     17  C5  FTA A   1       4.497  15.546  17.928  1.00  0.00     0.031 A 
ATOM     18  C3  FTA A   1       5.625  16.173  18.444  1.00  0.00     0.031 A 
BRANCH  16  19
ATOM     19  N8  FTA A   1       2.205  15.609  17.197  1.00  0.00    -0.356 N 
ATOM     20  H1  FTA A   1       1.537  15.460  17.967  1.00  0.00     0.166 HD
BRANCH  19  21
ATOM     21  C24 FTA A   1       1.841  15.114  15.908  1.00  0.00     0.032 A 
ATOM     22  C26 FTA A   1       2.473  15.545  14.766  1.00  0.00     0.029 A 
ATOM     23  C28 FTA A   1       1.961  15.160  13.541  1.00  0.00     0.002 A 
ATOM     24  C30 FTA A   1       0.857  14.333  13.423  1.00  0.00     0.000 A 
ATOM     25  C29 FTA A   1       0.242  13.866  14.554  1.00  0.00     0.002 A 
ATOM     26  C27 FTA A   1       0.756  14.257  15.796  1.00  0.00     0.029 A 
ENDBRANCH  19  21
ENDBRANCH  16  19
ENDBRANCH  11  13
ENDBRANCH   1  11
TORSDOF 5
ENDMDL
MODEL 9
REMARK VINA RESULT:    -5.689      8.876      9.795
REMARK INTER + INTRA:          -8.290
REMARK INTER:                  -7.352
REMARK INTRA:                  -0.938
REMARK UNBOUND:                -0.938
REMARK  5 active torsions:
REMARK  status: ('A' for Active; 'I' for Inactive)
REMARK    1  A    between atoms: N8_1  and  C24_2 
REMARK    2  A    between atoms: N8_1  and  C7_8 
REMARK    3  A    between atoms: C2_13  and  N1_14 
REMARK    4  A    between atoms: N1_14  and  C17_15 
REMARK    5  A    between atoms: C14_16  and  C13_19 
ROOT
ATOM      1  C17 FTA A   1       3.228  17.026  15.952  1.00  0.00     0.142 C 
ATOM      2  C14 FTA A   1       1.881  17.023  15.915  1.00  0.00     0.158 C 
ATOM      3  C18 FTA A   1       1.151  18.272  15.903  1.00  0.00     0.069 C 
ATOM      4  N21 FTA A   1       0.695  19.351  15.955  1.00  0.00    -0.197 NA
ENDROOT
BRANCH   2   5
ATOM      5  C13 FTA A   1       1.157  15.732  15.871  1.00  0.00     0.197 A 
ATOM      6  N15 FTA A   1       1.630  14.542  15.322  1.00  0.00    -0.093 NA
ATOM      7  N19 FTA A   1       0.623  13.594  15.448  1.00  0.00    -0.231 N 
ATOM      8  N20 FTA A   1      -0.475  14.176  16.065  1.00  0.00    -0.017 NA
ATOM      9  H15 FTA A   1       0.681  12.615  15.133  1.00  0.00     0.200 HD
ATOM     10  N16 FTA A   1      -0.142  15.499  16.338  1.00  0.00    -0.090 NA
ENDBRANCH   2   5
BRANCH   1  11
ATOM     11  N1  FTA A   1       3.855  16.310  16.905  1.00  0.00    -0.389 N 
ATOM     12  H11 FTA A   1       3.282  15.669  17.473  1.00  0.00     0.159 HD
BRANCH  11  13
ATOM     13  C2  FTA A   1       5.247  16.371  17.188  1.00  0.00     0.028 A 
ATOM     14  C4  FTA A   1       6.211  16.304  16.184  1.00  0.00     0.031 A 
ATOM     15  C6  FTA A   1       7.555  16.137  16.542  1.00  0.00     0.031 A 
ATOM     16  C7  FTA A   1       7.960  16.034  17.871  1.00  0.00     0.032 A 
ATOM     17  C5  FTA A   1       6.994  16.128  18.857  1.00  0.00     0.031 A 
ATOM     18  C3  FTA A   1       5.654  16.279  18.522  1.00  0.00     0.031 A 
BRANCH  16  19
ATOM     19  N8  FTA A   1       9.274  15.658  18.248  1.00  0.00    -0.356 N 
ATOM     20  H1  FTA A   1       9.414  14.690  18.573  1.00  0.00     0.166 HD
BRANCH  19  21
ATOM     21  C24 FTA A   1      10.420  16.510  18.214  1.00  0.00     0.032 A 
ATOM     22  C26 FTA A   1      10.431  17.728  18.850  1.00  0.00     0.029 A 
ATOM     23  C28 FTA A   1      11.500  18.577  18.636  1.00  0.00     0.002 A 
ATOM     24  C30 FTA A   1      12.572  18.233  17.831  1.00  0.00     0.000 A 
ATOM     25  C29 FTA A   1      12.591  17.006  17.222  1.00  0.00     0.002 A 
ATOM     26  C27 FTA A   1      11.508  16.146  17.434  1.00  0.00     0.029 A 
ENDBRANCH  19  21
ENDBRANCH  16  19
ENDBRANCH  11  13
ENDBRANCH   1  11
TORSDOF 5
ENDMDL
