MODEL 1
REMARK VINA RESULT:    -7.847      0.000      0.000
REMARK INTER + INTRA:         -11.836
REMARK INTER:                 -10.612
REMARK INTRA:                  -1.224
REMARK UNBOUND:                -1.237
REMARK  7 active torsions:
REMARK  status: ('A' for Active; 'I' for Inactive)
REMARK    1  A    between atoms: O_2  and  C_3 
REMARK    2  A    between atoms: C_6  and  C_7 
REMARK    3  A    between atoms: C_9  and  N_10 
REMARK    4  A    between atoms: C_11  and  C_12 
REMARK       I    between atoms: C_12  and  N_14 
REMARK    5  A    between atoms: N_14  and  C_15 
REMARK    6  A    between atoms: C_25  and  N_26 
REMARK    7  A    between atoms: C_31  and  O_32 
ROOT
HETATM    1  C   UNL     1      -1.800  13.992  22.320  0.00  0.00     0.013 C 
HETATM    2  C   UNL     1      -1.745  12.797  23.127  0.00  0.00     0.035 C 
HETATM    3  C   UNL     1      -0.693  12.008  23.755  0.00  0.00     0.043 C 
HETATM    4  C   UNL     1      -1.169  11.124  24.711  0.00  0.00     0.097 C 
HETATM    5  S   UNL     1      -2.877  11.020  24.635  0.00  0.00    -0.062 SA
HETATM    6  C   UNL     1      -2.973  12.220  23.441  0.00  0.00     0.113 C 
HETATM    7  N   UNL     1      -4.181  12.548  22.954  0.00  0.00    -0.227 NA
HETATM    8  C   UNL     1      -4.212  13.602  22.139  0.00  0.00     0.123 C 
HETATM    9  C   UNL     1      -3.093  14.383  21.855  0.00  0.00     0.096 C 
HETATM   10  C   UNL     1      -3.315  15.602  21.128  0.00  0.00     0.103 C 
HETATM   11  N   UNL     1      -3.493  16.568  20.498  0.00  0.00    -0.191 NA
ENDROOT
BRANCH   1  12
HETATM   12  C   UNL     1      -0.604  14.864  22.156  0.00  0.00    -0.021 C 
HETATM   13  C   UNL     1      -0.298  15.900  23.045  0.00  0.00     0.015 C 
HETATM   14  C   UNL     1       0.966  16.498  23.046  0.00  0.00     0.040 C 
HETATM   15  C   UNL     1       1.934  16.143  22.097  0.00  0.00     0.101 C 
HETATM   16  C   UNL     1       1.570  15.294  21.055  0.00  0.00     0.102 C 
HETATM   17  C   UNL     1       0.352  14.606  21.158  0.00  0.00     0.052 C 
BRANCH  15  18
HETATM   18  O   UNL     1       3.230  16.566  22.225  0.00  0.00    -0.353 OA
HETATM   19  C   UNL     1       4.131  15.502  22.568  0.00  0.00     0.210 C 
ENDBRANCH  15  18
BRANCH  16  20
HETATM   20  O   UNL     1       2.262  14.937  19.934  0.00  0.00    -0.353 OA
HETATM   21  C   UNL     1       2.460  13.559  19.652  0.00  0.00     0.210 C 
ENDBRANCH  16  20
ENDBRANCH   1  12
BRANCH   8  22
HETATM   22  N   UNL     1      -5.488  13.926  21.668  0.00  0.00    -0.286 NA
HETATM   23  H   UNL     1      -5.797  13.185  21.043  0.00  0.00     0.125 HD
HETATM   24  H   UNL     1      -5.552  14.841  21.237  0.00  0.00     0.125 HD
ENDBRANCH   8  22
BRANCH   3  25
HETATM   25  N   UNL     1       0.641  12.147  23.491  0.00  0.00    -0.301 NA
HETATM   26  H   UNL     1       1.025  11.568  22.739  0.00  0.00     0.124 HD
HETATM   27  H   UNL     1       0.967  13.102  23.313  0.00  0.00     0.124 HD
ENDBRANCH   3  25
BRANCH   4  28
HETATM   28  C   UNL     1      -0.482  10.292  25.701  0.00  0.00     0.265 C 
HETATM   29  O   UNL     1       0.743  10.183  25.720  0.00  0.00    -0.267 OA
HETATM   30  N   UNL     1      -1.328   9.636  26.583  0.00  0.00    -0.322 N 
HETATM   31  H   UNL     1      -2.312   9.866  26.483  0.00  0.00     0.169 HD
BRANCH  30  32
HETATM   32  C   UNL     1      -0.984   8.696  27.578  0.00  0.00     0.035 A 
HETATM   33  C   UNL     1      -0.937   7.312  27.368  0.00  0.00     0.031 A 
HETATM   34  C   UNL     1      -0.628   6.436  28.417  0.00  0.00     0.021 A 
HETATM   35  C   UNL     1      -0.358   6.934  29.685  0.00  0.00     0.011 A 
HETATM   36 BR   UNL     1       0.025   5.746  31.102  0.00  0.00    -0.051 Br
HETATM   37  C   UNL     1      -0.382   8.310  29.912  0.00  0.00     0.021 A 
HETATM   38  C   UNL     1      -0.694   9.182  28.860  0.00  0.00     0.031 A 
ENDBRANCH  30  32
ENDBRANCH   4  28
TORSDOF 7
ENDMDL
MODEL 2
REMARK VINA RESULT:    -7.775      5.216      7.868
REMARK INTER + INTRA:         -11.740
REMARK INTER:                 -11.218
REMARK INTRA:                  -0.522
REMARK UNBOUND:                -1.237
REMARK  7 active torsions:
REMARK  status: ('A' for Active; 'I' for Inactive)
REMARK    1  A    between atoms: O_2  and  C_3 
REMARK    2  A    between atoms: C_6  and  C_7 
REMARK    3  A    between atoms: C_9  and  N_10 
REMARK    4  A    between atoms: C_11  and  C_12 
REMARK       I    between atoms: C_12  and  N_14 
REMARK    5  A    between atoms: N_14  and  C_15 
REMARK    6  A    between atoms: C_25  and  N_26 
REMARK    7  A    between atoms: C_31  and  O_32 
ROOT
HETATM    1  C   UNL     1      -0.905   9.395  26.121  0.00  0.00     0.013 C 
HETATM    2  C   UNL     1       0.076   8.352  25.944  0.00  0.00     0.035 C 
HETATM    3  C   UNL     1       0.657   7.646  24.809  0.00  0.00     0.043 C 
HETATM    4  C   UNL     1       1.813   6.951  25.130  0.00  0.00     0.097 C 
HETATM    5  S   UNL     1       2.025   6.892  26.828  0.00  0.00    -0.062 SA
HETATM    6  C   UNL     1       0.674   7.876  27.109  0.00  0.00     0.113 C 
HETATM    7  N   UNL     1       0.333   8.156  28.378  0.00  0.00    -0.227 NA
HETATM    8  C   UNL     1      -0.635   9.059  28.533  0.00  0.00     0.123 C 
HETATM    9  C   UNL     1      -1.221   9.744  27.470  0.00  0.00     0.096 C 
HETATM   10  C   UNL     1      -2.102  10.830  27.800  0.00  0.00     0.103 C 
HETATM   11  N   UNL     1      -2.853  11.681  28.071  0.00  0.00    -0.191 NA
ENDROOT
BRANCH   1  12
HETATM   12  C   UNL     1      -1.402  10.188  24.963  0.00  0.00    -0.021 C 
HETATM   13  C   UNL     1      -0.544  10.779  24.029  0.00  0.00     0.015 C 
HETATM   14  C   UNL     1      -1.028  11.251  22.806  0.00  0.00     0.040 C 
HETATM   15  C   UNL     1      -2.398  11.230  22.514  0.00  0.00     0.101 C 
HETATM   16  C   UNL     1      -3.291  10.873  23.519  0.00  0.00     0.102 C 
HETATM   17  C   UNL     1      -2.777  10.275  24.679  0.00  0.00     0.052 C 
BRANCH  15  18
HETATM   18  O   UNL     1      -2.848  11.491  21.247  0.00  0.00    -0.353 OA
HETATM   19  C   UNL     1      -2.800  12.887  20.915  0.00  0.00     0.210 C 
ENDBRANCH  15  18
BRANCH  16  20
HETATM   20  O   UNL     1      -4.655  10.934  23.541  0.00  0.00    -0.353 OA
HETATM   21  C   UNL     1      -5.348  10.505  24.704  0.00  0.00     0.210 C 
ENDBRANCH  16  20
ENDBRANCH   1  12
BRANCH   8  22
HETATM   22  N   UNL     1      -0.948   9.340  29.866  0.00  0.00    -0.286 NA
HETATM   23  H   UNL     1      -1.461  10.219  29.897  0.00  0.00     0.125 HD
HETATM   24  H   UNL     1      -0.149   9.344  30.489  0.00  0.00     0.125 HD
ENDBRANCH   8  22
BRANCH   3  25
HETATM   25  N   UNL     1       0.167   7.694  23.534  0.00  0.00    -0.301 NA
HETATM   26  H   UNL     1       0.848   7.611  22.774  0.00  0.00     0.124 HD
HETATM   27  H   UNL     1      -0.586   7.034  23.317  0.00  0.00     0.124 HD
ENDBRANCH   3  25
BRANCH   4  28
HETATM   28  C   UNL     1       2.810   6.276  24.297  0.00  0.00     0.265 C 
HETATM   29  O   UNL     1       2.715   5.085  24.008  0.00  0.00    -0.267 OA
HETATM   30  N   UNL     1       3.860   7.086  23.892  0.00  0.00    -0.322 N 
HETATM   31  H   UNL     1       3.776   8.063  24.160  0.00  0.00     0.169 HD
BRANCH  30  32
HETATM   32  C   UNL     1       5.016   6.713  23.173  0.00  0.00     0.035 A 
HETATM   33  C   UNL     1       6.008   5.857  23.668  0.00  0.00     0.031 A 
HETATM   34  C   UNL     1       7.150   5.566  22.911  0.00  0.00     0.021 A 
HETATM   35  C   UNL     1       7.311   6.124  21.650  0.00  0.00     0.011 A 
HETATM   36 BR   UNL     1       8.869   5.754  20.648  0.00  0.00    -0.051 Br
HETATM   37  C   UNL     1       6.328   6.966  21.130  0.00  0.00     0.021 A 
HETATM   38  C   UNL     1       5.188   7.256  21.892  0.00  0.00     0.031 A 
ENDBRANCH  30  32
ENDBRANCH   4  28
TORSDOF 7
ENDMDL
MODEL 3
REMARK VINA RESULT:    -7.441      5.101      7.369
REMARK INTER + INTRA:         -11.289
REMARK INTER:                 -10.173
REMARK INTRA:                  -1.116
REMARK UNBOUND:                -1.237
REMARK  7 active torsions:
REMARK  status: ('A' for Active; 'I' for Inactive)
REMARK    1  A    between atoms: O_2  and  C_3 
REMARK    2  A    between atoms: C_6  and  C_7 
REMARK    3  A    between atoms: C_9  and  N_10 
REMARK    4  A    between atoms: C_11  and  C_12 
REMARK       I    between atoms: C_12  and  N_14 
REMARK    5  A    between atoms: N_14  and  C_15 
REMARK    6  A    between atoms: C_25  and  N_26 
REMARK    7  A    between atoms: C_31  and  O_32 
ROOT
HETATM    1  C   UNL     1      -0.859   9.549  25.921  0.00  0.00     0.013 C 
HETATM    2  C   UNL     1       0.092   8.469  25.811  0.00  0.00     0.035 C 
HETATM    3  C   UNL     1       0.739   7.755  24.719  0.00  0.00     0.043 C 
HETATM    4  C   UNL     1       1.835   7.009  25.126  0.00  0.00     0.097 C 
HETATM    5  S   UNL     1       1.898   6.920  26.835  0.00  0.00    -0.062 SA
HETATM    6  C   UNL     1       0.567   7.955  27.015  0.00  0.00     0.113 C 
HETATM    7  N   UNL     1       0.130   8.233  28.255  0.00  0.00    -0.227 NA
HETATM    8  C   UNL     1      -0.811   9.172  28.341  0.00  0.00     0.123 C 
HETATM    9  C   UNL     1      -1.276   9.895  27.244  0.00  0.00     0.096 C 
HETATM   10  C   UNL     1      -2.137  11.011  27.514  0.00  0.00     0.103 C 
HETATM   11  N   UNL     1      -2.874  11.889  27.735  0.00  0.00    -0.191 NA
ENDROOT
BRANCH   1  12
HETATM   12  C   UNL     1      -1.223  10.377  24.737  0.00  0.00    -0.021 C 
HETATM   13  C   UNL     1      -2.419  10.199  24.033  0.00  0.00     0.015 C 
HETATM   14  C   UNL     1      -2.873  11.166  23.131  0.00  0.00     0.040 C 
HETATM   15  C   UNL     1      -2.102  12.298  22.837  0.00  0.00     0.101 C 
HETATM   16  C   UNL     1      -0.806  12.375  23.340  0.00  0.00     0.102 C 
HETATM   17  C   UNL     1      -0.432  11.470  24.344  0.00  0.00     0.052 C 
BRANCH  15  18
HETATM   18  O   UNL     1      -2.633  13.342  22.126  0.00  0.00    -0.353 OA
HETATM   19  C   UNL     1      -2.605  13.119  20.707  0.00  0.00     0.210 C 
ENDBRANCH  15  18
BRANCH  16  20
HETATM   20  O   UNL     1       0.187  13.272  23.067  0.00  0.00    -0.353 OA
HETATM   21  C   UNL     1       0.940  13.127  21.872  0.00  0.00     0.210 C 
ENDBRANCH  16  20
ENDBRANCH   1  12
BRANCH   8  22
HETATM   22  N   UNL     1      -1.225   9.450  29.648  0.00  0.00    -0.286 NA
HETATM   23  H   UNL     1      -0.654   8.904  30.289  0.00  0.00     0.125 HD
HETATM   24  H   UNL     1      -2.216   9.311  29.808  0.00  0.00     0.125 HD
ENDBRANCH   8  22
BRANCH   3  25
HETATM   25  N   UNL     1       0.362   7.839  23.408  0.00  0.00    -0.301 NA
HETATM   26  H   UNL     1      -0.068   7.006  22.997  0.00  0.00     0.124 HD
HETATM   27  H   UNL     1      -0.248   8.626  23.165  0.00  0.00     0.124 HD
ENDBRANCH   3  25
BRANCH   4  28
HETATM   28  C   UNL     1       2.872   6.304  24.371  0.00  0.00     0.265 C 
HETATM   29  O   UNL     1       2.901   5.077  24.297  0.00  0.00    -0.267 OA
HETATM   30  N   UNL     1       3.810   7.134  23.776  0.00  0.00    -0.322 N 
HETATM   31  H   UNL     1       3.626   8.129  23.875  0.00  0.00     0.169 HD
BRANCH  30  32
HETATM   32  C   UNL     1       4.975   6.762  23.071  0.00  0.00     0.035 A 
HETATM   33  C   UNL     1       6.001   5.974  23.609  0.00  0.00     0.031 A 
HETATM   34  C   UNL     1       7.148   5.680  22.862  0.00  0.00     0.021 A 
HETATM   35  C   UNL     1       7.282   6.167  21.568  0.00  0.00     0.011 A 
HETATM   36 BR   UNL     1       8.847   5.795  20.578  0.00  0.00    -0.051 Br
HETATM   37  C   UNL     1       6.265   6.939  21.006  0.00  0.00     0.021 A 
HETATM   38  C   UNL     1       5.120   7.232  21.759  0.00  0.00     0.031 A 
ENDBRANCH  30  32
ENDBRANCH   4  28
TORSDOF 7
ENDMDL
MODEL 4
REMARK VINA RESULT:    -7.338      4.586      6.270
REMARK INTER + INTRA:         -11.149
REMARK INTER:                  -9.887
REMARK INTRA:                  -1.262
REMARK UNBOUND:                -1.237
REMARK  7 active torsions:
REMARK  status: ('A' for Active; 'I' for Inactive)
REMARK    1  A    between atoms: O_2  and  C_3 
REMARK    2  A    between atoms: C_6  and  C_7 
REMARK    3  A    between atoms: C_9  and  N_10 
REMARK    4  A    between atoms: C_11  and  C_12 
REMARK       I    between atoms: C_12  and  N_14 
REMARK    5  A    between atoms: N_14  and  C_15 
REMARK    6  A    between atoms: C_25  and  N_26 
REMARK    7  A    between atoms: C_31  and  O_32 
ROOT
HETATM    1  C   UNL     1      -1.471  10.771  24.827  0.00  0.00     0.013 C 
HETATM    2  C   UNL     1      -0.400   9.874  25.184  0.00  0.00     0.035 C 
HETATM    3  C   UNL     1       0.729   9.266  24.491  0.00  0.00     0.043 C 
HETATM    4  C   UNL     1       1.676   8.732  25.352  0.00  0.00     0.097 C 
HETATM    5  S   UNL     1       1.072   8.683  26.954  0.00  0.00    -0.062 SA
HETATM    6  C   UNL     1      -0.364   9.471  26.517  0.00  0.00     0.113 C 
HETATM    7  N   UNL     1      -1.293   9.689  27.464  0.00  0.00    -0.227 NA
HETATM    8  C   UNL     1      -2.325  10.449  27.100  0.00  0.00     0.123 C 
HETATM    9  C   UNL     1      -2.425  11.060  25.851  0.00  0.00     0.096 C 
HETATM   10  C   UNL     1      -3.485  12.012  25.672  0.00  0.00     0.103 C 
HETATM   11  N   UNL     1      -4.376  12.749  25.516  0.00  0.00    -0.191 NA
ENDROOT
BRANCH   1  12
HETATM   12  C   UNL     1      -1.462  11.502  23.529  0.00  0.00    -0.021 C 
HETATM   13  C   UNL     1      -2.134  11.032  22.395  0.00  0.00     0.015 C 
HETATM   14  C   UNL     1      -2.362  11.867  21.297  0.00  0.00     0.040 C 
HETATM   15  C   UNL     1      -1.846  13.170  21.260  0.00  0.00     0.101 C 
HETATM   16  C   UNL     1      -0.972  13.572  22.266  0.00  0.00     0.102 C 
HETATM   17  C   UNL     1      -0.874  12.774  23.415  0.00  0.00     0.052 C 
BRANCH  15  18
HETATM   18  O   UNL     1      -2.243  14.053  20.292  0.00  0.00    -0.353 OA
HETATM   19  C   UNL     1      -3.655  14.314  20.322  0.00  0.00     0.210 C 
ENDBRANCH  15  18
BRANCH  16  20
HETATM   20  O   UNL     1      -0.216  14.705  22.367  0.00  0.00    -0.353 OA
HETATM   21  C   UNL     1      -0.781  15.861  22.968  0.00  0.00     0.210 C 
ENDBRANCH  16  20
ENDBRANCH   1  12
BRANCH   8  22
HETATM   22  N   UNL     1      -3.260  10.671  28.116  0.00  0.00    -0.286 NA
HETATM   23  H   UNL     1      -2.767  11.028  28.932  0.00  0.00     0.125 HD
HETATM   24  H   UNL     1      -3.832   9.865  28.338  0.00  0.00     0.125 HD
ENDBRANCH   8  22
BRANCH   3  25
HETATM   25  N   UNL     1       0.893   9.261  23.135  0.00  0.00    -0.301 NA
HETATM   26  H   UNL     1       1.854   9.203  22.786  0.00  0.00     0.124 HD
HETATM   27  H   UNL     1       0.359   8.554  22.620  0.00  0.00     0.124 HD
ENDBRANCH   3  25
BRANCH   4  28
HETATM   28  C   UNL     1       3.024   8.208  25.119  0.00  0.00     0.265 C 
HETATM   29  O   UNL     1       3.971   8.508  25.841  0.00  0.00    -0.267 OA
HETATM   30  N   UNL     1       3.129   7.374  24.015  0.00  0.00    -0.322 N 
HETATM   31  H   UNL     1       2.251   7.171  23.546  0.00  0.00     0.169 HD
BRANCH  30  32
HETATM   32  C   UNL     1       4.298   6.795  23.474  0.00  0.00     0.035 A 
HETATM   33  C   UNL     1       4.997   5.736  24.067  0.00  0.00     0.031 A 
HETATM   34  C   UNL     1       6.174   5.241  23.493  0.00  0.00     0.021 A 
HETATM   35  C   UNL     1       6.664   5.797  22.318  0.00  0.00     0.011 A 
HETATM   36 BR   UNL     1       8.271   5.147  21.567  0.00  0.00    -0.051 Br
HETATM   37  C   UNL     1       5.975   6.841  21.702  0.00  0.00     0.021 A 
HETATM   38  C   UNL     1       4.798   7.334  22.281  0.00  0.00     0.031 A 
ENDBRANCH  30  32
ENDBRANCH   4  28
TORSDOF 7
ENDMDL
MODEL 5
REMARK VINA RESULT:    -7.260      1.952      2.209
REMARK INTER + INTRA:         -11.044
REMARK INTER:                  -9.853
REMARK INTRA:                  -1.191
REMARK UNBOUND:                -1.237
REMARK  7 active torsions:
REMARK  status: ('A' for Active; 'I' for Inactive)
REMARK    1  A    between atoms: O_2  and  C_3 
REMARK    2  A    between atoms: C_6  and  C_7 
REMARK    3  A    between atoms: C_9  and  N_10 
REMARK    4  A    between atoms: C_11  and  C_12 
REMARK       I    between atoms: C_12  and  N_14 
REMARK    5  A    between atoms: N_14  and  C_15 
REMARK    6  A    between atoms: C_25  and  N_26 
REMARK    7  A    between atoms: C_31  and  O_32 
ROOT
HETATM    1  C   UNL     1      -1.803  14.023  22.268  0.00  0.00     0.013 C 
HETATM    2  C   UNL     1      -1.710  12.817  23.054  0.00  0.00     0.035 C 
HETATM    3  C   UNL     1      -0.631  12.038  23.648  0.00  0.00     0.043 C 
HETATM    4  C   UNL     1      -1.071  11.129  24.598  0.00  0.00     0.097 C 
HETATM    5  S   UNL     1      -2.778  10.994  24.554  0.00  0.00    -0.062 SA
HETATM    6  C   UNL     1      -2.920  12.211  23.382  0.00  0.00     0.113 C 
HETATM    7  N   UNL     1      -4.144  12.523  22.924  0.00  0.00    -0.227 NA
HETATM    8  C   UNL     1      -4.210  13.590  22.128  0.00  0.00     0.123 C 
HETATM    9  C   UNL     1      -3.113  14.397  21.835  0.00  0.00     0.096 C 
HETATM   10  C   UNL     1      -3.372  15.623  21.133  0.00  0.00     0.103 C 
HETATM   11  N   UNL     1      -3.581  16.596  20.522  0.00  0.00    -0.191 NA
ENDROOT
BRANCH   1  12
HETATM   12  C   UNL     1      -0.628  14.921  22.095  0.00  0.00    -0.021 C 
HETATM   13  C   UNL     1      -0.348  15.976  22.971  0.00  0.00     0.015 C 
HETATM   14  C   UNL     1       0.901  16.603  22.967  0.00  0.00     0.040 C 
HETATM   15  C   UNL     1       1.880  16.257  22.025  0.00  0.00     0.101 C 
HETATM   16  C   UNL     1       1.539  15.386  20.994  0.00  0.00     0.102 C 
HETATM   17  C   UNL     1       0.338  14.671  21.103  0.00  0.00     0.052 C 
BRANCH  15  18
HETATM   18  O   UNL     1       3.165  16.713  22.151  0.00  0.00    -0.353 OA
HETATM   19  C   UNL     1       4.093  15.672  22.496  0.00  0.00     0.210 C 
ENDBRANCH  15  18
BRANCH  16  20
HETATM   20  O   UNL     1       2.243  15.031  19.880  0.00  0.00    -0.353 OA
HETATM   21  C   UNL     1       2.528  13.658  19.651  0.00  0.00     0.210 C 
ENDBRANCH  16  20
ENDBRANCH   1  12
BRANCH   8  22
HETATM   22  N   UNL     1      -5.501  13.897  21.688  0.00  0.00    -0.286 NA
HETATM   23  H   UNL     1      -5.596  14.911  21.653  0.00  0.00     0.125 HD
HETATM   24  H   UNL     1      -6.240  13.464  22.230  0.00  0.00     0.125 HD
ENDBRANCH   8  22
BRANCH   3  25
HETATM   25  N   UNL     1       0.694  12.206  23.361  0.00  0.00    -0.301 NA
HETATM   26  H   UNL     1       0.962  13.089  22.916  0.00  0.00     0.124 HD
HETATM   27  H   UNL     1       1.344  12.070  24.141  0.00  0.00     0.124 HD
ENDBRANCH   3  25
BRANCH   4  28
HETATM   28  C   UNL     1      -0.349  10.295  25.561  0.00  0.00     0.265 C 
HETATM   29  O   UNL     1      -0.710  10.192  26.731  0.00  0.00    -0.267 OA
HETATM   30  N   UNL     1       0.770   9.661  25.041  0.00  0.00    -0.322 N 
HETATM   31  H   UNL     1       0.913   9.793  24.044  0.00  0.00     0.169 HD
BRANCH  30  32
HETATM   32  C   UNL     1       1.721   8.876  25.729  0.00  0.00     0.035 A 
HETATM   33  C   UNL     1       2.964   9.350  26.164  0.00  0.00     0.031 A 
HETATM   34  C   UNL     1       3.874   8.500  26.804  0.00  0.00     0.021 A 
HETATM   35  C   UNL     1       3.550   7.167  27.021  0.00  0.00     0.011 A 
HETATM   36 BR   UNL     1       4.794   6.017  27.855  0.00  0.00    -0.051 Br
HETATM   37  C   UNL     1       2.309   6.678  26.611  0.00  0.00     0.021 A 
HETATM   38  C   UNL     1       1.403   7.532  25.969  0.00  0.00     0.031 A 
ENDBRANCH  30  32
ENDBRANCH   4  28
TORSDOF 7
ENDMDL
MODEL 6
REMARK VINA RESULT:    -7.190      4.629      5.901
REMARK INTER + INTRA:         -10.949
REMARK INTER:                  -9.634
REMARK INTRA:                  -1.315
REMARK UNBOUND:                -1.237
REMARK  7 active torsions:
REMARK  status: ('A' for Active; 'I' for Inactive)
REMARK    1  A    between atoms: O_2  and  C_3 
REMARK    2  A    between atoms: C_6  and  C_7 
REMARK    3  A    between atoms: C_9  and  N_10 
REMARK    4  A    between atoms: C_11  and  C_12 
REMARK       I    between atoms: C_12  and  N_14 
REMARK    5  A    between atoms: N_14  and  C_15 
REMARK    6  A    between atoms: C_25  and  N_26 
REMARK    7  A    between atoms: C_31  and  O_32 
ROOT
HETATM    1  C   UNL     1      -0.752  11.378  25.059  0.00  0.00     0.013 C 
HETATM    2  C   UNL     1      -0.277  10.019  24.968  0.00  0.00     0.035 C 
HETATM    3  C   UNL     1       0.537   9.258  24.028  0.00  0.00     0.043 C 
HETATM    4  C   UNL     1       0.996   8.058  24.549  0.00  0.00     0.097 C 
HETATM    5  S   UNL     1       0.207   7.705  26.028  0.00  0.00    -0.062 SA
HETATM    6  C   UNL     1      -0.627   9.181  26.023  0.00  0.00     0.113 C 
HETATM    7  N   UNL     1      -1.481   9.441  27.027  0.00  0.00    -0.227 NA
HETATM    8  C   UNL     1      -1.984  10.675  27.056  0.00  0.00     0.123 C 
HETATM    9  C   UNL     1      -1.608  11.677  26.164  0.00  0.00     0.096 C 
HETATM   10  C   UNL     1      -2.075  13.006  26.440  0.00  0.00     0.103 C 
HETATM   11  N   UNL     1      -2.495  14.077  26.642  0.00  0.00    -0.191 NA
ENDROOT
BRANCH   1  12
HETATM   12  C   UNL     1      -0.218  12.442  24.164  0.00  0.00    -0.021 C 
HETATM   13  C   UNL     1       1.063  12.983  24.317  0.00  0.00     0.015 C 
HETATM   14  C   UNL     1       1.648  13.746  23.302  0.00  0.00     0.040 C 
HETATM   15  C   UNL     1       0.935  14.069  22.139  0.00  0.00     0.101 C 
HETATM   16  C   UNL     1      -0.418  13.748  22.072  0.00  0.00     0.102 C 
HETATM   17  C   UNL     1      -0.936  12.868  23.033  0.00  0.00     0.052 C 
BRANCH  15  18
HETATM   18  O   UNL     1       1.569  14.628  21.062  0.00  0.00    -0.353 OA
HETATM   19  C   UNL     1       2.970  14.315  21.017  0.00  0.00     0.210 C 
ENDBRANCH  15  18
BRANCH  16  20
HETATM   20  O   UNL     1      -1.355  14.095  21.142  0.00  0.00    -0.353 OA
HETATM   21  C   UNL     1      -2.375  13.165  20.808  0.00  0.00     0.210 C 
ENDBRANCH  16  20
ENDBRANCH   1  12
BRANCH   8  22
HETATM   22  N   UNL     1      -2.852  10.915  28.126  0.00  0.00    -0.286 NA
HETATM   23  H   UNL     1      -2.439  11.632  28.719  0.00  0.00     0.125 HD
HETATM   24  H   UNL     1      -3.105  10.086  28.651  0.00  0.00     0.125 HD
ENDBRANCH   8  22
BRANCH   3  25
HETATM   25  N   UNL     1       0.879   9.686  22.776  0.00  0.00    -0.301 NA
HETATM   26  H   UNL     1       0.139  10.126  22.221  0.00  0.00     0.124 HD
HETATM   27  H   UNL     1       1.689  10.312  22.721  0.00  0.00     0.124 HD
ENDBRANCH   3  25
BRANCH   4  28
HETATM   28  C   UNL     1       1.971   7.086  24.051  0.00  0.00     0.265 C 
HETATM   29  O   UNL     1       1.715   5.885  23.982  0.00  0.00    -0.267 OA
HETATM   30  N   UNL     1       3.193   7.635  23.691  0.00  0.00    -0.322 N 
HETATM   31  H   UNL     1       3.240   8.649  23.748  0.00  0.00     0.169 HD
BRANCH  30  32
HETATM   32  C   UNL     1       4.359   6.958  23.273  0.00  0.00     0.035 A 
HETATM   33  C   UNL     1       5.098   6.090  24.087  0.00  0.00     0.031 A 
HETATM   34  C   UNL     1       6.270   5.486  23.615  0.00  0.00     0.021 A 
HETATM   35  C   UNL     1       6.715   5.740  22.324  0.00  0.00     0.011 A 
HETATM   36 BR   UNL     1       8.314   4.949  21.705  0.00  0.00    -0.051 Br
HETATM   37  C   UNL     1       5.985   6.588  21.491  0.00  0.00     0.021 A 
HETATM   38  C   UNL     1       4.814   7.191  21.968  0.00  0.00     0.031 A 
ENDBRANCH  30  32
ENDBRANCH   4  28
TORSDOF 7
ENDMDL
MODEL 7
REMARK VINA RESULT:    -7.190      1.675      2.453
REMARK INTER + INTRA:         -10.949
REMARK INTER:                  -9.780
REMARK INTRA:                  -1.168
REMARK UNBOUND:                -1.237
REMARK  7 active torsions:
REMARK  status: ('A' for Active; 'I' for Inactive)
REMARK    1  A    between atoms: O_2  and  C_3 
REMARK    2  A    between atoms: C_6  and  C_7 
REMARK    3  A    between atoms: C_9  and  N_10 
REMARK    4  A    between atoms: C_11  and  C_12 
REMARK       I    between atoms: C_12  and  N_14 
REMARK    5  A    between atoms: N_14  and  C_15 
REMARK    6  A    between atoms: C_25  and  N_26 
REMARK    7  A    between atoms: C_31  and  O_32 
ROOT
HETATM    1  C   UNL     1      -1.120  12.266  23.005  0.00  0.00     0.013 C 
HETATM    2  C   UNL     1      -1.153  11.344  24.114  0.00  0.00     0.035 C 
HETATM    3  C   UNL     1      -0.182  10.500  24.800  0.00  0.00     0.043 C 
HETATM    4  C   UNL     1      -0.629  10.041  26.030  0.00  0.00     0.097 C 
HETATM    5  S   UNL     1      -2.302  10.359  26.218  0.00  0.00    -0.062 SA
HETATM    6  C   UNL     1      -2.385  11.198  24.747  0.00  0.00     0.113 C 
HETATM    7  N   UNL     1      -3.573  11.687  24.350  0.00  0.00    -0.227 NA
HETATM    8  C   UNL     1      -3.547  12.470  23.272  0.00  0.00     0.123 C 
HETATM    9  C   UNL     1      -2.371  12.841  22.623  0.00  0.00     0.096 C 
HETATM   10  C   UNL     1      -2.478  13.849  21.605  0.00  0.00     0.103 C 
HETATM   11  N   UNL     1      -2.575  14.634  20.747  0.00  0.00    -0.191 NA
ENDROOT
BRANCH   1  12
HETATM   12  C   UNL     1       0.172  12.733  22.431  0.00  0.00    -0.021 C 
HETATM   13  C   UNL     1       0.544  12.480  21.106  0.00  0.00     0.015 C 
HETATM   14  C   UNL     1       1.602  13.174  20.511  0.00  0.00     0.040 C 
HETATM   15  C   UNL     1       2.379  14.077  21.248  0.00  0.00     0.101 C 
HETATM   16  C   UNL     1       2.182  14.164  22.623  0.00  0.00     0.102 C 
HETATM   17  C   UNL     1       1.034  13.568  23.165  0.00  0.00     0.052 C 
BRANCH  15  18
HETATM   18  O   UNL     1       3.268  14.909  20.621  0.00  0.00    -0.353 OA
HETATM   19  C   UNL     1       2.669  16.139  20.186  0.00  0.00     0.210 C 
ENDBRANCH  15  18
BRANCH  16  20
HETATM   20  O   UNL     1       2.906  14.827  23.571  0.00  0.00    -0.353 OA
HETATM   21  C   UNL     1       2.525  14.717  24.935  0.00  0.00     0.210 C 
ENDBRANCH  16  20
ENDBRANCH   1  12
BRANCH   8  22
HETATM   22  N   UNL     1      -4.796  12.977  22.902  0.00  0.00    -0.286 NA
HETATM   23  H   UNL     1      -4.844  13.953  23.188  0.00  0.00     0.125 HD
HETATM   24  H   UNL     1      -5.583  12.439  23.249  0.00  0.00     0.125 HD
ENDBRANCH   8  22
BRANCH   3  25
HETATM   25  N   UNL     1       1.071  10.222  24.331  0.00  0.00    -0.301 NA
HETATM   26  H   UNL     1       1.532   9.390  24.711  0.00  0.00     0.124 HD
HETATM   27  H   UNL     1       1.166  10.163  23.313  0.00  0.00     0.124 HD
ENDBRANCH   3  25
BRANCH   4  28
HETATM   28  C   UNL     1       0.055   9.343  27.120  0.00  0.00     0.265 C 
HETATM   29  O   UNL     1       1.235   9.008  27.037  0.00  0.00    -0.267 OA
HETATM   30  N   UNL     1      -0.744   9.083  28.224  0.00  0.00    -0.322 N 
HETATM   31  H   UNL     1      -1.683   9.469  28.173  0.00  0.00     0.169 HD
BRANCH  30  32
HETATM   32  C   UNL     1      -0.411   8.349  29.383  0.00  0.00     0.035 A 
HETATM   33  C   UNL     1      -0.661   6.980  29.544  0.00  0.00     0.031 A 
HETATM   34  C   UNL     1      -0.340   6.327  30.740  0.00  0.00     0.021 A 
HETATM   35  C   UNL     1       0.237   7.034  31.788  0.00  0.00     0.011 A 
HETATM   36 BR   UNL     1       0.637   6.155  33.411  0.00  0.00    -0.051 Br
HETATM   37  C   UNL     1       0.510   8.394  31.642  0.00  0.00     0.021 A 
HETATM   38  C   UNL     1       0.185   9.043  30.444  0.00  0.00     0.031 A 
ENDBRANCH  30  32
ENDBRANCH   4  28
TORSDOF 7
ENDMDL
MODEL 8
REMARK VINA RESULT:    -7.153      1.447      2.180
REMARK INTER + INTRA:         -10.899
REMARK INTER:                  -9.662
REMARK INTRA:                  -1.237
REMARK UNBOUND:                -1.237
REMARK  7 active torsions:
REMARK  status: ('A' for Active; 'I' for Inactive)
REMARK    1  A    between atoms: O_2  and  C_3 
REMARK    2  A    between atoms: C_6  and  C_7 
REMARK    3  A    between atoms: C_9  and  N_10 
REMARK    4  A    between atoms: C_11  and  C_12 
REMARK       I    between atoms: C_12  and  N_14 
REMARK    5  A    between atoms: N_14  and  C_15 
REMARK    6  A    between atoms: C_25  and  N_26 
REMARK    7  A    between atoms: C_31  and  O_32 
ROOT
HETATM    1  C   UNL     1      -1.739  12.941  22.437  0.00  0.00     0.013 C 
HETATM    2  C   UNL     1      -2.029  12.018  23.507  0.00  0.00     0.035 C 
HETATM    3  C   UNL     1      -1.250  11.125  24.356  0.00  0.00     0.043 C 
HETATM    4  C   UNL     1      -1.947  10.685  25.471  0.00  0.00     0.097 C 
HETATM    5  S   UNL     1      -3.606  11.085  25.339  0.00  0.00    -0.062 SA
HETATM    6  C   UNL     1      -3.365  11.931  23.890  0.00  0.00     0.113 C 
HETATM    7  N   UNL     1      -4.430  12.480  23.279  0.00  0.00    -0.227 NA
HETATM    8  C   UNL     1      -4.160  13.264  22.236  0.00  0.00     0.123 C 
HETATM    9  C   UNL     1      -2.864  13.578  21.828  0.00  0.00     0.096 C 
HETATM   10  C   UNL     1      -2.725  14.593  20.822  0.00  0.00     0.103 C 
HETATM   11  N   UNL     1      -2.617  15.384  19.971  0.00  0.00    -0.191 NA
ENDROOT
BRANCH   1  12
HETATM   12  C   UNL     1      -0.340  13.345  22.127  0.00  0.00    -0.021 C 
HETATM   13  C   UNL     1       0.441  12.687  21.170  0.00  0.00     0.015 C 
HETATM   14  C   UNL     1       1.621  13.261  20.686  0.00  0.00     0.040 C 
HETATM   15  C   UNL     1       2.105  14.467  21.210  0.00  0.00     0.101 C 
HETATM   16  C   UNL     1       1.477  15.013  22.326  0.00  0.00     0.102 C 
HETATM   17  C   UNL     1       0.227  14.498  22.698  0.00  0.00     0.052 C 
BRANCH  15  18
HETATM   18  O   UNL     1       3.133  15.133  20.598  0.00  0.00    -0.353 OA
HETATM   19  C   UNL     1       2.677  16.171  19.716  0.00  0.00     0.210 C 
ENDBRANCH  15  18
BRANCH  16  20
HETATM   20  O   UNL     1       1.848  16.065  23.112  0.00  0.00    -0.353 OA
HETATM   21  C   UNL     1       1.262  17.339  22.884  0.00  0.00     0.210 C 
ENDBRANCH  16  20
ENDBRANCH   1  12
BRANCH   8  22
HETATM   22  N   UNL     1      -5.289  13.833  21.640  0.00  0.00    -0.286 NA
HETATM   23  H   UNL     1      -5.337  13.515  20.674  0.00  0.00     0.125 HD
HETATM   24  H   UNL     1      -5.332  14.843  21.710  0.00  0.00     0.125 HD
ENDBRANCH   8  22
BRANCH   3  25
HETATM   25  N   UNL     1       0.055  10.787  24.133  0.00  0.00    -0.301 NA
HETATM   26  H   UNL     1       0.226  10.011  23.487  0.00  0.00     0.124 HD
HETATM   27  H   UNL     1       0.672  11.549  23.835  0.00  0.00     0.124 HD
ENDBRANCH   3  25
BRANCH   4  28
HETATM   28  C   UNL     1      -1.519   9.951  26.664  0.00  0.00     0.265 C 
HETATM   29  O   UNL     1      -1.885  10.274  27.792  0.00  0.00    -0.267 OA
HETATM   30  N   UNL     1      -0.662   8.890  26.406  0.00  0.00    -0.322 N 
HETATM   31  H   UNL     1      -0.492   8.707  25.421  0.00  0.00     0.169 HD
BRANCH  30  32
HETATM   32  C   UNL     1      -0.004   8.060  27.339  0.00  0.00     0.035 A 
HETATM   33  C   UNL     1       1.340   8.200  27.703  0.00  0.00     0.031 A 
HETATM   34  C   UNL     1       1.937   7.310  28.606  0.00  0.00     0.021 A 
HETATM   35  C   UNL     1       1.195   6.273  29.156  0.00  0.00     0.011 A 
HETATM   36 BR   UNL     1       2.014   5.057  30.346  0.00  0.00    -0.051 Br
HETATM   37  C   UNL     1      -0.151   6.125  28.819  0.00  0.00     0.021 A 
HETATM   38  C   UNL     1      -0.742   7.017  27.914  0.00  0.00     0.031 A 
ENDBRANCH  30  32
ENDBRANCH   4  28
TORSDOF 7
ENDMDL
MODEL 9
REMARK VINA RESULT:    -7.098      4.278      9.349
REMARK INTER + INTRA:         -10.825
REMARK INTER:                  -9.605
REMARK INTRA:                  -1.220
REMARK UNBOUND:                -1.237
REMARK  7 active torsions:
REMARK  status: ('A' for Active; 'I' for Inactive)
REMARK    1  A    between atoms: O_2  and  C_3 
REMARK    2  A    between atoms: C_6  and  C_7 
REMARK    3  A    between atoms: C_9  and  N_10 
REMARK    4  A    between atoms: C_11  and  C_12 
REMARK       I    between atoms: C_12  and  N_14 
REMARK    5  A    between atoms: N_14  and  C_15 
REMARK    6  A    between atoms: C_25  and  N_26 
REMARK    7  A    between atoms: C_31  and  O_32 
ROOT
HETATM    1  C   UNL     1       0.037   8.016  26.965  0.00  0.00     0.013 C 
HETATM    2  C   UNL     1      -0.584   9.192  26.406  0.00  0.00     0.035 C 
HETATM    3  C   UNL     1      -0.676   9.797  25.083  0.00  0.00     0.043 C 
HETATM    4  C   UNL     1      -1.670  10.759  24.989  0.00  0.00     0.097 C 
HETATM    5  S   UNL     1      -2.273  11.152  26.543  0.00  0.00    -0.062 SA
HETATM    6  C   UNL     1      -1.316   9.974  27.297  0.00  0.00     0.113 C 
HETATM    7  N   UNL     1      -1.378   9.852  28.634  0.00  0.00    -0.227 NA
HETATM    8  C   UNL     1      -0.729   8.810  29.152  0.00  0.00     0.123 C 
HETATM    9  C   UNL     1      -0.085   7.846  28.378  0.00  0.00     0.096 C 
HETATM   10  C   UNL     1       0.394   6.676  29.059  0.00  0.00     0.103 C 
HETATM   11  N   UNL     1       0.823   5.748  29.622  0.00  0.00    -0.191 NA
ENDROOT
BRANCH   1  12
HETATM   12  C   UNL     1       0.596   6.951  26.087  0.00  0.00    -0.021 C 
HETATM   13  C   UNL     1      -0.213   6.103  25.321  0.00  0.00     0.015 C 
HETATM   14  C   UNL     1       0.329   5.328  24.292  0.00  0.00     0.040 C 
HETATM   15  C   UNL     1       1.710   5.306  24.055  0.00  0.00     0.101 C 
HETATM   16  C   UNL     1       2.555   5.949  24.955  0.00  0.00     0.102 C 
HETATM   17  C   UNL     1       1.982   6.826  25.887  0.00  0.00     0.052 C 
BRANCH  15  18
HETATM   18  O   UNL     1       2.218   4.721  22.925  0.00  0.00    -0.353 OA
HETATM   19  C   UNL     1       2.110   3.289  22.943  0.00  0.00     0.210 C 
ENDBRANCH  15  18
BRANCH  16  20
HETATM   20  O   UNL     1       3.917   5.933  25.042  0.00  0.00    -0.353 OA
HETATM   21  C   UNL     1       4.658   7.008  24.483  0.00  0.00     0.210 C 
ENDBRANCH  16  20
ENDBRANCH   1  12
BRANCH   8  22
HETATM   22  N   UNL     1      -0.834   8.704  30.542  0.00  0.00    -0.286 NA
HETATM   23  H   UNL     1      -1.109   9.611  30.914  0.00  0.00     0.125 HD
HETATM   24  H   UNL     1      -0.002   8.343  30.996  0.00  0.00     0.125 HD
ENDBRANCH   8  22
BRANCH   3  25
HETATM   25  N   UNL     1       0.086   9.430  24.010  0.00  0.00    -0.301 NA
HETATM   26  H   UNL     1       1.089   9.630  24.065  0.00  0.00     0.124 HD
HETATM   27  H   UNL     1       0.005   8.452  23.714  0.00  0.00     0.124 HD
ENDBRANCH   3  25
BRANCH   4  28
HETATM   28  C   UNL     1      -2.235  11.472  23.841  0.00  0.00     0.265 C 
HETATM   29  O   UNL     1      -2.634  10.879  22.841  0.00  0.00    -0.267 OA
HETATM   30  N   UNL     1      -2.256  12.852  23.979  0.00  0.00    -0.322 N 
HETATM   31  H   UNL     1      -1.946  13.197  24.883  0.00  0.00     0.169 HD
BRANCH  30  32
HETATM   32  C   UNL     1      -2.643  13.814  23.021  0.00  0.00     0.035 A 
HETATM   33  C   UNL     1      -3.973  14.095  22.683  0.00  0.00     0.031 A 
HETATM   34  C   UNL     1      -4.279  15.034  21.690  0.00  0.00     0.021 A 
HETATM   35  C   UNL     1      -3.260  15.705  21.027  0.00  0.00     0.011 A 
HETATM   36 BR   UNL     1      -3.678  16.946  19.666  0.00  0.00    -0.051 Br
HETATM   37  C   UNL     1      -1.929  15.452  21.359  0.00  0.00     0.021 A 
HETATM   38  C   UNL     1      -1.628  14.510  22.352  0.00  0.00     0.031 A 
ENDBRANCH  30  32
ENDBRANCH   4  28
TORSDOF 7
ENDMDL
