MODEL 1
REMARK VINA RESULT:    -7.902      0.000      0.000
REMARK INTER + INTRA:         -11.463
REMARK INTER:                 -10.376
REMARK INTRA:                  -1.087
REMARK UNBOUND:                -1.020
REMARK  6 active torsions:
REMARK  status: ('A' for Active; 'I' for Inactive)
REMARK    1  A    between atoms: O_2  and  C_3 
REMARK       I    between atoms: N_6  and  C_7 
REMARK    2  A    between atoms: C_7  and  C_9 
REMARK    3  A    between atoms: C_15  and  O_16 
REMARK    4  A    between atoms: C_17  and  C_18 
REMARK       I    between atoms: C_18  and  N_20 
REMARK    5  A    between atoms: N_20  and  C_22 
REMARK    6  A    between atoms: C_25  and  N_26 
ROOT
HETATM    1  C   UNL     1       4.156   6.225  22.898  0.00  0.00     0.157 A 
HETATM    2  N   UNL     1       5.400   6.603  23.266  0.00  0.00    -0.168 NA
HETATM    3  N   UNL     1       6.086   6.683  22.121  0.00  0.00    -0.277 N 
HETATM    4  H   UNL     1       7.060   6.956  22.167  0.00  0.00     0.189 HD
HETATM    5  C   UNL     1       5.354   6.398  21.006  0.00  0.00     0.065 A 
HETATM    6  C   UNL     1       5.694   6.401  19.655  0.00  0.00     0.069 C 
HETATM    7  C   UNL     1       4.661   6.125  18.745  0.00  0.00     0.083 C 
HETATM    8  C   UNL     1       3.355   5.798  19.164  0.00  0.00     0.066 C 
HETATM    9  C   UNL     1       3.105   5.679  20.541  0.00  0.00     0.036 C 
HETATM   10  C   UNL     1       4.091   6.063  21.474  0.00  0.00     0.029 A 
ENDROOT
BRANCH   8  11
HETATM   11  C   UNL     1       2.290   5.442  18.170  0.00  0.00     0.260 C 
HETATM   12  O   UNL     1       1.485   6.347  17.936  0.00  0.00    -0.267 OA
HETATM   13  N   UNL     1       2.223   4.154  17.558  0.00  0.00    -0.318 N 
HETATM   14  C   UNL     1       3.021   2.990  17.976  0.00  0.00     0.159 C 
BRANCH  13  15
HETATM   15  C   UNL     1       1.171   3.862  16.595  0.00  0.00     0.037 A 
HETATM   16  C   UNL     1       1.223   4.310  15.274  0.00  0.00     0.032 A 
HETATM   17  C   UNL     1       0.177   4.061  14.366  0.00  0.00     0.031 A 
HETATM   18  C   UNL     1      -0.967   3.335  14.715  0.00  0.00     0.030 A 
HETATM   19  C   UNL     1      -0.990   2.848  16.025  0.00  0.00     0.031 A 
HETATM   20  C   UNL     1       0.048   3.099  16.943  0.00  0.00     0.032 A 
BRANCH  18  21
HETATM   21  N   UNL     1      -1.990   3.101  13.824  0.00  0.00    -0.377 N 
HETATM   22  C   UNL     1      -2.992   2.040  14.011  0.00  0.00     0.149 C 
HETATM   23  C   UNL     1      -4.396   2.660  13.902  0.00  0.00     0.187 C 
HETATM   24  O   UNL     1      -4.582   3.343  12.650  0.00  0.00    -0.388 OA
HETATM   25  C   UNL     1      -3.611   4.395  12.507  0.00  0.00     0.187 C 
HETATM   26  C   UNL     1      -2.175   3.851  12.570  0.00  0.00     0.149 C 
ENDBRANCH  18  21
ENDBRANCH  13  15
ENDBRANCH   8  11
BRANCH   7  27
HETATM   27  O   UNL     1       4.975   6.202  17.412  0.00  0.00    -0.360 OA
HETATM   28  H   UNL     1       4.961   7.126  17.112  0.00  0.00     0.217 HD
ENDBRANCH   7  27
BRANCH   1  29
HETATM   29  C   UNL     1       3.013   6.049  23.834  0.00  0.00     0.275 C 
HETATM   30  N   UNL     1       2.374   7.174  24.348  0.00  0.00    -0.344 N 
HETATM   31  C   UNL     1       1.228   7.062  25.227  0.00  0.00     0.129 C 
HETATM   32  C   UNL     1       2.710   8.571  24.116  0.00  0.00     0.158 C 
HETATM   33  C   UNL     1       0.575   8.430  25.168  0.00  0.00     0.053 C 
HETATM   34  C   UNL     1       1.761   9.378  25.006  0.00  0.00     0.140 C 
HETATM   35  O   UNL     1       2.620   4.919  24.135  0.00  0.00    -0.266 OA
BRANCH  34  36
HETATM   36  O   UNL     1       1.320  10.605  24.432  0.00  0.00    -0.389 OA
HETATM   37  C   UNL     1      -0.008  10.946  24.813  0.00  0.00     0.202 C 
ENDBRANCH  34  36
ENDBRANCH   1  29
TORSDOF 6
ENDMDL
MODEL 2
REMARK VINA RESULT:    -7.705      0.932      1.376
REMARK INTER + INTRA:         -11.203
REMARK INTER:                 -10.235
REMARK INTRA:                  -0.968
REMARK UNBOUND:                -1.020
REMARK  6 active torsions:
REMARK  status: ('A' for Active; 'I' for Inactive)
REMARK    1  A    between atoms: O_2  and  C_3 
REMARK       I    between atoms: N_6  and  C_7 
REMARK    2  A    between atoms: C_7  and  C_9 
REMARK    3  A    between atoms: C_15  and  O_16 
REMARK    4  A    between atoms: C_17  and  C_18 
REMARK       I    between atoms: C_18  and  N_20 
REMARK    5  A    between atoms: N_20  and  C_22 
REMARK    6  A    between atoms: C_25  and  N_26 
ROOT
HETATM    1  C   UNL     1       4.111   6.237  22.925  0.00  0.00     0.157 A 
HETATM    2  N   UNL     1       5.241   6.871  23.307  0.00  0.00    -0.168 NA
HETATM    3  N   UNL     1       5.944   7.026  22.181  0.00  0.00    -0.277 N 
HETATM    4  H   UNL     1       6.843   7.488  22.240  0.00  0.00     0.189 HD
HETATM    5  C   UNL     1       5.327   6.546  21.063  0.00  0.00     0.065 A 
HETATM    6  C   UNL     1       5.715   6.547  19.725  0.00  0.00     0.069 C 
HETATM    7  C   UNL     1       4.794   6.027  18.801  0.00  0.00     0.083 C 
HETATM    8  C   UNL     1       3.560   5.471  19.200  0.00  0.00     0.066 C 
HETATM    9  C   UNL     1       3.283   5.375  20.573  0.00  0.00     0.036 C 
HETATM   10  C   UNL     1       4.136   5.993  21.512  0.00  0.00     0.029 A 
ENDROOT
BRANCH   8  11
HETATM   11  C   UNL     1       2.626   4.861  18.197  0.00  0.00     0.260 C 
HETATM   12  O   UNL     1       2.938   3.723  17.834  0.00  0.00    -0.267 OA
HETATM   13  N   UNL     1       1.480   5.556  17.707  0.00  0.00    -0.318 N 
HETATM   14  C   UNL     1       1.205   6.982  17.944  0.00  0.00     0.159 C 
BRANCH  13  15
HETATM   15  C   UNL     1       0.603   4.916  16.738  0.00  0.00     0.037 A 
HETATM   16  C   UNL     1      -0.022   3.693  16.989  0.00  0.00     0.032 A 
HETATM   17  C   UNL     1      -0.829   3.062  16.025  0.00  0.00     0.031 A 
HETATM   18  C   UNL     1      -1.078   3.621  14.767  0.00  0.00     0.030 A 
HETATM   19  C   UNL     1      -0.488   4.868  14.540  0.00  0.00     0.031 A 
HETATM   20  C   UNL     1       0.328   5.503  15.495  0.00  0.00     0.032 A 
BRANCH  18  21
HETATM   21  N   UNL     1      -1.863   2.995  13.826  0.00  0.00    -0.377 N 
HETATM   22  C   UNL     1      -3.095   2.265  14.162  0.00  0.00     0.149 C 
HETATM   23  C   UNL     1      -4.244   2.800  13.290  0.00  0.00     0.187 C 
HETATM   24  O   UNL     1      -3.941   2.700  11.888  0.00  0.00    -0.388 OA
HETATM   25  C   UNL     1      -2.751   3.449  11.580  0.00  0.00     0.187 C 
HETATM   26  C   UNL     1      -1.543   2.950  12.389  0.00  0.00     0.149 C 
ENDBRANCH  18  21
ENDBRANCH  13  15
ENDBRANCH   8  11
BRANCH   7  27
HETATM   27  O   UNL     1       5.140   6.097  17.477  0.00  0.00    -0.360 OA
HETATM   28  H   UNL     1       5.969   6.592  17.368  0.00  0.00     0.217 HD
ENDBRANCH   7  27
BRANCH   1  29
HETATM   29  C   UNL     1       2.987   5.887  23.835  0.00  0.00     0.275 C 
HETATM   30  N   UNL     1       2.202   6.904  24.371  0.00  0.00    -0.344 N 
HETATM   31  C   UNL     1       1.068   6.620  25.227  0.00  0.00     0.129 C 
HETATM   32  C   UNL     1       2.360   8.340  24.188  0.00  0.00     0.158 C 
HETATM   33  C   UNL     1       0.246   7.894  25.198  0.00  0.00     0.053 C 
HETATM   34  C   UNL     1       1.304   8.990  25.085  0.00  0.00     0.140 C 
HETATM   35  O   UNL     1       2.737   4.707  24.095  0.00  0.00    -0.266 OA
BRANCH  34  36
HETATM   36  O   UNL     1       0.717  10.168  24.540  0.00  0.00    -0.389 OA
HETATM   37  C   UNL     1      -0.701  10.183  24.656  0.00  0.00     0.202 C 
ENDBRANCH  34  36
ENDBRANCH   1  29
TORSDOF 6
ENDMDL
MODEL 3
REMARK VINA RESULT:    -7.683      1.900      2.838
REMARK INTER + INTRA:         -11.174
REMARK INTER:                 -10.285
REMARK INTRA:                  -0.889
REMARK UNBOUND:                -1.020
REMARK  6 active torsions:
REMARK  status: ('A' for Active; 'I' for Inactive)
REMARK    1  A    between atoms: O_2  and  C_3 
REMARK       I    between atoms: N_6  and  C_7 
REMARK    2  A    between atoms: C_7  and  C_9 
REMARK    3  A    between atoms: C_15  and  O_16 
REMARK    4  A    between atoms: C_17  and  C_18 
REMARK       I    between atoms: C_18  and  N_20 
REMARK    5  A    between atoms: N_20  and  C_22 
REMARK    6  A    between atoms: C_25  and  N_26 
ROOT
HETATM    1  C   UNL     1       3.083   7.048  24.760  0.00  0.00     0.157 A 
HETATM    2  N   UNL     1       4.125   7.412  25.540  0.00  0.00    -0.168 NA
HETATM    3  N   UNL     1       5.206   7.221  24.777  0.00  0.00    -0.277 N 
HETATM    4  H   UNL     1       6.113   7.436  25.173  0.00  0.00     0.189 HD
HETATM    5  C   UNL     1       4.933   6.768  23.519  0.00  0.00     0.065 A 
HETATM    6  C   UNL     1       5.769   6.482  22.441  0.00  0.00     0.069 C 
HETATM    7  C   UNL     1       5.145   6.098  21.244  0.00  0.00     0.083 C 
HETATM    8  C   UNL     1       3.747   5.944  21.140  0.00  0.00     0.066 C 
HETATM    9  C   UNL     1       2.967   6.115  22.295  0.00  0.00     0.036 C 
HETATM   10  C   UNL     1       3.555   6.613  23.478  0.00  0.00     0.029 A 
ENDROOT
BRANCH   8  11
HETATM   11  C   UNL     1       3.114   5.466  19.866  0.00  0.00     0.260 C 
HETATM   12  O   UNL     1       3.124   4.241  19.719  0.00  0.00    -0.267 OA
HETATM   13  N   UNL     1       2.556   6.368  18.911  0.00  0.00    -0.318 N 
HETATM   14  C   UNL     1       2.726   7.829  18.946  0.00  0.00     0.159 C 
BRANCH  13  15
HETATM   15  C   UNL     1       1.949   5.851  17.693  0.00  0.00     0.037 A 
HETATM   16  C   UNL     1       1.075   4.763  17.699  0.00  0.00     0.032 A 
HETATM   17  C   UNL     1       0.532   4.242  16.510  0.00  0.00     0.031 A 
HETATM   18  C   UNL     1       0.811   4.788  15.253  0.00  0.00     0.030 A 
HETATM   19  C   UNL     1       1.649   5.908  15.259  0.00  0.00     0.031 A 
HETATM   20  C   UNL     1       2.203   6.430  16.443  0.00  0.00     0.032 A 
BRANCH  18  21
HETATM   21  N   UNL     1       0.282   4.271  14.092  0.00  0.00    -0.377 N 
HETATM   22  C   UNL     1       1.110   3.822  12.961  0.00  0.00     0.149 C 
HETATM   23  C   UNL     1       0.705   2.385  12.590  0.00  0.00     0.187 C 
HETATM   24  O   UNL     1      -0.697   2.286  12.286  0.00  0.00    -0.388 OA
HETATM   25  C   UNL     1      -1.484   2.700  13.418  0.00  0.00     0.187 C 
HETATM   26  C   UNL     1      -1.162   4.145  13.832  0.00  0.00     0.149 C 
ENDBRANCH  18  21
ENDBRANCH  13  15
ENDBRANCH   8  11
BRANCH   7  27
HETATM   27  O   UNL     1       5.960   5.891  20.161  0.00  0.00    -0.360 OA
HETATM   28  H   UNL     1       6.877   6.127  20.376  0.00  0.00     0.217 HD
ENDBRANCH   7  27
BRANCH   1  29
HETATM   29  C   UNL     1       1.654   7.134  25.164  0.00  0.00     0.275 C 
HETATM   30  N   UNL     1       0.997   8.359  25.091  0.00  0.00    -0.344 N 
HETATM   31  C   UNL     1      -0.406   8.492  25.428  0.00  0.00     0.129 C 
HETATM   32  C   UNL     1       1.553   9.644  24.692  0.00  0.00     0.158 C 
HETATM   33  C   UNL     1      -0.825   9.800  24.787  0.00  0.00     0.053 C 
HETATM   34  C   UNL     1       0.431  10.664  24.900  0.00  0.00     0.140 C 
HETATM   35  O   UNL     1       1.048   6.126  25.537  0.00  0.00    -0.266 OA
BRANCH  34  36
HETATM   36  O   UNL     1       0.390  11.699  23.923  0.00  0.00    -0.389 OA
HETATM   37  C   UNL     1       0.710  12.978  24.460  0.00  0.00     0.202 C 
ENDBRANCH  34  36
ENDBRANCH   1  29
TORSDOF 6
ENDMDL
MODEL 4
REMARK VINA RESULT:    -7.600      2.512      3.761
REMARK INTER + INTRA:         -11.063
REMARK INTER:                  -9.874
REMARK INTRA:                  -1.190
REMARK UNBOUND:                -1.020
REMARK  6 active torsions:
REMARK  status: ('A' for Active; 'I' for Inactive)
REMARK    1  A    between atoms: O_2  and  C_3 
REMARK       I    between atoms: N_6  and  C_7 
REMARK    2  A    between atoms: C_7  and  C_9 
REMARK    3  A    between atoms: C_15  and  O_16 
REMARK    4  A    between atoms: C_17  and  C_18 
REMARK       I    between atoms: C_18  and  N_20 
REMARK    5  A    between atoms: N_20  and  C_22 
REMARK    6  A    between atoms: C_25  and  N_26 
ROOT
HETATM    1  C   UNL     1       2.699   7.195  26.302  0.00  0.00     0.157 A 
HETATM    2  N   UNL     1       3.738   7.415  27.138  0.00  0.00    -0.168 NA
HETATM    3  N   UNL     1       4.809   6.962  26.480  0.00  0.00    -0.277 N 
HETATM    4  H   UNL     1       5.712   7.032  26.933  0.00  0.00     0.189 HD
HETATM    5  C   UNL     1       4.539   6.472  25.236  0.00  0.00     0.065 A 
HETATM    6  C   UNL     1       5.373   5.949  24.250  0.00  0.00     0.069 C 
HETATM    7  C   UNL     1       4.768   5.597  23.034  0.00  0.00     0.083 C 
HETATM    8  C   UNL     1       3.376   5.703  22.826  0.00  0.00     0.066 C 
HETATM    9  C   UNL     1       2.570   6.110  23.901  0.00  0.00     0.036 C 
HETATM   10  C   UNL     1       3.162   6.578  25.093  0.00  0.00     0.029 A 
ENDROOT
BRANCH   8  11
HETATM   11  C   UNL     1       2.750   5.255  21.539  0.00  0.00     0.260 C 
HETATM   12  O   UNL     1       2.266   4.121  21.574  0.00  0.00    -0.267 OA
HETATM   13  N   UNL     1       2.729   6.083  20.377  0.00  0.00    -0.318 N 
HETATM   14  C   UNL     1       3.485   7.337  20.233  0.00  0.00     0.159 C 
BRANCH  13  15
HETATM   15  C   UNL     1       2.103   5.602  19.154  0.00  0.00     0.037 A 
HETATM   16  C   UNL     1       0.782   5.907  18.822  0.00  0.00     0.032 A 
HETATM   17  C   UNL     1       0.173   5.396  17.661  0.00  0.00     0.031 A 
HETATM   18  C   UNL     1       0.851   4.573  16.755  0.00  0.00     0.030 A 
HETATM   19  C   UNL     1       2.188   4.311  17.069  0.00  0.00     0.031 A 
HETATM   20  C   UNL     1       2.802   4.811  18.233  0.00  0.00     0.032 A 
BRANCH  18  21
HETATM   21  N   UNL     1       0.248   4.070  15.624  0.00  0.00    -0.377 N 
HETATM   22  C   UNL     1       0.254   4.771  14.330  0.00  0.00     0.149 C 
HETATM   23  C   UNL     1       0.780   3.812  13.248  0.00  0.00     0.187 C 
HETATM   24  O   UNL     1       0.006   2.601  13.186  0.00  0.00    -0.388 OA
HETATM   25  C   UNL     1       0.043   1.919  14.453  0.00  0.00     0.187 C 
HETATM   26  C   UNL     1      -0.502   2.803  15.587  0.00  0.00     0.149 C 
ENDBRANCH  18  21
ENDBRANCH  13  15
ENDBRANCH   8  11
BRANCH   7  27
HETATM   27  O   UNL     1       5.597   5.153  22.036  0.00  0.00    -0.360 OA
HETATM   28  H   UNL     1       6.513   5.095  22.356  0.00  0.00     0.217 HD
ENDBRANCH   7  27
BRANCH   1  29
HETATM   29  C   UNL     1       1.290   7.582  26.581  0.00  0.00     0.275 C 
HETATM   30  N   UNL     1       0.791   8.768  26.051  0.00  0.00    -0.344 N 
HETATM   31  C   UNL     1      -0.586   9.172  26.253  0.00  0.00     0.129 C 
HETATM   32  C   UNL     1       1.503   9.753  25.250  0.00  0.00     0.158 C 
HETATM   33  C   UNL     1      -0.837  10.205  25.172  0.00  0.00     0.053 C 
HETATM   34  C   UNL     1       0.515  10.902  25.032  0.00  0.00     0.140 C 
HETATM   35  O   UNL     1       0.564   6.850  27.258  0.00  0.00    -0.266 OA
BRANCH  34  36
HETATM   36  O   UNL     1       0.607  11.519  23.752  0.00  0.00    -0.389 OA
HETATM   37  C   UNL     1      -0.073  12.768  23.691  0.00  0.00     0.202 C 
ENDBRANCH  34  36
ENDBRANCH   1  29
TORSDOF 6
ENDMDL
MODEL 5
REMARK VINA RESULT:    -7.479      3.421     10.779
REMARK INTER + INTRA:         -10.905
REMARK INTER:                  -9.733
REMARK INTRA:                  -1.172
REMARK UNBOUND:                -1.020
REMARK  6 active torsions:
REMARK  status: ('A' for Active; 'I' for Inactive)
REMARK    1  A    between atoms: O_2  and  C_3 
REMARK       I    between atoms: N_6  and  C_7 
REMARK    2  A    between atoms: C_7  and  C_9 
REMARK    3  A    between atoms: C_15  and  O_16 
REMARK    4  A    between atoms: C_17  and  C_18 
REMARK       I    between atoms: C_18  and  N_20 
REMARK    5  A    between atoms: N_20  and  C_22 
REMARK    6  A    between atoms: C_25  and  N_26 
ROOT
HETATM    1  C   UNL     1       3.951   7.203  18.903  0.00  0.00     0.157 A 
HETATM    2  N   UNL     1       5.015   7.068  18.080  0.00  0.00    -0.168 NA
HETATM    3  N   UNL     1       6.038   6.775  18.889  0.00  0.00    -0.277 N 
HETATM    4  H   UNL     1       6.949   6.629  18.470  0.00  0.00     0.189 HD
HETATM    5  C   UNL     1       5.705   6.686  20.208  0.00  0.00     0.065 A 
HETATM    6  C   UNL     1       6.467   6.377  21.332  0.00  0.00     0.069 C 
HETATM    7  C   UNL     1       5.784   6.298  22.556  0.00  0.00     0.083 C 
HETATM    8  C   UNL     1       4.405   6.577  22.668  0.00  0.00     0.066 C 
HETATM    9  C   UNL     1       3.717   7.014  21.525  0.00  0.00     0.036 C 
HETATM   10  C   UNL     1       4.352   6.990  20.264  0.00  0.00     0.029 A 
ENDROOT
BRANCH   8  11
HETATM   11  C   UNL     1       3.717   6.552  24.000  0.00  0.00     0.260 C 
HETATM   12  O   UNL     1       3.413   5.423  24.397  0.00  0.00    -0.267 OA
HETATM   13  N   UNL     1       3.438   7.744  24.733  0.00  0.00    -0.318 N 
HETATM   14  C   UNL     1       3.581   9.106  24.195  0.00  0.00     0.159 C 
BRANCH  13  15
HETATM   15  C   UNL     1       2.771   7.662  26.024  0.00  0.00     0.037 A 
HETATM   16  C   UNL     1       1.388   7.794  26.160  0.00  0.00     0.032 A 
HETATM   17  C   UNL     1       0.761   7.761  27.419  0.00  0.00     0.031 A 
HETATM   18  C   UNL     1       1.471   7.573  28.610  0.00  0.00     0.030 A 
HETATM   19  C   UNL     1       2.849   7.393  28.463  0.00  0.00     0.031 A 
HETATM   20  C   UNL     1       3.486   7.433  27.208  0.00  0.00     0.032 A 
BRANCH  18  21
HETATM   21  N   UNL     1       0.852   7.548  29.839  0.00  0.00    -0.377 N 
HETATM   22  C   UNL     1       0.327   6.317  30.451  0.00  0.00     0.149 C 
HETATM   23  C   UNL     1       0.907   6.182  31.870  0.00  0.00     0.187 C 
HETATM   24  O   UNL     1       0.617   7.335  32.678  0.00  0.00    -0.388 OA
HETATM   25  C   UNL     1       1.169   8.519  32.074  0.00  0.00     0.187 C 
HETATM   26  C   UNL     1       0.610   8.747  30.661  0.00  0.00     0.149 C 
ENDBRANCH  18  21
ENDBRANCH  13  15
ENDBRANCH   8  11
BRANCH   7  27
HETATM   27  O   UNL     1       6.517   5.919  23.651  0.00  0.00    -0.360 OA
HETATM   28  H   UNL     1       6.020   5.282  24.189  0.00  0.00     0.217 HD
ENDBRANCH   7  27
BRANCH   1  29
HETATM   29  C   UNL     1       2.562   7.485  18.453  0.00  0.00     0.275 C 
HETATM   30  N   UNL     1       1.710   6.424  18.164  0.00  0.00    -0.344 N 
HETATM   31  C   UNL     1       0.334   6.639  17.764  0.00  0.00     0.129 C 
HETATM   32  C   UNL     1       2.016   5.001  18.205  0.00  0.00     0.158 C 
HETATM   33  C   UNL     1      -0.341   5.303  18.004  0.00  0.00     0.053 C 
HETATM   34  C   UNL     1       0.761   4.292  17.689  0.00  0.00     0.140 C 
HETATM   35  O   UNL     1       2.160   8.648  18.358  0.00  0.00    -0.266 OA
BRANCH  34  36
HETATM   36  O   UNL     1       0.478   3.056  18.338  0.00  0.00    -0.389 OA
HETATM   37  C   UNL     1      -0.916   2.787  18.429  0.00  0.00     0.202 C 
ENDBRANCH  34  36
ENDBRANCH   1  29
TORSDOF 6
ENDMDL
MODEL 6
REMARK VINA RESULT:    -7.412      3.251     10.514
REMARK INTER + INTRA:         -10.816
REMARK INTER:                  -9.546
REMARK INTRA:                  -1.270
REMARK UNBOUND:                -1.020
REMARK  6 active torsions:
REMARK  status: ('A' for Active; 'I' for Inactive)
REMARK    1  A    between atoms: O_2  and  C_3 
REMARK       I    between atoms: N_6  and  C_7 
REMARK    2  A    between atoms: C_7  and  C_9 
REMARK    3  A    between atoms: C_15  and  O_16 
REMARK    4  A    between atoms: C_17  and  C_18 
REMARK       I    between atoms: C_18  and  N_20 
REMARK    5  A    between atoms: N_20  and  C_22 
REMARK    6  A    between atoms: C_25  and  N_26 
ROOT
HETATM    1  C   UNL     1       2.216   5.847  17.794  0.00  0.00     0.157 A 
HETATM    2  N   UNL     1       2.971   5.575  16.706  0.00  0.00    -0.168 NA
HETATM    3  N   UNL     1       4.211   5.934  17.052  0.00  0.00    -0.277 N 
HETATM    4  H   UNL     1       4.950   5.812  16.370  0.00  0.00     0.189 HD
HETATM    5  C   UNL     1       4.324   6.411  18.325  0.00  0.00     0.065 A 
HETATM    6  C   UNL     1       5.431   6.849  19.050  0.00  0.00     0.069 C 
HETATM    7  C   UNL     1       5.204   7.213  20.387  0.00  0.00     0.083 C 
HETATM    8  C   UNL     1       3.917   7.201  20.963  0.00  0.00     0.066 C 
HETATM    9  C   UNL     1       2.822   6.879  20.145  0.00  0.00     0.036 C 
HETATM   10  C   UNL     1       3.034   6.399  18.835  0.00  0.00     0.029 A 
ENDROOT
BRANCH   8  11
HETATM   11  C   UNL     1       3.697   7.660  22.374  0.00  0.00     0.260 C 
HETATM   12  O   UNL     1       3.974   8.845  22.575  0.00  0.00    -0.267 OA
HETATM   13  N   UNL     1       3.212   6.783  23.390  0.00  0.00    -0.318 N 
HETATM   14  C   UNL     1       3.087   5.324  23.243  0.00  0.00     0.159 C 
BRANCH  13  15
HETATM   15  C   UNL     1       3.011   7.281  24.743  0.00  0.00     0.037 A 
HETATM   16  C   UNL     1       3.891   6.987  25.785  0.00  0.00     0.032 A 
HETATM   17  C   UNL     1       3.660   7.435  27.099  0.00  0.00     0.031 A 
HETATM   18  C   UNL     1       2.554   8.219  27.444  0.00  0.00     0.030 A 
HETATM   19  C   UNL     1       1.702   8.550  26.386  0.00  0.00     0.031 A 
HETATM   20  C   UNL     1       1.921   8.099  25.071  0.00  0.00     0.032 A 
BRANCH  18  21
HETATM   21  N   UNL     1       2.330   8.648  28.732  0.00  0.00    -0.377 N 
HETATM   22  C   UNL     1       1.008   9.072  29.221  0.00  0.00     0.149 C 
HETATM   23  C   UNL     1       0.678   8.288  30.503  0.00  0.00     0.187 C 
HETATM   24  O   UNL     1       1.690   8.461  31.510  0.00  0.00    -0.388 OA
HETATM   25  C   UNL     1       2.966   8.009  31.019  0.00  0.00     0.187 C 
HETATM   26  C   UNL     1       3.386   8.772  29.752  0.00  0.00     0.149 C 
ENDBRANCH  18  21
ENDBRANCH  13  15
ENDBRANCH   8  11
BRANCH   7  27
HETATM   27  O   UNL     1       6.304   7.571  21.124  0.00  0.00    -0.360 OA
HETATM   28  H   UNL     1       6.182   8.455  21.509  0.00  0.00     0.217 HD
ENDBRANCH   7  27
BRANCH   1  29
HETATM   29  C   UNL     1       0.759   5.568  17.905  0.00  0.00     0.275 C 
HETATM   30  N   UNL     1       0.332   4.270  18.166  0.00  0.00    -0.344 N 
HETATM   31  C   UNL     1      -1.072   3.949  18.329  0.00  0.00     0.129 C 
HETATM   32  C   UNL     1       1.152   3.076  18.315  0.00  0.00     0.158 C 
HETATM   33  C   UNL     1      -1.072   2.610  19.040  0.00  0.00     0.053 C 
HETATM   34  C   UNL     1       0.168   1.915  18.478  0.00  0.00     0.140 C 
HETATM   35  O   UNL     1      -0.062   6.482  17.790  0.00  0.00    -0.266 OA
BRANCH  34  36
HETATM   36  O   UNL     1       0.601   0.902  19.381  0.00  0.00    -0.389 OA
HETATM   37  C   UNL     1       1.297   1.427  20.506  0.00  0.00     0.202 C 
ENDBRANCH  34  36
ENDBRANCH   1  29
TORSDOF 6
ENDMDL
MODEL 7
REMARK VINA RESULT:    -7.352      2.026      3.028
REMARK INTER + INTRA:         -10.736
REMARK INTER:                  -9.736
REMARK INTRA:                  -1.000
REMARK UNBOUND:                -1.020
REMARK  6 active torsions:
REMARK  status: ('A' for Active; 'I' for Inactive)
REMARK    1  A    between atoms: O_2  and  C_3 
REMARK       I    between atoms: N_6  and  C_7 
REMARK    2  A    between atoms: C_7  and  C_9 
REMARK    3  A    between atoms: C_15  and  O_16 
REMARK    4  A    between atoms: C_17  and  C_18 
REMARK       I    between atoms: C_18  and  N_20 
REMARK    5  A    between atoms: N_20  and  C_22 
REMARK    6  A    between atoms: C_25  and  N_26 
ROOT
HETATM    1  C   UNL     1       3.832   7.478  24.227  0.00  0.00     0.157 A 
HETATM    2  N   UNL     1       4.766   7.220  25.169  0.00  0.00    -0.168 NA
HETATM    3  N   UNL     1       5.315   6.060  24.798  0.00  0.00    -0.277 N 
HETATM    4  H   UNL     1       6.053   5.676  25.375  0.00  0.00     0.189 HD
HETATM    5  C   UNL     1       4.808   5.542  23.642  0.00  0.00     0.065 A 
HETATM    6  C   UNL     1       5.133   4.390  22.928  0.00  0.00     0.069 C 
HETATM    7  C   UNL     1       4.454   4.188  21.716  0.00  0.00     0.083 C 
HETATM    8  C   UNL     1       3.447   5.065  21.261  0.00  0.00     0.066 C 
HETATM    9  C   UNL     1       3.069   6.135  22.088  0.00  0.00     0.036 C 
HETATM   10  C   UNL     1       3.812   6.426  23.252  0.00  0.00     0.029 A 
ENDROOT
BRANCH   8  11
HETATM   11  C   UNL     1       2.692   4.786  19.996  0.00  0.00     0.260 C 
HETATM   12  O   UNL     1       1.634   4.172  20.157  0.00  0.00    -0.267 OA
HETATM   13  N   UNL     1       3.175   5.198  18.717  0.00  0.00    -0.318 N 
HETATM   14  C   UNL     1       4.525   5.727  18.467  0.00  0.00     0.159 C 
BRANCH  13  15
HETATM   15  C   UNL     1       2.400   4.906  17.521  0.00  0.00     0.037 A 
HETATM   16  C   UNL     1       2.139   3.601  17.100  0.00  0.00     0.032 A 
HETATM   17  C   UNL     1       1.429   3.332  15.915  0.00  0.00     0.031 A 
HETATM   18  C   UNL     1       0.920   4.345  15.096  0.00  0.00     0.030 A 
HETATM   19  C   UNL     1       1.143   5.649  15.548  0.00  0.00     0.031 A 
HETATM   20  C   UNL     1       1.859   5.927  16.727  0.00  0.00     0.032 A 
BRANCH  18  21
HETATM   21  N   UNL     1       0.232   4.076  13.934  0.00  0.00    -0.377 N 
HETATM   22  C   UNL     1       0.893   3.677  12.682  0.00  0.00     0.149 C 
HETATM   23  C   UNL     1       0.245   2.378  12.171  0.00  0.00     0.187 C 
HETATM   24  O   UNL     1      -1.174   2.524  11.992  0.00  0.00    -0.388 OA
HETATM   25  C   UNL     1      -1.800   2.882  13.237  0.00  0.00     0.187 C 
HETATM   26  C   UNL     1      -1.230   4.195  13.799  0.00  0.00     0.149 C 
ENDBRANCH  18  21
ENDBRANCH  13  15
ENDBRANCH   8  11
BRANCH   7  27
HETATM   27  O   UNL     1       4.826   3.096  20.974  0.00  0.00    -0.360 OA
HETATM   28  H   UNL     1       4.656   3.252  20.031  0.00  0.00     0.217 HD
ENDBRANCH   7  27
BRANCH   1  29
HETATM   29  C   UNL     1       2.984   8.700  24.187  0.00  0.00     0.275 C 
HETATM   30  N   UNL     1       1.801   8.733  24.919  0.00  0.00    -0.344 N 
HETATM   31  C   UNL     1       0.959   9.912  24.953  0.00  0.00     0.129 C 
HETATM   32  C   UNL     1       1.227   7.669  25.731  0.00  0.00     0.158 C 
HETATM   33  C   UNL     1       0.083   9.714  26.174  0.00  0.00     0.053 C 
HETATM   34  C   UNL     1      -0.125   8.201  26.215  0.00  0.00     0.140 C 
HETATM   35  O   UNL     1       3.336   9.683  23.530  0.00  0.00    -0.266 OA
BRANCH  34  36
HETATM   36  O   UNL     1      -0.472   7.800  27.537  0.00  0.00    -0.389 OA
HETATM   37  C   UNL     1      -0.075   8.747  28.523  0.00  0.00     0.202 C 
ENDBRANCH  34  36
ENDBRANCH   1  29
TORSDOF 6
ENDMDL
MODEL 8
REMARK VINA RESULT:    -7.193      3.612     10.996
REMARK INTER + INTRA:         -10.526
REMARK INTER:                  -9.430
REMARK INTRA:                  -1.096
REMARK UNBOUND:                -1.020
REMARK  6 active torsions:
REMARK  status: ('A' for Active; 'I' for Inactive)
REMARK    1  A    between atoms: O_2  and  C_3 
REMARK       I    between atoms: N_6  and  C_7 
REMARK    2  A    between atoms: C_7  and  C_9 
REMARK    3  A    between atoms: C_15  and  O_16 
REMARK    4  A    between atoms: C_17  and  C_18 
REMARK       I    between atoms: C_18  and  N_20 
REMARK    5  A    between atoms: N_20  and  C_22 
REMARK    6  A    between atoms: C_25  and  N_26 
ROOT
HETATM    1  C   UNL     1       4.557   5.919  19.208  0.00  0.00     0.157 A 
HETATM    2  N   UNL     1       5.038   6.661  18.186  0.00  0.00    -0.168 NA
HETATM    3  N   UNL     1       5.056   7.914  18.651  0.00  0.00    -0.277 N 
HETATM    4  H   UNL     1       5.389   8.646  18.035  0.00  0.00     0.189 HD
HETATM    5  C   UNL     1       4.630   8.041  19.941  0.00  0.00     0.065 A 
HETATM    6  C   UNL     1       4.532   9.154  20.773  0.00  0.00     0.069 C 
HETATM    7  C   UNL     1       4.116   8.919  22.093  0.00  0.00     0.083 C 
HETATM    8  C   UNL     1       3.753   7.636  22.552  0.00  0.00     0.066 C 
HETATM    9  C   UNL     1       3.743   6.576  21.630  0.00  0.00     0.036 C 
HETATM   10  C   UNL     1       4.265   6.761  20.333  0.00  0.00     0.029 A 
ENDROOT
BRANCH   8  11
HETATM   11  C   UNL     1       3.247   7.427  23.948  0.00  0.00     0.260 C 
HETATM   12  O   UNL     1       2.225   8.062  24.222  0.00  0.00    -0.267 OA
HETATM   13  N   UNL     1       3.909   6.566  24.874  0.00  0.00    -0.318 N 
HETATM   14  C   UNL     1       5.240   5.976  24.658  0.00  0.00     0.159 C 
BRANCH  13  15
HETATM   15  C   UNL     1       3.373   6.396  26.217  0.00  0.00     0.037 A 
HETATM   16  C   UNL     1       2.192   5.695  26.465  0.00  0.00     0.032 A 
HETATM   17  C   UNL     1       1.659   5.578  27.762  0.00  0.00     0.031 A 
HETATM   18  C   UNL     1       2.283   6.130  28.885  0.00  0.00     0.030 A 
HETATM   19  C   UNL     1       3.490   6.789  28.636  0.00  0.00     0.031 A 
HETATM   20  C   UNL     1       4.026   6.919  27.341  0.00  0.00     0.032 A 
BRANCH  18  21
HETATM   21  N   UNL     1       1.753   6.018  30.151  0.00  0.00    -0.377 N 
HETATM   22  C   UNL     1       2.565   5.706  31.338  0.00  0.00     0.149 C 
HETATM   23  C   UNL     1       2.295   6.769  32.417  0.00  0.00     0.187 C 
HETATM   24  O   UNL     1       0.898   6.855  32.745  0.00  0.00    -0.388 OA
HETATM   25  C   UNL     1       0.131   7.193  31.574  0.00  0.00     0.187 C 
HETATM   26  C   UNL     1       0.319   6.155  30.456  0.00  0.00     0.149 C 
ENDBRANCH  18  21
ENDBRANCH  13  15
ENDBRANCH   8  11
BRANCH   7  27
HETATM   27  O   UNL     1       4.093  10.001  22.936  0.00  0.00    -0.360 OA
HETATM   28  H   UNL     1       4.603   9.816  23.741  0.00  0.00     0.217 HD
ENDBRANCH   7  27
BRANCH   1  29
HETATM   29  C   UNL     1       4.400   4.441  19.181  0.00  0.00     0.275 C 
HETATM   30  N   UNL     1       3.336   3.881  18.480  0.00  0.00    -0.344 N 
HETATM   31  C   UNL     1       3.160   2.446  18.383  0.00  0.00     0.129 C 
HETATM   32  C   UNL     1       2.277   4.578  17.764  0.00  0.00     0.158 C 
HETATM   33  C   UNL     1       2.226   2.261  17.202  0.00  0.00     0.053 C 
HETATM   34  C   UNL     1       1.319   3.488  17.277  0.00  0.00     0.140 C 
HETATM   35  O   UNL     1       5.216   3.715  19.755  0.00  0.00    -0.266 OA
BRANCH  34  36
HETATM   36  O   UNL     1       0.746   3.740  15.998  0.00  0.00    -0.389 OA
HETATM   37  C   UNL     1       1.373   2.999  14.957  0.00  0.00     0.202 C 
ENDBRANCH  34  36
ENDBRANCH   1  29
TORSDOF 6
ENDMDL
MODEL 9
REMARK VINA RESULT:    -7.133      2.617      3.182
REMARK INTER + INTRA:         -10.447
REMARK INTER:                  -9.427
REMARK INTRA:                  -1.020
REMARK UNBOUND:                -1.020
REMARK  6 active torsions:
REMARK  status: ('A' for Active; 'I' for Inactive)
REMARK    1  A    between atoms: O_2  and  C_3 
REMARK       I    between atoms: N_6  and  C_7 
REMARK    2  A    between atoms: C_7  and  C_9 
REMARK    3  A    between atoms: C_15  and  O_16 
REMARK    4  A    between atoms: C_17  and  C_18 
REMARK       I    between atoms: C_18  and  N_20 
REMARK    5  A    between atoms: N_20  and  C_22 
REMARK    6  A    between atoms: C_25  and  N_26 
ROOT
HETATM    1  C   UNL     1       4.174   6.388  23.487  0.00  0.00     0.157 A 
HETATM    2  N   UNL     1       4.414   7.496  24.222  0.00  0.00    -0.168 NA
HETATM    3  N   UNL     1       4.397   8.502  23.341  0.00  0.00    -0.277 N 
HETATM    4  H   UNL     1       4.558   9.440  23.687  0.00  0.00     0.189 HD
HETATM    5  C   UNL     1       4.136   8.120  22.058  0.00  0.00     0.065 A 
HETATM    6  C   UNL     1       4.007   8.861  20.885  0.00  0.00     0.069 C 
HETATM    7  C   UNL     1       3.655   8.151  19.726  0.00  0.00     0.083 C 
HETATM    8  C   UNL     1       3.498   6.749  19.721  0.00  0.00     0.066 C 
HETATM    9  C   UNL     1       3.772   6.042  20.902  0.00  0.00     0.036 C 
HETATM   10  C   UNL     1       4.013   6.739  22.105  0.00  0.00     0.029 A 
ENDROOT
BRANCH   8  11
HETATM   11  C   UNL     1       3.189   6.010  18.452  0.00  0.00     0.260 C 
HETATM   12  O   UNL     1       4.161   5.834  17.714  0.00  0.00    -0.267 OA
HETATM   13  N   UNL     1       1.872   5.560  18.138  0.00  0.00    -0.318 N 
HETATM   14  C   UNL     1       0.660   5.945  18.880  0.00  0.00     0.159 C 
BRANCH  13  15
HETATM   15  C   UNL     1       1.627   4.843  16.896  0.00  0.00     0.037 A 
HETATM   16  C   UNL     1       1.705   3.452  16.809  0.00  0.00     0.032 A 
HETATM   17  C   UNL     1       1.514   2.774  15.591  0.00  0.00     0.031 A 
HETATM   18  C   UNL     1       1.211   3.438  14.398  0.00  0.00     0.030 A 
HETATM   19  C   UNL     1       1.086   4.827  14.502  0.00  0.00     0.031 A 
HETATM   20  C   UNL     1       1.285   5.515  15.714  0.00  0.00     0.032 A 
BRANCH  18  21
HETATM   21  N   UNL     1       1.031   2.770  13.209  0.00  0.00    -0.377 N 
HETATM   22  C   UNL     1       1.171   1.311  13.076  0.00  0.00     0.149 C 
HETATM   23  C   UNL     1      -0.101   0.749  12.417  0.00  0.00     0.187 C 
HETATM   24  O   UNL     1      -0.363   1.369  11.146  0.00  0.00    -0.388 OA
HETATM   25  C   UNL     1      -0.527   2.789  11.309  0.00  0.00     0.187 C 
HETATM   26  C   UNL     1       0.720   3.435  11.932  0.00  0.00     0.149 C 
ENDBRANCH  18  21
ENDBRANCH  13  15
ENDBRANCH   8  11
BRANCH   7  27
HETATM   27  O   UNL     1       3.454   8.887  18.587  0.00  0.00    -0.360 OA
HETATM   28  H   UNL     1       4.063   8.604  17.886  0.00  0.00     0.217 HD
ENDBRANCH   7  27
BRANCH   1  29
HETATM   29  C   UNL     1       4.048   5.014  24.042  0.00  0.00     0.275 C 
HETATM   30  N   UNL     1       3.117   4.766  25.046  0.00  0.00    -0.344 N 
HETATM   31  C   UNL     1       2.921   3.439  25.592  0.00  0.00     0.129 C 
HETATM   32  C   UNL     1       2.229   5.723  25.691  0.00  0.00     0.158 C 
HETATM   33  C   UNL     1       1.565   3.506  26.268  0.00  0.00     0.053 C 
HETATM   34  C   UNL     1       1.505   4.941  26.790  0.00  0.00     0.140 C 
HETATM   35  O   UNL     1       4.746   4.096  23.602  0.00  0.00    -0.266 OA
BRANCH  34  36
HETATM   36  O   UNL     1       0.148   5.324  26.985  0.00  0.00    -0.389 OA
HETATM   37  C   UNL     1      -0.227   6.450  26.200  0.00  0.00     0.202 C 
ENDBRANCH  34  36
ENDBRANCH   1  29
TORSDOF 6
ENDMDL
