MODEL 1
REMARK VINA RESULT:    -8.245      0.000      0.000
REMARK INTER + INTRA:         -13.328
REMARK INTER:                 -11.990
REMARK INTRA:                  -1.338
REMARK UNBOUND:                -1.709
REMARK  8 active torsions:
REMARK  status: ('A' for Active; 'I' for Inactive)
REMARK    1  A    between atoms: C_2  and  N_3 
REMARK       I    between atoms: N_3  and  C_4 
REMARK    2  A    between atoms: C_4  and  C_6 
REMARK    3  A    between atoms: C_9  and  C_24 
REMARK    4  A    between atoms: C_10  and  C_11 
REMARK    5  A    between atoms: C_14  and  C_15 
REMARK    6  A    between atoms: C_15  and  N_16 
REMARK    7  A    between atoms: C_28  and  O_29 
REMARK    8  A    between atoms: C_31  and  O_32 
ROOT
HETATM    1  C   UNL     1       1.354  16.143  21.207  0.00  0.00     0.165 A 
HETATM    2  N   UNL     1       0.634  17.167  20.726  0.00  0.00    -0.121 NA
HETATM    3  O   UNL     1      -0.655  16.723  20.654  0.00  0.00    -0.211 OA
HETATM    4  C   UNL     1      -0.763  15.444  21.125  0.00  0.00     0.128 A 
HETATM    5  C   UNL     1       0.520  14.986  21.442  0.00  0.00     0.048 A 
ENDROOT
BRANCH   5   6
HETATM    6  C   UNL     1       0.825  13.744  22.161  0.00  0.00    -0.021 C 
HETATM    7  C   UNL     1       0.261  12.512  21.795  0.00  0.00     0.013 C 
HETATM    8  C   UNL     1       0.192  11.464  22.723  0.00  0.00     0.010 C 
HETATM    9  C   UNL     1       0.786  11.591  23.984  0.00  0.00    -0.030 C 
HETATM   10  C   UNL     1       1.558  12.723  24.246  0.00  0.00     0.010 C 
HETATM   11  C   UNL     1       1.556  13.793  23.355  0.00  0.00     0.013 C 
BRANCH   9  12
HETATM   12  C   UNL     1       0.498  10.632  25.118  0.00  0.00     0.311 C 
BRANCH  12  13
HETATM   13  N   UNL     1      -0.760   9.888  25.010  0.00  0.00     0.096 N 
HETATM   14  C   UNL     1      -0.554   8.424  24.951  0.00  0.00     0.299 C 
HETATM   15  C   UNL     1      -0.096   7.796  26.278  0.00  0.00     0.198 C 
HETATM   16  O   UNL     1      -1.004   8.106  27.343  0.00  0.00    -0.388 OA
HETATM   17  C   UNL     1      -1.155   9.520  27.492  0.00  0.00     0.198 C 
HETATM   18  C   UNL     1      -1.623  10.181  26.181  0.00  0.00     0.299 C 
ENDBRANCH  12  13
ENDBRANCH   9  12
ENDBRANCH   5   6
BRANCH   1  19
HETATM   19  C   UNL     1       2.771  16.363  21.523  0.00  0.00     0.273 C 
HETATM   20  N   UNL     1       3.607  15.376  21.024  0.00  0.00    -0.356 N 
HETATM   21  H   UNL     1       3.164  14.597  20.548  0.00  0.00     0.162 HD
HETATM   22  O   UNL     1       3.193  17.358  22.108  0.00  0.00    -0.266 OA
BRANCH  20  23
HETATM   23  C   UNL     1       5.046  15.489  21.028  0.00  0.00     0.118 C 
HETATM   24  C   UNL     1       5.672  14.776  22.216  0.00  0.00     0.026 C 
ENDBRANCH  20  23
ENDBRANCH   1  19
BRANCH   4  25
HETATM   25  C   UNL     1      -2.168  15.011  21.265  0.00  0.00     0.036 A 
HETATM   26  C   UNL     1      -2.959  14.744  20.135  0.00  0.00     0.044 A 
HETATM   27  C   UNL     1      -4.276  14.291  20.255  0.00  0.00     0.068 A 
HETATM   28 CL   UNL     1      -5.235  14.084  18.838  0.00  0.00    -0.081 Cl
HETATM   29  C   UNL     1      -4.802  14.008  21.510  0.00  0.00     0.090 A 
HETATM   30  C   UNL     1      -4.044  14.229  22.651  0.00  0.00     0.075 A 
HETATM   31  C   UNL     1      -2.751  14.752  22.527  0.00  0.00     0.081 A 
BRANCH  29  32
HETATM   32  O   UNL     1      -6.059  13.496  21.676  0.00  0.00    -0.359 OA
HETATM   33  H   UNL     1      -6.114  12.682  21.140  0.00  0.00     0.217 HD
ENDBRANCH  29  32
BRANCH  31  34
HETATM   34  O   UNL     1      -2.049  15.014  23.674  0.00  0.00    -0.360 OA
HETATM   35  H   UNL     1      -1.096  14.939  23.500  0.00  0.00     0.217 HD
ENDBRANCH  31  34
ENDBRANCH   4  25
TORSDOF 8
ENDMDL
MODEL 2
REMARK VINA RESULT:    -8.166      2.483      3.284
REMARK INTER + INTRA:         -13.217
REMARK INTER:                 -12.133
REMARK INTRA:                  -1.084
REMARK UNBOUND:                -1.709
REMARK  8 active torsions:
REMARK  status: ('A' for Active; 'I' for Inactive)
REMARK    1  A    between atoms: C_2  and  N_3 
REMARK       I    between atoms: N_3  and  C_4 
REMARK    2  A    between atoms: C_4  and  C_6 
REMARK    3  A    between atoms: C_9  and  C_24 
REMARK    4  A    between atoms: C_10  and  C_11 
REMARK    5  A    between atoms: C_14  and  C_15 
REMARK    6  A    between atoms: C_15  and  N_16 
REMARK    7  A    between atoms: C_28  and  O_29 
REMARK    8  A    between atoms: C_31  and  O_32 
ROOT
HETATM    1  C   UNL     1       3.344  15.504  21.600  0.00  0.00     0.165 A 
HETATM    2  N   UNL     1       3.347  16.596  20.822  0.00  0.00    -0.121 NA
HETATM    3  O   UNL     1       2.055  16.774  20.413  0.00  0.00    -0.211 OA
HETATM    4  C   UNL     1       1.232  15.830  20.960  0.00  0.00     0.128 A 
HETATM    5  C   UNL     1       2.019  14.935  21.693  0.00  0.00     0.048 A 
ENDROOT
BRANCH   5   6
HETATM    6  C   UNL     1       1.508  13.897  22.595  0.00  0.00    -0.021 C 
HETATM    7  C   UNL     1       0.918  12.716  22.117  0.00  0.00     0.013 C 
HETATM    8  C   UNL     1       0.054  11.977  22.936  0.00  0.00     0.010 C 
HETATM    9  C   UNL     1      -0.141  12.339  24.273  0.00  0.00    -0.030 C 
HETATM   10  C   UNL     1       0.641  13.364  24.806  0.00  0.00     0.010 C 
HETATM   11  C   UNL     1       1.436  14.145  23.972  0.00  0.00     0.013 C 
BRANCH   9  12
HETATM   12  C   UNL     1      -1.264  11.774  25.113  0.00  0.00     0.311 C 
BRANCH  12  13
HETATM   13  N   UNL     1      -1.879  12.712  26.058  0.00  0.00     0.096 N 
HETATM   14  C   UNL     1      -2.899  13.575  25.422  0.00  0.00     0.299 C 
HETATM   15  C   UNL     1      -4.196  12.843  25.039  0.00  0.00     0.198 C 
HETATM   16  O   UNL     1      -4.773  12.178  26.169  0.00  0.00    -0.388 OA
HETATM   17  C   UNL     1      -3.844  11.262  26.754  0.00  0.00     0.198 C 
HETATM   18  C   UNL     1      -2.534  11.965  27.159  0.00  0.00     0.299 C 
ENDBRANCH  12  13
ENDBRANCH   9  12
ENDBRANCH   5   6
BRANCH   1  19
HETATM   19  C   UNL     1       4.580  15.132  22.300  0.00  0.00     0.273 C 
HETATM   20  N   UNL     1       5.688  15.852  21.883  0.00  0.00    -0.356 N 
HETATM   21  H   UNL     1       5.549  16.509  21.123  0.00  0.00     0.162 HD
HETATM   22  O   UNL     1       4.623  14.316  23.219  0.00  0.00    -0.266 OA
BRANCH  20  23
HETATM   23  C   UNL     1       6.957  15.809  22.570  0.00  0.00     0.118 C 
HETATM   24  C   UNL     1       7.652  17.162  22.571  0.00  0.00     0.026 C 
ENDBRANCH  20  23
ENDBRANCH   1  19
BRANCH   4  25
HETATM   25  C   UNL     1      -0.196  16.119  20.718  0.00  0.00     0.036 A 
HETATM   26  C   UNL     1      -1.202  15.430  21.418  0.00  0.00     0.044 A 
HETATM   27  C   UNL     1      -2.556  15.725  21.230  0.00  0.00     0.068 A 
HETATM   28 CL   UNL     1      -3.751  14.776  22.032  0.00  0.00    -0.081 Cl
HETATM   29  C   UNL     1      -2.930  16.779  20.404  0.00  0.00     0.090 A 
HETATM   30  C   UNL     1      -1.966  17.504  19.718  0.00  0.00     0.075 A 
HETATM   31  C   UNL     1      -0.617  17.155  19.854  0.00  0.00     0.081 A 
BRANCH  29  32
HETATM   32  O   UNL     1      -4.235  17.152  20.243  0.00  0.00    -0.359 OA
HETATM   33  H   UNL     1      -4.240  18.098  20.003  0.00  0.00     0.217 HD
ENDBRANCH  29  32
BRANCH  31  34
HETATM   34  O   UNL     1       0.306  17.852  19.119  0.00  0.00    -0.360 OA
HETATM   35  H   UNL     1       1.193  17.713  19.488  0.00  0.00     0.217 HD
ENDBRANCH  31  34
ENDBRANCH   4  25
TORSDOF 8
ENDMDL
MODEL 3
REMARK VINA RESULT:    -8.087      2.263      6.648
REMARK INTER + INTRA:         -13.106
REMARK INTER:                 -11.588
REMARK INTRA:                  -1.518
REMARK UNBOUND:                -1.709
REMARK  8 active torsions:
REMARK  status: ('A' for Active; 'I' for Inactive)
REMARK    1  A    between atoms: C_2  and  N_3 
REMARK       I    between atoms: N_3  and  C_4 
REMARK    2  A    between atoms: C_4  and  C_6 
REMARK    3  A    between atoms: C_9  and  C_24 
REMARK    4  A    between atoms: C_10  and  C_11 
REMARK    5  A    between atoms: C_14  and  C_15 
REMARK    6  A    between atoms: C_15  and  N_16 
REMARK    7  A    between atoms: C_28  and  O_29 
REMARK    8  A    between atoms: C_31  and  O_32 
ROOT
HETATM    1  C   UNL     1      -3.119  12.463  25.860  0.00  0.00     0.165 A 
HETATM    2  N   UNL     1      -4.388  12.420  25.430  0.00  0.00    -0.121 NA
HETATM    3  O   UNL     1      -4.459  13.280  24.371  0.00  0.00    -0.211 OA
HETATM    4  C   UNL     1      -3.238  13.832  24.101  0.00  0.00     0.128 A 
HETATM    5  C   UNL     1      -2.335  13.390  25.074  0.00  0.00     0.048 A 
ENDROOT
BRANCH   5   6
HETATM    6  C   UNL     1      -0.882  13.587  25.036  0.00  0.00    -0.021 C 
HETATM    7  C   UNL     1      -0.277  14.773  25.481  0.00  0.00     0.013 C 
HETATM    8  C   UNL     1       1.004  15.123  25.033  0.00  0.00     0.010 C 
HETATM    9  C   UNL     1       1.742  14.244  24.232  0.00  0.00    -0.030 C 
HETATM   10  C   UNL     1       1.233  12.966  24.003  0.00  0.00     0.010 C 
HETATM   11  C   UNL     1      -0.070  12.653  24.380  0.00  0.00     0.013 C 
BRANCH   9  12
HETATM   12  C   UNL     1       2.984  14.675  23.484  0.00  0.00     0.311 C 
BRANCH  12  13
HETATM   13  N   UNL     1       3.145  14.098  22.145  0.00  0.00     0.096 N 
HETATM   14  C   UNL     1       2.240  14.713  21.148  0.00  0.00     0.299 C 
HETATM   15  C   UNL     1       2.612  16.154  20.760  0.00  0.00     0.198 C 
HETATM   16  O   UNL     1       3.963  16.236  20.291  0.00  0.00    -0.388 OA
HETATM   17  C   UNL     1       4.877  15.737  21.272  0.00  0.00     0.198 C 
HETATM   18  C   UNL     1       4.539  14.289  21.677  0.00  0.00     0.299 C 
ENDBRANCH  12  13
ENDBRANCH   9  12
ENDBRANCH   5   6
BRANCH   1  19
HETATM   19  C   UNL     1      -2.699  11.536  26.918  0.00  0.00     0.273 C 
HETATM   20  N   UNL     1      -2.032  10.419  26.441  0.00  0.00    -0.356 N 
HETATM   21  H   UNL     1      -1.948  10.331  25.433  0.00  0.00     0.162 HD
HETATM   22  O   UNL     1      -2.854  11.756  28.118  0.00  0.00    -0.266 OA
BRANCH  20  23
HETATM   23  C   UNL     1      -1.348   9.484  27.302  0.00  0.00     0.118 C 
HETATM   24  C   UNL     1       0.138   9.403  26.990  0.00  0.00     0.026 C 
ENDBRANCH  20  23
ENDBRANCH   1  19
BRANCH   4  25
HETATM   25  C   UNL     1      -3.229  14.592  22.836  0.00  0.00     0.036 A 
HETATM   26  C   UNL     1      -2.150  15.429  22.502  0.00  0.00     0.044 A 
HETATM   27  C   UNL     1      -2.110  16.120  21.288  0.00  0.00     0.068 A 
HETATM   28 CL   UNL     1      -0.815  17.216  20.977  0.00  0.00    -0.081 Cl
HETATM   29  C   UNL     1      -3.106  15.919  20.339  0.00  0.00     0.090 A 
HETATM   30  C   UNL     1      -4.174  15.078  20.617  0.00  0.00     0.075 A 
HETATM   31  C   UNL     1      -4.246  14.446  21.865  0.00  0.00     0.081 A 
BRANCH  29  32
HETATM   32  O   UNL     1      -3.075  16.517  19.110  0.00  0.00    -0.359 OA
HETATM   33  H   UNL     1      -2.258  17.050  19.067  0.00  0.00     0.217 HD
ENDBRANCH  29  32
BRANCH  31  34
HETATM   34  O   UNL     1      -5.341  13.667  22.131  0.00  0.00    -0.360 OA
HETATM   35  H   UNL     1      -5.505  13.064  21.387  0.00  0.00     0.217 HD
ENDBRANCH  31  34
ENDBRANCH   4  25
TORSDOF 8
ENDMDL
MODEL 4
REMARK VINA RESULT:    -7.998      2.893      5.972
REMARK INTER + INTRA:         -12.981
REMARK INTER:                 -11.640
REMARK INTRA:                  -1.340
REMARK UNBOUND:                -1.709
REMARK  8 active torsions:
REMARK  status: ('A' for Active; 'I' for Inactive)
REMARK    1  A    between atoms: C_2  and  N_3 
REMARK       I    between atoms: N_3  and  C_4 
REMARK    2  A    between atoms: C_4  and  C_6 
REMARK    3  A    between atoms: C_9  and  C_24 
REMARK    4  A    between atoms: C_10  and  C_11 
REMARK    5  A    between atoms: C_14  and  C_15 
REMARK    6  A    between atoms: C_15  and  N_16 
REMARK    7  A    between atoms: C_28  and  O_29 
REMARK    8  A    between atoms: C_31  and  O_32 
ROOT
HETATM    1  C   UNL     1      -4.008  14.912  20.484  0.00  0.00     0.165 A 
HETATM    2  N   UNL     1      -3.911  16.155  19.991  0.00  0.00    -0.121 NA
HETATM    3  O   UNL     1      -2.693  16.628  20.389  0.00  0.00    -0.211 OA
HETATM    4  C   UNL     1      -2.003  15.679  21.091  0.00  0.00     0.128 A 
HETATM    5  C   UNL     1      -2.829  14.561  21.243  0.00  0.00     0.048 A 
ENDROOT
BRANCH   5   6
HETATM    6  C   UNL     1      -2.404  13.255  21.759  0.00  0.00    -0.021 C 
HETATM    7  C   UNL     1      -2.643  12.862  23.085  0.00  0.00     0.013 C 
HETATM    8  C   UNL     1      -1.865  11.857  23.675  0.00  0.00     0.010 C 
HETATM    9  C   UNL     1      -0.920  11.154  22.919  0.00  0.00    -0.030 C 
HETATM   10  C   UNL     1      -0.865  11.380  21.544  0.00  0.00     0.010 C 
HETATM   11  C   UNL     1      -1.581  12.432  20.978  0.00  0.00     0.013 C 
BRANCH   9  12
HETATM   12  C   UNL     1       0.139  10.280  23.552  0.00  0.00     0.311 C 
BRANCH  12  13
HETATM   13  N   UNL     1      -0.352   9.053  24.186  0.00  0.00     0.096 N 
HETATM   14  C   UNL     1       0.510   7.883  23.907  0.00  0.00     0.299 C 
HETATM   15  C   UNL     1       1.870   7.914  24.624  0.00  0.00     0.198 C 
HETATM   16  O   UNL     1       1.711   8.059  26.040  0.00  0.00    -0.388 OA
HETATM   17  C   UNL     1       0.960   9.236  26.353  0.00  0.00     0.198 C 
HETATM   18  C   UNL     1      -0.414   9.233  25.657  0.00  0.00     0.299 C 
ENDBRANCH  12  13
ENDBRANCH   9  12
ENDBRANCH   5   6
BRANCH   1  19
HETATM   19  C   UNL     1      -5.165  14.090  20.108  0.00  0.00     0.273 C 
HETATM   20  N   UNL     1      -5.291  13.906  18.740  0.00  0.00    -0.356 N 
HETATM   21  H   UNL     1      -4.619  14.385  18.149  0.00  0.00     0.162 HD
HETATM   22  O   UNL     1      -5.913  13.554  20.923  0.00  0.00    -0.266 OA
BRANCH  20  23
HETATM   23  C   UNL     1      -6.220  12.970  18.155  0.00  0.00     0.118 C 
HETATM   24  C   UNL     1      -7.172  13.643  17.179  0.00  0.00     0.026 C 
ENDBRANCH  20  23
ENDBRANCH   1  19
BRANCH   4  25
HETATM   25  C   UNL     1      -0.604  16.075  21.348  0.00  0.00     0.036 A 
HETATM   26  C   UNL     1       0.144  15.467  22.372  0.00  0.00     0.044 A 
HETATM   27  C   UNL     1       1.482  15.802  22.596  0.00  0.00     0.068 A 
HETATM   28 CL   UNL     1       2.319  15.105  23.933  0.00  0.00    -0.081 Cl
HETATM   29  C   UNL     1       2.131  16.686  21.742  0.00  0.00     0.090 A 
HETATM   30  C   UNL     1       1.438  17.285  20.700  0.00  0.00     0.075 A 
HETATM   31  C   UNL     1       0.078  17.002  20.527  0.00  0.00     0.081 A 
BRANCH  29  32
HETATM   32  O   UNL     1       3.457  16.991  21.877  0.00  0.00    -0.359 OA
HETATM   33  H   UNL     1       3.763  17.344  21.020  0.00  0.00     0.217 HD
ENDBRANCH  29  32
BRANCH  31  34
HETATM   34  O   UNL     1      -0.593  17.653  19.525  0.00  0.00    -0.360 OA
HETATM   35  H   UNL     1      -0.920  18.508  19.850  0.00  0.00     0.217 HD
ENDBRANCH  31  34
ENDBRANCH   4  25
TORSDOF 8
ENDMDL
MODEL 5
REMARK VINA RESULT:    -7.865      2.904      6.700
REMARK INTER + INTRA:         -12.793
REMARK INTER:                 -11.542
REMARK INTRA:                  -1.252
REMARK UNBOUND:                -1.709
REMARK  8 active torsions:
REMARK  status: ('A' for Active; 'I' for Inactive)
REMARK    1  A    between atoms: C_2  and  N_3 
REMARK       I    between atoms: N_3  and  C_4 
REMARK    2  A    between atoms: C_4  and  C_6 
REMARK    3  A    between atoms: C_9  and  C_24 
REMARK    4  A    between atoms: C_10  and  C_11 
REMARK    5  A    between atoms: C_14  and  C_15 
REMARK    6  A    between atoms: C_15  and  N_16 
REMARK    7  A    between atoms: C_28  and  O_29 
REMARK    8  A    between atoms: C_31  and  O_32 
ROOT
HETATM    1  C   UNL     1      -3.984  13.860  21.360  0.00  0.00     0.165 A 
HETATM    2  N   UNL     1      -5.128  13.366  21.854  0.00  0.00    -0.121 NA
HETATM    3  O   UNL     1      -4.772  12.531  22.874  0.00  0.00    -0.211 OA
HETATM    4  C   UNL     1      -3.417  12.527  23.056  0.00  0.00     0.128 A 
HETATM    5  C   UNL     1      -2.840  13.323  22.061  0.00  0.00     0.048 A 
ENDROOT
BRANCH   5   6
HETATM    6  C   UNL     1      -1.435  13.742  22.017  0.00  0.00    -0.021 C 
HETATM    7  C   UNL     1      -0.507  13.154  21.144  0.00  0.00     0.013 C 
HETATM    8  C   UNL     1       0.866  13.228  21.418  0.00  0.00     0.010 C 
HETATM    9  C   UNL     1       1.335  13.985  22.497  0.00  0.00    -0.030 C 
HETATM   10  C   UNL     1       0.425  14.767  23.208  0.00  0.00     0.010 C 
HETATM   11  C   UNL     1      -0.942  14.628  22.985  0.00  0.00     0.013 C 
BRANCH   9  12
HETATM   12  C   UNL     1       2.751  13.870  23.016  0.00  0.00     0.311 C 
BRANCH  12  13
HETATM   13  N   UNL     1       3.481  15.135  23.141  0.00  0.00     0.096 N 
HETATM   14  C   UNL     1       4.943  14.968  22.976  0.00  0.00     0.299 C 
HETATM   15  C   UNL     1       5.385  14.655  21.537  0.00  0.00     0.198 C 
HETATM   16  O   UNL     1       4.914  15.649  20.619  0.00  0.00    -0.388 OA
HETATM   17  C   UNL     1       3.490  15.771  20.682  0.00  0.00     0.198 C 
HETATM   18  C   UNL     1       3.013  16.094  22.111  0.00  0.00     0.299 C 
ENDBRANCH  12  13
ENDBRANCH   9  12
ENDBRANCH   5   6
BRANCH   1  19
HETATM   19  C   UNL     1      -4.051  14.901  20.326  0.00  0.00     0.273 C 
HETATM   20  N   UNL     1      -3.413  16.077  20.684  0.00  0.00    -0.356 N 
HETATM   21  H   UNL     1      -3.018  16.118  21.618  0.00  0.00     0.162 HD
HETATM   22  O   UNL     1      -4.559  14.730  19.219  0.00  0.00    -0.266 OA
BRANCH  20  23
HETATM   23  C   UNL     1      -3.169  17.154  19.754  0.00  0.00     0.118 C 
HETATM   24  C   UNL     1      -1.685  17.434  19.581  0.00  0.00     0.026 C 
ENDBRANCH  20  23
ENDBRANCH   1  19
BRANCH   4  25
HETATM   25  C   UNL     1      -3.015  11.810  24.283  0.00  0.00     0.036 A 
HETATM   26  C   UNL     1      -1.898  10.956  24.289  0.00  0.00     0.044 A 
HETATM   27  C   UNL     1      -1.481  10.306  25.454  0.00  0.00     0.068 A 
HETATM   28 CL   UNL     1      -0.172   9.186  25.380  0.00  0.00    -0.081 Cl
HETATM   29  C   UNL     1      -2.118  10.567  26.662  0.00  0.00     0.090 A 
HETATM   30  C   UNL     1      -3.206  11.428  26.705  0.00  0.00     0.075 A 
HETATM   31  C   UNL     1      -3.664  12.017  25.521  0.00  0.00     0.081 A 
BRANCH  29  32
HETATM   32  O   UNL     1      -1.704  10.012  27.840  0.00  0.00    -0.359 OA
HETATM   33  H   UNL     1      -0.841   9.585  27.673  0.00  0.00     0.217 HD
ENDBRANCH  29  32
BRANCH  31  34
HETATM   34  O   UNL     1      -4.775  12.817  25.587  0.00  0.00    -0.360 OA
HETATM   35  H   UNL     1      -4.882  13.157  26.490  0.00  0.00     0.217 HD
ENDBRANCH  31  34
ENDBRANCH   4  25
TORSDOF 8
ENDMDL
MODEL 6
REMARK VINA RESULT:    -7.657      3.608      6.058
REMARK INTER + INTRA:         -12.500
REMARK INTER:                 -10.807
REMARK INTRA:                  -1.693
REMARK UNBOUND:                -1.709
REMARK  8 active torsions:
REMARK  status: ('A' for Active; 'I' for Inactive)
REMARK    1  A    between atoms: C_2  and  N_3 
REMARK       I    between atoms: N_3  and  C_4 
REMARK    2  A    between atoms: C_4  and  C_6 
REMARK    3  A    between atoms: C_9  and  C_24 
REMARK    4  A    between atoms: C_10  and  C_11 
REMARK    5  A    between atoms: C_14  and  C_15 
REMARK    6  A    between atoms: C_15  and  N_16 
REMARK    7  A    between atoms: C_28  and  O_29 
REMARK    8  A    between atoms: C_31  and  O_32 
ROOT
HETATM    1  C   UNL     1      -1.360  14.208  25.184  0.00  0.00     0.165 A 
HETATM    2  N   UNL     1      -1.403  15.544  25.084  0.00  0.00    -0.121 NA
HETATM    3  O   UNL     1      -0.319  15.904  24.335  0.00  0.00    -0.211 OA
HETATM    4  C   UNL     1       0.383  14.805  23.927  0.00  0.00     0.128 A 
HETATM    5  C   UNL     1      -0.206  13.672  24.499  0.00  0.00     0.048 A 
ENDROOT
BRANCH   5   6
HETATM    6  C   UNL     1       0.117  12.282  24.157  0.00  0.00    -0.021 C 
HETATM    7  C   UNL     1      -0.737  11.488  23.377  0.00  0.00     0.013 C 
HETATM    8  C   UNL     1      -0.655  10.090  23.439  0.00  0.00     0.010 C 
HETATM    9  C   UNL     1       0.352   9.471  24.188  0.00  0.00    -0.030 C 
HETATM   10  C   UNL     1       1.345  10.268  24.756  0.00  0.00     0.010 C 
HETATM   11  C   UNL     1       1.214  11.654  24.759  0.00  0.00     0.013 C 
BRANCH   9  12
HETATM   12  C   UNL     1       0.320   7.998  24.532  0.00  0.00     0.311 C 
BRANCH  12  13
HETATM   13  N   UNL     1       1.011   7.626  25.770  0.00  0.00     0.096 N 
HETATM   14  C   UNL     1       0.086   7.123  26.810  0.00  0.00     0.299 C 
HETATM   15  C   UNL     1      -0.501   5.732  26.515  0.00  0.00     0.198 C 
HETATM   16  O   UNL     1       0.533   4.766  26.291  0.00  0.00    -0.388 OA
HETATM   17  C   UNL     1       1.395   5.175  25.225  0.00  0.00     0.198 C 
HETATM   18  C   UNL     1       2.008   6.563  25.493  0.00  0.00     0.299 C 
ENDBRANCH  12  13
ENDBRANCH   9  12
ENDBRANCH   5   6
BRANCH   1  19
HETATM   19  C   UNL     1      -2.480  13.511  25.829  0.00  0.00     0.273 C 
HETATM   20  N   UNL     1      -3.356  12.923  24.930  0.00  0.00    -0.356 N 
HETATM   21  H   UNL     1      -3.168  13.071  23.944  0.00  0.00     0.162 HD
HETATM   22  O   UNL     1      -2.599  13.393  27.047  0.00  0.00    -0.266 OA
BRANCH  20  23
HETATM   23  C   UNL     1      -4.403  12.014  25.332  0.00  0.00     0.118 C 
HETATM   24  C   UNL     1      -4.638  10.922  24.302  0.00  0.00     0.026 C 
ENDBRANCH  20  23
ENDBRANCH   1  19
BRANCH   4  25
HETATM   25  C   UNL     1       1.430  15.138  22.940  0.00  0.00     0.036 A 
HETATM   26  C   UNL     1       2.775  14.796  23.167  0.00  0.00     0.044 A 
HETATM   27  C   UNL     1       3.767  15.067  22.222  0.00  0.00     0.068 A 
HETATM   28 CL   UNL     1       5.415  14.723  22.598  0.00  0.00    -0.081 Cl
HETATM   29  C   UNL     1       3.424  15.605  20.987  0.00  0.00     0.090 A 
HETATM   30  C   UNL     1       2.103  15.930  20.710  0.00  0.00     0.075 A 
HETATM   31  C   UNL     1       1.125  15.725  21.690  0.00  0.00     0.081 A 
BRANCH  29  32
HETATM   32  O   UNL     1       4.348  15.823  20.003  0.00  0.00    -0.359 OA
HETATM   33  H   UNL     1       4.020  15.385  19.195  0.00  0.00     0.217 HD
ENDBRANCH  29  32
BRANCH  31  34
HETATM   34  O   UNL     1      -0.160  16.109  21.409  0.00  0.00    -0.360 OA
HETATM   35  H   UNL     1      -0.371  16.927  21.887  0.00  0.00     0.217 HD
ENDBRANCH  31  34
ENDBRANCH   4  25
TORSDOF 8
ENDMDL
MODEL 7
REMARK VINA RESULT:    -7.653      2.877      8.028
REMARK INTER + INTRA:         -12.494
REMARK INTER:                 -10.970
REMARK INTRA:                  -1.524
REMARK UNBOUND:                -1.709
REMARK  8 active torsions:
REMARK  status: ('A' for Active; 'I' for Inactive)
REMARK    1  A    between atoms: C_2  and  N_3 
REMARK       I    between atoms: N_3  and  C_4 
REMARK    2  A    between atoms: C_4  and  C_6 
REMARK    3  A    between atoms: C_9  and  C_24 
REMARK    4  A    between atoms: C_10  and  C_11 
REMARK    5  A    between atoms: C_14  and  C_15 
REMARK    6  A    between atoms: C_15  and  N_16 
REMARK    7  A    between atoms: C_28  and  O_29 
REMARK    8  A    between atoms: C_31  and  O_32 
ROOT
HETATM    1  C   UNL     1      -3.589  12.340  24.331  0.00  0.00     0.165 A 
HETATM    2  N   UNL     1      -4.381  11.931  25.332  0.00  0.00    -0.121 NA
HETATM    3  O   UNL     1      -3.699  10.935  25.972  0.00  0.00    -0.211 OA
HETATM    4  C   UNL     1      -2.467  10.743  25.411  0.00  0.00     0.128 A 
HETATM    5  C   UNL     1      -2.359  11.582  24.298  0.00  0.00     0.048 A 
ENDROOT
BRANCH   5   6
HETATM    6  C   UNL     1      -1.128  11.830  23.537  0.00  0.00    -0.021 C 
HETATM    7  C   UNL     1       0.032  12.341  24.139  0.00  0.00     0.013 C 
HETATM    8  C   UNL     1       1.007  12.983  23.363  0.00  0.00     0.010 C 
HETATM    9  C   UNL     1       0.893  13.019  21.969  0.00  0.00    -0.030 C 
HETATM   10  C   UNL     1      -0.133  12.293  21.365  0.00  0.00     0.010 C 
HETATM   11  C   UNL     1      -1.141  11.727  22.140  0.00  0.00     0.013 C 
BRANCH   9  12
HETATM   12  C   UNL     1       1.737  13.933  21.109  0.00  0.00     0.311 C 
BRANCH  12  13
HETATM   13  N   UNL     1       2.524  14.934  21.836  0.00  0.00     0.096 N 
HETATM   14  C   UNL     1       3.766  15.309  21.125  0.00  0.00     0.299 C 
HETATM   15  C   UNL     1       3.540  16.154  19.860  0.00  0.00     0.198 C 
HETATM   16  O   UNL     1       2.784  17.335  20.149  0.00  0.00    -0.388 OA
HETATM   17  C   UNL     1       1.530  17.005  20.753  0.00  0.00     0.198 C 
HETATM   18  C   UNL     1       1.720  16.165  22.031  0.00  0.00     0.299 C 
ENDBRANCH  12  13
ENDBRANCH   9  12
ENDBRANCH   5   6
BRANCH   1  19
HETATM   19  C   UNL     1      -4.000  13.504  23.536  0.00  0.00     0.273 C 
HETATM   20  N   UNL     1      -4.491  13.171  22.283  0.00  0.00    -0.356 N 
HETATM   21  H   UNL     1      -4.471  12.189  22.029  0.00  0.00     0.162 HD
HETATM   22  O   UNL     1      -3.983  14.658  23.958  0.00  0.00    -0.266 OA
BRANCH  20  23
HETATM   23  C   UNL     1      -5.145  14.123  21.417  0.00  0.00     0.118 C 
HETATM   24  C   UNL     1      -4.448  14.244  20.071  0.00  0.00     0.026 C 
ENDBRANCH  20  23
ENDBRANCH   1  19
BRANCH   4  25
HETATM   25  C   UNL     1      -1.620   9.832  26.207  0.00  0.00     0.036 A 
HETATM   26  C   UNL     1      -0.776   8.897  25.583  0.00  0.00     0.044 A 
HETATM   27  C   UNL     1       0.062   8.060  26.324  0.00  0.00     0.068 A 
HETATM   28 CL   UNL     1       0.996   6.859  25.513  0.00  0.00    -0.081 Cl
HETATM   29  C   UNL     1       0.143   8.202  27.705  0.00  0.00     0.090 A 
HETATM   30  C   UNL     1      -0.651   9.134  28.358  0.00  0.00     0.075 A 
HETATM   31  C   UNL     1      -1.543   9.918  27.616  0.00  0.00     0.081 A 
BRANCH  29  32
HETATM   32  O   UNL     1       0.999   7.457  28.466  0.00  0.00    -0.359 OA
HETATM   33  H   UNL     1       1.223   7.986  29.255  0.00  0.00     0.217 HD
ENDBRANCH  29  32
BRANCH  31  34
HETATM   34  O   UNL     1      -2.355  10.788  28.296  0.00  0.00    -0.360 OA
HETATM   35  H   UNL     1      -1.871  11.172  29.045  0.00  0.00     0.217 HD
ENDBRANCH  31  34
ENDBRANCH   4  25
TORSDOF 8
ENDMDL
MODEL 8
REMARK VINA RESULT:    -7.575      4.088      8.777
REMARK INTER + INTRA:         -12.384
REMARK INTER:                 -10.769
REMARK INTRA:                  -1.615
REMARK UNBOUND:                -1.709
REMARK  8 active torsions:
REMARK  status: ('A' for Active; 'I' for Inactive)
REMARK    1  A    between atoms: C_2  and  N_3 
REMARK       I    between atoms: N_3  and  C_4 
REMARK    2  A    between atoms: C_4  and  C_6 
REMARK    3  A    between atoms: C_9  and  C_24 
REMARK    4  A    between atoms: C_10  and  C_11 
REMARK    5  A    between atoms: C_14  and  C_15 
REMARK    6  A    between atoms: C_15  and  N_16 
REMARK    7  A    between atoms: C_28  and  O_29 
REMARK    8  A    between atoms: C_31  and  O_32 
ROOT
HETATM    1  C   UNL     1      -1.357  10.133  26.615  0.00  0.00     0.165 A 
HETATM    2  N   UNL     1      -0.765   9.426  27.588  0.00  0.00    -0.121 NA
HETATM    3  O   UNL     1      -0.023   8.466  26.961  0.00  0.00    -0.211 OA
HETATM    4  C   UNL     1      -0.107   8.587  25.602  0.00  0.00     0.128 A 
HETATM    5  C   UNL     1      -1.011   9.614  25.311  0.00  0.00     0.048 A 
ENDROOT
BRANCH   5   6
HETATM    6  C   UNL     1      -1.236  10.197  23.983  0.00  0.00    -0.021 C 
HETATM    7  C   UNL     1      -0.183  10.694  23.198  0.00  0.00     0.013 C 
HETATM    8  C   UNL     1      -0.439  11.627  22.183  0.00  0.00     0.010 C 
HETATM    9  C   UNL     1      -1.753  11.985  21.863  0.00  0.00    -0.030 C 
HETATM   10  C   UNL     1      -2.800  11.299  22.478  0.00  0.00     0.010 C 
HETATM   11  C   UNL     1      -2.543  10.435  23.539  0.00  0.00     0.013 C 
BRANCH   9  12
HETATM   12  C   UNL     1      -2.081  13.182  20.999  0.00  0.00     0.311 C 
BRANCH  12  13
HETATM   13  N   UNL     1      -2.963  14.180  21.612  0.00  0.00     0.096 N 
HETATM   14  C   UNL     1      -2.347  15.524  21.675  0.00  0.00     0.299 C 
HETATM   15  C   UNL     1      -2.217  16.224  20.312  0.00  0.00     0.198 C 
HETATM   16  O   UNL     1      -3.483  16.313  19.648  0.00  0.00    -0.388 OA
HETATM   17  C   UNL     1      -4.067  15.017  19.483  0.00  0.00     0.198 C 
HETATM   18  C   UNL     1      -4.221  14.290  20.833  0.00  0.00     0.299 C 
ENDBRANCH  12  13
ENDBRANCH   9  12
ENDBRANCH   5   6
BRANCH   1  19
HETATM   19  C   UNL     1      -2.125  11.330  26.979  0.00  0.00     0.273 C 
HETATM   20  N   UNL     1      -1.637  12.495  26.408  0.00  0.00    -0.356 N 
HETATM   21  H   UNL     1      -0.792  12.413  25.852  0.00  0.00     0.162 HD
HETATM   22  O   UNL     1      -3.146  11.303  27.663  0.00  0.00    -0.266 OA
BRANCH  20  23
HETATM   23  C   UNL     1      -2.348  13.750  26.452  0.00  0.00     0.118 C 
HETATM   24  C   UNL     1      -2.903  14.140  25.091  0.00  0.00     0.026 C 
ENDBRANCH  20  23
ENDBRANCH   1  19
BRANCH   4  25
HETATM   25  C   UNL     1       0.849   7.710  24.896  0.00  0.00     0.036 A 
HETATM   26  C   UNL     1       2.224   8.002  24.881  0.00  0.00     0.044 A 
HETATM   27  C   UNL     1       3.143   7.156  24.254  0.00  0.00     0.068 A 
HETATM   28 CL   UNL     1       4.803   7.618  24.173  0.00  0.00    -0.081 Cl
HETATM   29  C   UNL     1       2.719   5.951  23.706  0.00  0.00     0.090 A 
HETATM   30  C   UNL     1       1.374   5.611  23.727  0.00  0.00     0.075 A 
HETATM   31  C   UNL     1       0.449   6.497  24.291  0.00  0.00     0.081 A 
BRANCH  29  32
HETATM   32  O   UNL     1       3.589   5.058  23.145  0.00  0.00    -0.359 OA
HETATM   33  H   UNL     1       3.595   5.224  22.183  0.00  0.00     0.217 HD
ENDBRANCH  29  32
BRANCH  31  34
HETATM   34  O   UNL     1      -0.878   6.159  24.244  0.00  0.00    -0.360 OA
HETATM   35  H   UNL     1      -0.980   5.205  24.393  0.00  0.00     0.217 HD
ENDBRANCH  31  34
ENDBRANCH   4  25
TORSDOF 8
ENDMDL
MODEL 9
REMARK VINA RESULT:    -7.572      3.451      5.972
REMARK INTER + INTRA:         -12.380
REMARK INTER:                 -10.670
REMARK INTRA:                  -1.709
REMARK UNBOUND:                -1.709
REMARK  8 active torsions:
REMARK  status: ('A' for Active; 'I' for Inactive)
REMARK    1  A    between atoms: C_2  and  N_3 
REMARK       I    between atoms: N_3  and  C_4 
REMARK    2  A    between atoms: C_4  and  C_6 
REMARK    3  A    between atoms: C_9  and  C_24 
REMARK    4  A    between atoms: C_10  and  C_11 
REMARK    5  A    between atoms: C_14  and  C_15 
REMARK    6  A    between atoms: C_15  and  N_16 
REMARK    7  A    between atoms: C_28  and  O_29 
REMARK    8  A    between atoms: C_31  and  O_32 
ROOT
HETATM    1  C   UNL     1      -3.244  12.905  24.842  0.00  0.00     0.165 A 
HETATM    2  N   UNL     1      -4.074  13.950  24.717  0.00  0.00    -0.121 NA
HETATM    3  O   UNL     1      -3.390  14.895  24.006  0.00  0.00    -0.211 OA
HETATM    4  C   UNL     1      -2.153  14.438  23.644  0.00  0.00     0.128 A 
HETATM    5  C   UNL     1      -1.972  13.173  24.211  0.00  0.00     0.048 A 
ENDROOT
BRANCH   5   6
HETATM    6  C   UNL     1      -0.868  12.255  23.906  0.00  0.00    -0.021 C 
HETATM    7  C   UNL     1      -0.959  11.289  22.892  0.00  0.00     0.013 C 
HETATM    8  C   UNL     1      -0.123  10.164  22.912  0.00  0.00     0.010 C 
HETATM    9  C   UNL     1       0.887  10.046  23.873  0.00  0.00    -0.030 C 
HETATM   10  C   UNL     1       1.130  11.127  24.720  0.00  0.00     0.010 C 
HETATM   11  C   UNL     1       0.249  12.205  24.750  0.00  0.00     0.013 C 
BRANCH   9  12
HETATM   12  C   UNL     1       1.616   8.747  24.131  0.00  0.00     0.311 C 
BRANCH  12  13
HETATM   13  N   UNL     1       1.426   8.171  25.466  0.00  0.00     0.096 N 
HETATM   14  C   UNL     1       0.062   7.633  25.666  0.00  0.00     0.299 C 
HETATM   15  C   UNL     1      -0.230   6.344  24.880  0.00  0.00     0.198 C 
HETATM   16  O   UNL     1       0.731   5.324  25.175  0.00  0.00    -0.388 OA
HETATM   17  C   UNL     1       2.060   5.777  24.902  0.00  0.00     0.198 C 
HETATM   18  C   UNL     1       2.390   7.064  25.681  0.00  0.00     0.299 C 
ENDBRANCH  12  13
ENDBRANCH   9  12
ENDBRANCH   5   6
BRANCH   1  19
HETATM   19  C   UNL     1      -3.751  11.670  25.453  0.00  0.00     0.273 C 
HETATM   20  N   UNL     1      -5.108  11.472  25.254  0.00  0.00    -0.356 N 
HETATM   21  H   UNL     1      -5.611  12.204  24.763  0.00  0.00     0.162 HD
HETATM   22  O   UNL     1      -3.036  10.849  26.025  0.00  0.00    -0.266 OA
BRANCH  20  23
HETATM   23  C   UNL     1      -5.778  10.235  25.578  0.00  0.00     0.118 C 
HETATM   24  C   UNL     1      -6.610   9.714  24.417  0.00  0.00     0.026 C 
ENDBRANCH  20  23
ENDBRANCH   1  19
BRANCH   4  25
HETATM   25  C   UNL     1      -1.474  15.342  22.694  0.00  0.00     0.036 A 
HETATM   26  C   UNL     1      -0.155  15.774  22.923  0.00  0.00     0.044 A 
HETATM   27  C   UNL     1       0.514  16.593  22.010  0.00  0.00     0.068 A 
HETATM   28 CL   UNL     1       2.089  17.181  22.392  0.00  0.00    -0.081 Cl
HETATM   29  C   UNL     1      -0.089  16.926  20.802  0.00  0.00     0.090 A 
HETATM   30  C   UNL     1      -1.378  16.495  20.524  0.00  0.00     0.075 A 
HETATM   31  C   UNL     1      -2.070  15.736  21.475  0.00  0.00     0.081 A 
BRANCH  29  32
HETATM   32  O   UNL     1       0.551  17.666  19.847  0.00  0.00    -0.359 OA
HETATM   33  H   UNL     1       0.160  18.561  19.862  0.00  0.00     0.217 HD
ENDBRANCH  29  32
BRANCH  31  34
HETATM   34  O   UNL     1      -3.362  15.375  21.195  0.00  0.00    -0.360 OA
HETATM   35  H   UNL     1      -3.869  16.156  20.919  0.00  0.00     0.217 HD
ENDBRANCH  31  34
ENDBRANCH   4  25
TORSDOF 8
ENDMDL
