MODEL 1
REMARK VINA RESULT:    -7.926      0.000      0.000
REMARK INTER + INTRA:         -13.766
REMARK INTER:                 -11.048
REMARK INTRA:                  -2.718
REMARK UNBOUND:                -3.061
REMARK  7 active torsions:
REMARK  status: ('A' for Active; 'I' for Inactive)
REMARK    1  A    between atoms: O_1  and  C_2 
REMARK    2  A    between atoms: C_4  and  O_5 
REMARK    3  A    between atoms: C_6  and  C_17 
REMARK    4  A    between atoms: C_8  and  C_9 
REMARK    5  A    between atoms: C_9  and  C_10 
REMARK    6  A    between atoms: C_10  and  C_11 
REMARK    7  A    between atoms: N_23  and  C_24 
ROOT
HETATM    1  C   UNL     1       8.481  14.568  22.633  0.00  0.00     0.074 C 
HETATM    2  C   UNL     1       9.215  13.554  22.023  0.00  0.00     0.074 C 
HETATM    3  C   UNL     1       8.558  12.576  21.271  0.00  0.00     0.082 C 
HETATM    4  C   UNL     1       7.157  12.553  21.184  0.00  0.00     0.046 C 
HETATM    5  C   UNL     1       6.446  13.515  21.922  0.00  0.00     0.028 C 
HETATM    6  C   UNL     1       7.088  14.601  22.550  0.00  0.00    -0.024 C 
ENDROOT
BRANCH   4   7
HETATM    7  C   UNL     1       6.459  11.542  20.321  0.00  0.00     0.172 A 
HETATM    8  N   UNL     1       6.791  11.353  19.070  0.00  0.00    -0.151 NA
HETATM    9  N   UNL     1       5.986  10.349  18.632  0.00  0.00    -0.226 N 
HETATM   10  H   UNL     1       5.949  10.059  17.664  0.00  0.00     0.194 HD
HETATM   11  C   UNL     1       5.140   9.919  19.641  0.00  0.00     0.349 A 
HETATM   12  O   UNL     1       4.272   9.070  19.515  0.00  0.00    -0.245 OA
HETATM   13  N   UNL     1       5.464  10.687  20.743  0.00  0.00    -0.241 N 
BRANCH  13  14
HETATM   14  C   UNL     1       4.756  10.590  21.954  0.00  0.00     0.084 A 
HETATM   15  C   UNL     1       5.122   9.591  22.869  0.00  0.00     0.033 A 
HETATM   16  C   UNL     1       4.539   9.542  24.138  0.00  0.00     0.002 A 
HETATM   17  C   UNL     1       3.555  10.466  24.489  0.00  0.00     0.003 A 
HETATM   18  C   UNL     1       3.139  11.421  23.564  0.00  0.00     0.044 A 
HETATM   19  C   UNL     1       3.737  11.473  22.304  0.00  0.00     0.143 A 
HETATM   20  F   UNL     1       3.306  12.398  21.432  0.00  0.00    -0.204 F 
ENDBRANCH  13  14
ENDBRANCH   4   7
BRANCH   3  21
HETATM   21  O   UNL     1       9.326  11.655  20.612  0.00  0.00    -0.360 OA
HETATM   22  H   UNL     1       9.612  12.000  19.752  0.00  0.00     0.217 HD
ENDBRANCH   3  21
BRANCH   6  23
HETATM   23  C   UNL     1       6.223  15.746  23.059  0.00  0.00     0.046 C 
BRANCH  23  24
HETATM   24  C   UNL     1       5.539  15.494  24.414  0.00  0.00     0.043 C 
BRANCH  24  25
HETATM   25  C   UNL     1       4.056  15.223  24.313  0.00  0.00    -0.058 A 
HETATM   26  C   UNL     1       3.408  15.304  23.073  0.00  0.00     0.007 A 
HETATM   27  C   UNL     1       2.053  14.986  22.959  0.00  0.00     0.001 A 
HETATM   28  C   UNL     1       1.333  14.593  24.086  0.00  0.00     0.000 A 
HETATM   29  C   UNL     1       1.965  14.524  25.327  0.00  0.00     0.001 A 
HETATM   30  C   UNL     1       3.320  14.841  25.442  0.00  0.00     0.007 A 
ENDBRANCH  24  25
ENDBRANCH  23  24
ENDBRANCH   6  23
BRANCH   1  31
HETATM   31  O   UNL     1       9.144  15.540  23.324  0.00  0.00    -0.360 OA
HETATM   32  H   UNL     1       9.203  16.343  22.782  0.00  0.00     0.217 HD
ENDBRANCH   1  31
TORSDOF 7
ENDMDL
MODEL 2
REMARK VINA RESULT:    -7.904      2.346      4.958
REMARK INTER + INTRA:         -13.737
REMARK INTER:                 -10.849
REMARK INTRA:                  -2.888
REMARK UNBOUND:                -3.061
REMARK  7 active torsions:
REMARK  status: ('A' for Active; 'I' for Inactive)
REMARK    1  A    between atoms: O_1  and  C_2 
REMARK    2  A    between atoms: C_4  and  O_5 
REMARK    3  A    between atoms: C_6  and  C_17 
REMARK    4  A    between atoms: C_8  and  C_9 
REMARK    5  A    between atoms: C_9  and  C_10 
REMARK    6  A    between atoms: C_10  and  C_11 
REMARK    7  A    between atoms: N_23  and  C_24 
ROOT
HETATM    1  C   UNL     1       3.554  14.619  24.423  0.00  0.00     0.074 C 
HETATM    2  C   UNL     1       2.647  13.702  23.897  0.00  0.00     0.074 C 
HETATM    3  C   UNL     1       2.990  12.951  22.770  0.00  0.00     0.082 C 
HETATM    4  C   UNL     1       4.211  13.161  22.107  0.00  0.00     0.046 C 
HETATM    5  C   UNL     1       5.041  14.188  22.589  0.00  0.00     0.028 C 
HETATM    6  C   UNL     1       4.790  14.841  23.813  0.00  0.00    -0.024 C 
ENDROOT
BRANCH   4   7
HETATM    7  C   UNL     1       4.605  12.307  20.938  0.00  0.00     0.172 A 
HETATM    8  N   UNL     1       3.781  12.060  19.951  0.00  0.00    -0.151 NA
HETATM    9  N   UNL     1       4.488  11.303  19.072  0.00  0.00    -0.226 N 
HETATM   10  H   UNL     1       4.070  10.875  18.258  0.00  0.00     0.194 HD
HETATM   11  C   UNL     1       5.774  11.080  19.537  0.00  0.00     0.349 A 
HETATM   12  O   UNL     1       6.610  10.385  18.982  0.00  0.00    -0.245 OA
HETATM   13  N   UNL     1       5.850  11.749  20.743  0.00  0.00    -0.241 N 
BRANCH  13  14
HETATM   14  C   UNL     1       6.993  11.689  21.559  0.00  0.00     0.084 A 
HETATM   15  C   UNL     1       8.172  12.306  21.113  0.00  0.00     0.033 A 
HETATM   16  C   UNL     1       9.290  12.389  21.946  0.00  0.00     0.002 A 
HETATM   17  C   UNL     1       9.254  11.819  23.219  0.00  0.00     0.003 A 
HETATM   18  C   UNL     1       8.111  11.147  23.646  0.00  0.00     0.044 A 
HETATM   19  C   UNL     1       6.993  11.082  22.813  0.00  0.00     0.143 A 
HETATM   20  F   UNL     1       5.911  10.419  23.250  0.00  0.00    -0.204 F 
ENDBRANCH  13  14
ENDBRANCH   4   7
BRANCH   3  21
HETATM   21  O   UNL     1       2.108  11.995  22.346  0.00  0.00    -0.360 OA
HETATM   22  H   UNL     1       1.314  11.991  22.902  0.00  0.00     0.217 HD
ENDBRANCH   3  21
BRANCH   6  23
HETATM   23  C   UNL     1       5.894  15.712  24.398  0.00  0.00     0.046 C 
BRANCH  23  24
HETATM   24  C   UNL     1       7.197  14.970  24.740  0.00  0.00     0.043 C 
BRANCH  24  25
HETATM   25  C   UNL     1       8.363  15.335  23.853  0.00  0.00    -0.058 A 
HETATM   26  C   UNL     1       8.140  15.785  22.545  0.00  0.00     0.007 A 
HETATM   27  C   UNL     1       9.207  16.191  21.742  0.00  0.00     0.001 A 
HETATM   28  C   UNL     1      10.509  16.142  22.238  0.00  0.00     0.000 A 
HETATM   29  C   UNL     1      10.744  15.682  23.533  0.00  0.00     0.001 A 
HETATM   30  C   UNL     1       9.677  15.276  24.336  0.00  0.00     0.007 A 
ENDBRANCH  24  25
ENDBRANCH  23  24
ENDBRANCH   6  23
BRANCH   1  31
HETATM   31  O   UNL     1       3.218  15.309  25.550  0.00  0.00    -0.360 OA
HETATM   32  H   UNL     1       3.391  16.255  25.418  0.00  0.00     0.217 HD
ENDBRANCH   1  31
TORSDOF 7
ENDMDL
MODEL 3
REMARK VINA RESULT:    -7.850      2.443      4.987
REMARK INTER + INTRA:         -13.665
REMARK INTER:                 -10.896
REMARK INTRA:                  -2.769
REMARK UNBOUND:                -3.061
REMARK  7 active torsions:
REMARK  status: ('A' for Active; 'I' for Inactive)
REMARK    1  A    between atoms: O_1  and  C_2 
REMARK    2  A    between atoms: C_4  and  O_5 
REMARK    3  A    between atoms: C_6  and  C_17 
REMARK    4  A    between atoms: C_8  and  C_9 
REMARK    5  A    between atoms: C_9  and  C_10 
REMARK    6  A    between atoms: C_10  and  C_11 
REMARK    7  A    between atoms: N_23  and  C_24 
ROOT
HETATM    1  C   UNL     1       3.562  14.607  24.420  0.00  0.00     0.074 C 
HETATM    2  C   UNL     1       2.675  13.685  23.868  0.00  0.00     0.074 C 
HETATM    3  C   UNL     1       3.058  12.932  22.754  0.00  0.00     0.082 C 
HETATM    4  C   UNL     1       4.298  13.145  22.130  0.00  0.00     0.046 C 
HETATM    5  C   UNL     1       5.109  14.176  22.636  0.00  0.00     0.028 C 
HETATM    6  C   UNL     1       4.816  14.832  23.849  0.00  0.00    -0.024 C 
ENDROOT
BRANCH   4   7
HETATM    7  C   UNL     1       4.733  12.289  20.977  0.00  0.00     0.172 A 
HETATM    8  N   UNL     1       3.921  11.984  19.997  0.00  0.00    -0.151 NA
HETATM    9  N   UNL     1       4.664  11.245  19.131  0.00  0.00    -0.226 N 
HETATM   10  H   UNL     1       4.266  10.782  18.325  0.00  0.00     0.194 HD
HETATM   11  C   UNL     1       5.959  11.093  19.598  0.00  0.00     0.349 A 
HETATM   12  O   UNL     1       6.828  10.429  19.055  0.00  0.00    -0.245 OA
HETATM   13  N   UNL     1       6.003  11.788  20.791  0.00  0.00    -0.241 N 
BRANCH  13  14
HETATM   14  C   UNL     1       7.149  11.799  21.607  0.00  0.00     0.084 A 
HETATM   15  C   UNL     1       7.129  11.065  22.803  0.00  0.00     0.033 A 
HETATM   16  C   UNL     1       8.286  10.937  23.576  0.00  0.00     0.002 A 
HETATM   17  C   UNL     1       9.462  11.575  23.183  0.00  0.00     0.003 A 
HETATM   18  C   UNL     1       9.473  12.359  22.031  0.00  0.00     0.044 A 
HETATM   19  C   UNL     1       8.317  12.470  21.256  0.00  0.00     0.143 A 
HETATM   20  F   UNL     1       8.358  13.241  20.158  0.00  0.00    -0.204 F 
ENDBRANCH  13  14
ENDBRANCH   4   7
BRANCH   3  21
HETATM   21  O   UNL     1       2.193  11.972  22.305  0.00  0.00    -0.360 OA
HETATM   22  H   UNL     1       1.585  12.339  21.645  0.00  0.00     0.217 HD
ENDBRANCH   3  21
BRANCH   6  23
HETATM   23  C   UNL     1       5.898  15.708  24.467  0.00  0.00     0.046 C 
BRANCH  23  24
HETATM   24  C   UNL     1       7.223  14.989  24.773  0.00  0.00     0.043 C 
BRANCH  24  25
HETATM   25  C   UNL     1       8.348  15.345  23.830  0.00  0.00    -0.058 A 
HETATM   26  C   UNL     1       8.063  15.794  22.533  0.00  0.00     0.007 A 
HETATM   27  C   UNL     1       9.093  16.191  21.678  0.00  0.00     0.001 A 
HETATM   28  C   UNL     1      10.417  16.135  22.110  0.00  0.00     0.000 A 
HETATM   29  C   UNL     1      10.712  15.676  23.393  0.00  0.00     0.001 A 
HETATM   30  C   UNL     1       9.682  15.279  24.249  0.00  0.00     0.007 A 
ENDBRANCH  24  25
ENDBRANCH  23  24
ENDBRANCH   6  23
BRANCH   1  31
HETATM   31  O   UNL     1       3.188  15.298  25.534  0.00  0.00    -0.360 OA
HETATM   32  H   UNL     1       2.408  15.841  25.335  0.00  0.00     0.217 HD
ENDBRANCH   1  31
TORSDOF 7
ENDMDL
MODEL 4
REMARK VINA RESULT:    -7.818      2.787      5.046
REMARK INTER + INTRA:         -13.620
REMARK INTER:                 -10.929
REMARK INTRA:                  -2.691
REMARK UNBOUND:                -3.061
REMARK  7 active torsions:
REMARK  status: ('A' for Active; 'I' for Inactive)
REMARK    1  A    between atoms: O_1  and  C_2 
REMARK    2  A    between atoms: C_4  and  O_5 
REMARK    3  A    between atoms: C_6  and  C_17 
REMARK    4  A    between atoms: C_8  and  C_9 
REMARK    5  A    between atoms: C_9  and  C_10 
REMARK    6  A    between atoms: C_10  and  C_11 
REMARK    7  A    between atoms: N_23  and  C_24 
ROOT
HETATM    1  C   UNL     1       7.568  11.812  19.946  0.00  0.00     0.074 C 
HETATM    2  C   UNL     1       8.797  12.461  20.045  0.00  0.00     0.074 C 
HETATM    3  C   UNL     1       9.173  13.059  21.250  0.00  0.00     0.082 C 
HETATM    4  C   UNL     1       8.296  13.085  22.348  0.00  0.00     0.046 C 
HETATM    5  C   UNL     1       7.015  12.537  22.166  0.00  0.00     0.028 C 
HETATM    6  C   UNL     1       6.676  11.789  21.020  0.00  0.00    -0.024 C 
ENDROOT
BRANCH   4   7
HETATM    7  C   UNL     1       8.729  13.669  23.660  0.00  0.00     0.172 A 
HETATM    8  N   UNL     1       9.953  13.539  24.107  0.00  0.00    -0.151 NA
HETATM    9  N   UNL     1       9.982  14.221  25.281  0.00  0.00    -0.226 N 
HETATM   10  H   UNL     1      10.779  14.206  25.903  0.00  0.00     0.194 HD
HETATM   11  C   UNL     1       8.745  14.778  25.560  0.00  0.00     0.349 A 
HETATM   12  O   UNL     1       8.464  15.394  26.576  0.00  0.00    -0.245 OA
HETATM   13  N   UNL     1       7.938  14.430  24.494  0.00  0.00    -0.241 N 
BRANCH  13  14
HETATM   14  C   UNL     1       6.570  14.754  24.456  0.00  0.00     0.084 A 
HETATM   15  C   UNL     1       6.174  15.919  23.782  0.00  0.00     0.033 A 
HETATM   16  C   UNL     1       4.819  16.209  23.603  0.00  0.00     0.002 A 
HETATM   17  C   UNL     1       3.847  15.359  24.132  0.00  0.00     0.003 A 
HETATM   18  C   UNL     1       4.232  14.235  24.858  0.00  0.00     0.044 A 
HETATM   19  C   UNL     1       5.587  13.943  25.020  0.00  0.00     0.143 A 
HETATM   20  F   UNL     1       5.925  12.858  25.734  0.00  0.00    -0.204 F 
ENDBRANCH  13  14
ENDBRANCH   4   7
BRANCH   3  21
HETATM   21  O   UNL     1      10.427  13.601  21.330  0.00  0.00    -0.360 OA
HETATM   22  H   UNL     1      10.649  13.819  22.248  0.00  0.00     0.217 HD
ENDBRANCH   3  21
BRANCH   6  23
HETATM   23  C   UNL     1       5.384  10.984  21.048  0.00  0.00     0.046 C 
BRANCH  23  24
HETATM   24  C   UNL     1       4.721  10.862  22.430  0.00  0.00     0.043 C 
BRANCH  24  25
HETATM   25  C   UNL     1       3.441  11.651  22.571  0.00  0.00    -0.058 A 
HETATM   26  C   UNL     1       3.130  12.660  21.649  0.00  0.00     0.007 A 
HETATM   27  C   UNL     1       1.917  13.345  21.730  0.00  0.00     0.001 A 
HETATM   28  C   UNL     1       1.008  13.035  22.740  0.00  0.00     0.000 A 
HETATM   29  C   UNL     1       1.314  12.044  23.672  0.00  0.00     0.001 A 
HETATM   30  C   UNL     1       2.527  11.357  23.591  0.00  0.00     0.007 A 
ENDBRANCH  24  25
ENDBRANCH  23  24
ENDBRANCH   6  23
BRANCH   1  31
HETATM   31  O   UNL     1       7.239  11.195  18.776  0.00  0.00    -0.360 OA
HETATM   32  H   UNL     1       6.501  10.581  18.926  0.00  0.00     0.217 HD
ENDBRANCH   1  31
TORSDOF 7
ENDMDL
MODEL 5
REMARK VINA RESULT:    -7.794      2.649      5.140
REMARK INTER + INTRA:         -13.589
REMARK INTER:                 -10.467
REMARK INTRA:                  -3.122
REMARK UNBOUND:                -3.061
REMARK  7 active torsions:
REMARK  status: ('A' for Active; 'I' for Inactive)
REMARK    1  A    between atoms: O_1  and  C_2 
REMARK    2  A    between atoms: C_4  and  O_5 
REMARK    3  A    between atoms: C_6  and  C_17 
REMARK    4  A    between atoms: C_8  and  C_9 
REMARK    5  A    between atoms: C_9  and  C_10 
REMARK    6  A    between atoms: C_10  and  C_11 
REMARK    7  A    between atoms: N_23  and  C_24 
ROOT
HETATM    1  C   UNL     1       4.183  15.014  24.421  0.00  0.00     0.074 C 
HETATM    2  C   UNL     1       3.368  13.914  24.679  0.00  0.00     0.074 C 
HETATM    3  C   UNL     1       3.630  12.692  24.054  0.00  0.00     0.082 C 
HETATM    4  C   UNL     1       4.659  12.572  23.106  0.00  0.00     0.046 C 
HETATM    5  C   UNL     1       5.374  13.737  22.775  0.00  0.00     0.028 C 
HETATM    6  C   UNL     1       5.235  14.933  23.507  0.00  0.00    -0.024 C 
ENDROOT
BRANCH   4   7
HETATM    7  C   UNL     1       4.980  11.243  22.487  0.00  0.00     0.172 A 
HETATM    8  N   UNL     1       4.049  10.459  22.008  0.00  0.00    -0.151 NA
HETATM    9  N   UNL     1       4.708   9.385  21.500  0.00  0.00    -0.226 N 
HETATM   10  H   UNL     1       4.232   8.563  21.155  0.00  0.00     0.194 HD
HETATM   11  C   UNL     1       6.076   9.516  21.678  0.00  0.00     0.349 A 
HETATM   12  O   UNL     1       6.907   8.676  21.373  0.00  0.00    -0.245 OA
HETATM   13  N   UNL     1       6.249  10.734  22.306  0.00  0.00    -0.241 N 
BRANCH  13  14
HETATM   14  C   UNL     1       7.513  11.186  22.724  0.00  0.00     0.084 A 
HETATM   15  C   UNL     1       7.891  10.983  24.060  0.00  0.00     0.033 A 
HETATM   16  C   UNL     1       9.185  11.292  24.487  0.00  0.00     0.002 A 
HETATM   17  C   UNL     1      10.101  11.845  23.592  0.00  0.00     0.003 A 
HETATM   18  C   UNL     1       9.715  12.109  22.280  0.00  0.00     0.044 A 
HETATM   19  C   UNL     1       8.424  11.784  21.857  0.00  0.00     0.143 A 
HETATM   20  F   UNL     1       8.080  12.061  20.590  0.00  0.00    -0.204 F 
ENDBRANCH  13  14
ENDBRANCH   4   7
BRANCH   3  21
HETATM   21  O   UNL     1       2.863  11.616  24.409  0.00  0.00    -0.360 OA
HETATM   22  H   UNL     1       3.214  11.194  25.208  0.00  0.00     0.217 HD
ENDBRANCH   3  21
BRANCH   6  23
HETATM   23  C   UNL     1       6.260  16.035  23.275  0.00  0.00     0.046 C 
BRANCH  23  24
HETATM   24  C   UNL     1       7.581  15.575  22.636  0.00  0.00     0.043 C 
BRANCH  24  25
HETATM   25  C   UNL     1       8.715  15.408  23.620  0.00  0.00    -0.058 A 
HETATM   26  C   UNL     1      10.027  15.722  23.242  0.00  0.00     0.007 A 
HETATM   27  C   UNL     1      11.071  15.639  24.165  0.00  0.00     0.001 A 
HETATM   28  C   UNL     1      10.812  15.232  25.473  0.00  0.00     0.000 A 
HETATM   29  C   UNL     1       9.513  14.903  25.856  0.00  0.00     0.001 A 
HETATM   30  C   UNL     1       8.468  14.987  24.933  0.00  0.00     0.007 A 
ENDBRANCH  24  25
ENDBRANCH  23  24
ENDBRANCH   6  23
BRANCH   1  31
HETATM   31  O   UNL     1       3.940  16.185  25.076  0.00  0.00    -0.360 OA
HETATM   32  H   UNL     1       4.612  16.841  24.832  0.00  0.00     0.217 HD
ENDBRANCH   1  31
TORSDOF 7
ENDMDL
MODEL 6
REMARK VINA RESULT:    -7.662      2.862      5.740
REMARK INTER + INTRA:         -13.410
REMARK INTER:                 -10.362
REMARK INTRA:                  -3.048
REMARK UNBOUND:                -3.061
REMARK  7 active torsions:
REMARK  status: ('A' for Active; 'I' for Inactive)
REMARK    1  A    between atoms: O_1  and  C_2 
REMARK    2  A    between atoms: C_4  and  O_5 
REMARK    3  A    between atoms: C_6  and  C_17 
REMARK    4  A    between atoms: C_8  and  C_9 
REMARK    5  A    between atoms: C_9  and  C_10 
REMARK    6  A    between atoms: C_10  and  C_11 
REMARK    7  A    between atoms: N_23  and  C_24 
ROOT
HETATM    1  C   UNL     1       6.301  11.198  19.625  0.00  0.00     0.074 C 
HETATM    2  C   UNL     1       5.022  11.477  19.149  0.00  0.00     0.074 C 
HETATM    3  C   UNL     1       4.043  11.956  20.024  0.00  0.00     0.082 C 
HETATM    4  C   UNL     1       4.305  12.089  21.398  0.00  0.00     0.046 C 
HETATM    5  C   UNL     1       5.566  11.672  21.860  0.00  0.00     0.028 C 
HETATM    6  C   UNL     1       6.615  11.342  20.978  0.00  0.00    -0.024 C 
ENDROOT
BRANCH   4   7
HETATM    7  C   UNL     1       3.274  12.667  22.322  0.00  0.00     0.172 A 
HETATM    8  N   UNL     1       1.996  12.429  22.170  0.00  0.00    -0.151 NA
HETATM    9  N   UNL     1       1.385  13.072  23.200  0.00  0.00    -0.226 N 
HETATM   10  H   UNL     1       0.381  13.148  23.278  0.00  0.00     0.194 HD
HETATM   11  C   UNL     1       2.314  13.720  23.997  0.00  0.00     0.349 A 
HETATM   12  O   UNL     1       2.045  14.423  24.958  0.00  0.00    -0.245 OA
HETATM   13  N   UNL     1       3.543  13.440  23.432  0.00  0.00    -0.241 N 
BRANCH  13  14
HETATM   14  C   UNL     1       4.736  13.995  23.926  0.00  0.00     0.084 A 
HETATM   15  C   UNL     1       5.152  15.241  23.432  0.00  0.00     0.033 A 
HETATM   16  C   UNL     1       6.255  15.893  23.989  0.00  0.00     0.002 A 
HETATM   17  C   UNL     1       6.978  15.287  25.016  0.00  0.00     0.003 A 
HETATM   18  C   UNL     1       6.611  14.022  25.469  0.00  0.00     0.044 A 
HETATM   19  C   UNL     1       5.499  13.384  24.918  0.00  0.00     0.143 A 
HETATM   20  F   UNL     1       5.178  12.160  25.368  0.00  0.00    -0.204 F 
ENDBRANCH  13  14
ENDBRANCH   4   7
BRANCH   3  21
HETATM   21  O   UNL     1       2.831  12.307  19.496  0.00  0.00    -0.360 OA
HETATM   22  H   UNL     1       2.802  12.113  18.546  0.00  0.00     0.217 HD
ENDBRANCH   3  21
BRANCH   6  23
HETATM   23  C   UNL     1       8.017  11.202  21.556  0.00  0.00     0.046 C 
BRANCH  23  24
HETATM   24  C   UNL     1       8.277  12.007  22.840  0.00  0.00     0.043 C 
BRANCH  24  25
HETATM   25  C   UNL     1       8.876  13.372  22.599  0.00  0.00    -0.058 A 
HETATM   26  C   UNL     1       8.400  14.176  21.554  0.00  0.00     0.007 A 
HETATM   27  C   UNL     1       8.898  15.466  21.369  0.00  0.00     0.001 A 
HETATM   28  C   UNL     1       9.883  15.962  22.221  0.00  0.00     0.000 A 
HETATM   29  C   UNL     1      10.375  15.165  23.255  0.00  0.00     0.001 A 
HETATM   30  C   UNL     1       9.876  13.874  23.442  0.00  0.00     0.007 A 
ENDBRANCH  24  25
ENDBRANCH  23  24
ENDBRANCH   6  23
BRANCH   1  31
HETATM   31  O   UNL     1       7.256  10.776  18.747  0.00  0.00    -0.360 OA
HETATM   32  H   UNL     1       7.926  10.255  19.219  0.00  0.00     0.217 HD
ENDBRANCH   1  31
TORSDOF 7
ENDMDL
MODEL 7
REMARK VINA RESULT:    -7.652      3.644      5.801
REMARK INTER + INTRA:         -13.397
REMARK INTER:                 -10.811
REMARK INTRA:                  -2.586
REMARK UNBOUND:                -3.061
REMARK  7 active torsions:
REMARK  status: ('A' for Active; 'I' for Inactive)
REMARK    1  A    between atoms: O_1  and  C_2 
REMARK    2  A    between atoms: C_4  and  O_5 
REMARK    3  A    between atoms: C_6  and  C_17 
REMARK    4  A    between atoms: C_8  and  C_9 
REMARK    5  A    between atoms: C_9  and  C_10 
REMARK    6  A    between atoms: C_10  and  C_11 
REMARK    7  A    between atoms: N_23  and  C_24 
ROOT
HETATM    1  C   UNL     1       7.515   9.331  23.548  0.00  0.00     0.074 C 
HETATM    2  C   UNL     1       8.906   9.280  23.502  0.00  0.00     0.074 C 
HETATM    3  C   UNL     1       9.659  10.343  24.010  0.00  0.00     0.082 C 
HETATM    4  C   UNL     1       9.033  11.501  24.499  0.00  0.00     0.046 C 
HETATM    5  C   UNL     1       7.632  11.569  24.407  0.00  0.00     0.028 C 
HETATM    6  C   UNL     1       6.850  10.451  24.051  0.00  0.00    -0.024 C 
ENDROOT
BRANCH   4   7
HETATM    7  C   UNL     1       9.841  12.610  25.106  0.00  0.00     0.172 A 
HETATM    8  N   UNL     1      10.960  12.383  25.746  0.00  0.00    -0.151 NA
HETATM    9  N   UNL     1      11.422  13.608  26.109  0.00  0.00    -0.226 N 
HETATM   10  H   UNL     1      12.225  13.734  26.711  0.00  0.00     0.194 HD
HETATM   11  C   UNL     1      10.562  14.606  25.683  0.00  0.00     0.349 A 
HETATM   12  O   UNL     1      10.696  15.797  25.920  0.00  0.00    -0.245 OA
HETATM   13  N   UNL     1       9.544  13.954  25.016  0.00  0.00    -0.241 N 
BRANCH  13  14
HETATM   14  C   UNL     1       8.429  14.639  24.502  0.00  0.00     0.084 A 
HETATM   15  C   UNL     1       8.356  14.860  23.118  0.00  0.00     0.033 A 
HETATM   16  C   UNL     1       7.207  15.414  22.548  0.00  0.00     0.002 A 
HETATM   17  C   UNL     1       6.138  15.792  23.360  0.00  0.00     0.003 A 
HETATM   18  C   UNL     1       6.227  15.636  24.741  0.00  0.00     0.044 A 
HETATM   19  C   UNL     1       7.372  15.067  25.302  0.00  0.00     0.143 A 
HETATM   20  F   UNL     1       7.432  14.940  26.637  0.00  0.00    -0.204 F 
ENDBRANCH  13  14
ENDBRANCH   4   7
BRANCH   3  21
HETATM   21  O   UNL     1      11.020  10.208  24.031  0.00  0.00    -0.360 OA
HETATM   22  H   UNL     1      11.405  10.722  24.757  0.00  0.00     0.217 HD
ENDBRANCH   3  21
BRANCH   6  23
HETATM   23  C   UNL     1       5.346  10.531  24.273  0.00  0.00     0.046 C 
BRANCH  23  24
HETATM   24  C   UNL     1       4.881  11.681  25.181  0.00  0.00     0.043 C 
BRANCH  24  25
HETATM   25  C   UNL     1       4.051  12.726  24.474  0.00  0.00    -0.058 A 
HETATM   26  C   UNL     1       3.933  12.705  23.077  0.00  0.00     0.007 A 
HETATM   27  C   UNL     1       3.111  13.623  22.421  0.00  0.00     0.001 A 
HETATM   28  C   UNL     1       2.408  14.577  23.155  0.00  0.00     0.000 A 
HETATM   29  C   UNL     1       2.530  14.617  24.543  0.00  0.00     0.001 A 
HETATM   30  C   UNL     1       3.351  13.698  25.201  0.00  0.00     0.007 A 
ENDBRANCH  24  25
ENDBRANCH  23  24
ENDBRANCH   6  23
BRANCH   1  31
HETATM   31  O   UNL     1       6.799   8.265  23.090  0.00  0.00    -0.360 OA
HETATM   32  H   UNL     1       7.284   7.832  22.368  0.00  0.00     0.217 HD
ENDBRANCH   1  31
TORSDOF 7
ENDMDL
MODEL 8
REMARK VINA RESULT:    -7.592      2.692      5.121
REMARK INTER + INTRA:         -13.315
REMARK INTER:                 -10.278
REMARK INTRA:                  -3.037
REMARK UNBOUND:                -3.061
REMARK  7 active torsions:
REMARK  status: ('A' for Active; 'I' for Inactive)
REMARK    1  A    between atoms: O_1  and  C_2 
REMARK    2  A    between atoms: C_4  and  O_5 
REMARK    3  A    between atoms: C_6  and  C_17 
REMARK    4  A    between atoms: C_8  and  C_9 
REMARK    5  A    between atoms: C_9  and  C_10 
REMARK    6  A    between atoms: C_10  and  C_11 
REMARK    7  A    between atoms: N_23  and  C_24 
ROOT
HETATM    1  C   UNL     1       6.293   9.416  23.212  0.00  0.00     0.074 C 
HETATM    2  C   UNL     1       7.588   9.243  23.696  0.00  0.00     0.074 C 
HETATM    3  C   UNL     1       8.580  10.174  23.376  0.00  0.00     0.082 C 
HETATM    4  C   UNL     1       8.313  11.245  22.508  0.00  0.00     0.046 C 
HETATM    5  C   UNL     1       7.031  11.309  21.935  0.00  0.00     0.028 C 
HETATM    6  C   UNL     1       5.975  10.481  22.367  0.00  0.00    -0.024 C 
ENDROOT
BRANCH   4   7
HETATM    7  C   UNL     1       9.361  12.279  22.221  0.00  0.00     0.172 A 
HETATM    8  N   UNL     1      10.468  11.987  21.586  0.00  0.00    -0.151 NA
HETATM    9  N   UNL     1      11.141  13.162  21.475  0.00  0.00    -0.226 N 
HETATM   10  H   UNL     1      12.084  13.221  21.117  0.00  0.00     0.194 HD
HETATM   11  C   UNL     1      10.428  14.196  22.060  0.00  0.00     0.349 A 
HETATM   12  O   UNL     1      10.818  15.348  22.160  0.00  0.00    -0.245 OA
HETATM   13  N   UNL     1       9.264  13.620  22.529  0.00  0.00    -0.241 N 
BRANCH  13  14
HETATM   14  C   UNL     1       8.311  14.350  23.260  0.00  0.00     0.084 A 
HETATM   15  C   UNL     1       7.346  15.089  22.558  0.00  0.00     0.033 A 
HETATM   16  C   UNL     1       6.301  15.719  23.238  0.00  0.00     0.002 A 
HETATM   17  C   UNL     1       6.234  15.652  24.630  0.00  0.00     0.003 A 
HETATM   18  C   UNL     1       7.224  14.976  25.340  0.00  0.00     0.044 A 
HETATM   19  C   UNL     1       8.256  14.336  24.652  0.00  0.00     0.143 A 
HETATM   20  F   UNL     1       9.200  13.702  25.365  0.00  0.00    -0.204 F 
ENDBRANCH  13  14
ENDBRANCH   4   7
BRANCH   3  21
HETATM   21  O   UNL     1       9.812  10.017  23.951  0.00  0.00    -0.360 OA
HETATM   22  H   UNL     1      10.439  10.668  23.603  0.00  0.00     0.217 HD
ENDBRANCH   3  21
BRANCH   6  23
HETATM   23  C   UNL     1       4.563  10.827  21.913  0.00  0.00     0.046 C 
BRANCH  23  24
HETATM   24  C   UNL     1       4.316  12.318  21.630  0.00  0.00     0.043 C 
BRANCH  24  25
HETATM   25  C   UNL     1       3.707  13.071  22.790  0.00  0.00    -0.058 A 
HETATM   26  C   UNL     1       4.043  12.727  24.106  0.00  0.00     0.007 A 
HETATM   27  C   UNL     1       3.540  13.463  25.181  0.00  0.00     0.001 A 
HETATM   28  C   UNL     1       2.691  14.544  24.949  0.00  0.00     0.000 A 
HETATM   29  C   UNL     1       2.338  14.884  23.643  0.00  0.00     0.001 A 
HETATM   30  C   UNL     1       2.841  14.149  22.568  0.00  0.00     0.007 A 
ENDBRANCH  24  25
ENDBRANCH  23  24
ENDBRANCH   6  23
BRANCH   1  31
HETATM   31  O   UNL     1       5.328   8.523  23.572  0.00  0.00    -0.360 OA
HETATM   32  H   UNL     1       4.619   8.522  22.909  0.00  0.00     0.217 HD
ENDBRANCH   1  31
TORSDOF 7
ENDMDL
MODEL 9
REMARK VINA RESULT:    -7.579      2.875      3.871
REMARK INTER + INTRA:         -13.298
REMARK INTER:                 -10.238
REMARK INTRA:                  -3.061
REMARK UNBOUND:                -3.061
REMARK  7 active torsions:
REMARK  status: ('A' for Active; 'I' for Inactive)
REMARK    1  A    between atoms: O_1  and  C_2 
REMARK    2  A    between atoms: C_4  and  O_5 
REMARK    3  A    between atoms: C_6  and  C_17 
REMARK    4  A    between atoms: C_8  and  C_9 
REMARK    5  A    between atoms: C_9  and  C_10 
REMARK    6  A    between atoms: C_10  and  C_11 
REMARK    7  A    between atoms: N_23  and  C_24 
ROOT
HETATM    1  C   UNL     1      10.955  14.099  22.832  0.00  0.00     0.074 C 
HETATM    2  C   UNL     1      11.224  13.051  21.955  0.00  0.00     0.074 C 
HETATM    3  C   UNL     1      10.706  11.778  22.212  0.00  0.00     0.082 C 
HETATM    4  C   UNL     1       9.979  11.519  23.385  0.00  0.00     0.046 C 
HETATM    5  C   UNL     1       9.842  12.570  24.308  0.00  0.00     0.028 C 
HETATM    6  C   UNL     1      10.213  13.894  23.996  0.00  0.00    -0.024 C 
ENDROOT
BRANCH   4   7
HETATM    7  C   UNL     1       9.367  10.170  23.625  0.00  0.00     0.172 A 
HETATM    8  N   UNL     1      10.096   9.117  23.897  0.00  0.00    -0.151 NA
HETATM    9  N   UNL     1       9.209   8.106  24.091  0.00  0.00    -0.226 N 
HETATM   10  H   UNL     1       9.495   7.144  24.216  0.00  0.00     0.194 HD
HETATM   11  C   UNL     1       7.908   8.552  23.929  0.00  0.00     0.349 A 
HETATM   12  O   UNL     1       6.912   7.849  23.986  0.00  0.00    -0.245 OA
HETATM   13  N   UNL     1       8.015   9.899  23.643  0.00  0.00    -0.241 N 
BRANCH  13  14
HETATM   14  C   UNL     1       6.893  10.689  23.335  0.00  0.00     0.084 A 
HETATM   15  C   UNL     1       6.164  11.260  24.389  0.00  0.00     0.033 A 
HETATM   16  C   UNL     1       5.126  12.159  24.129  0.00  0.00     0.002 A 
HETATM   17  C   UNL     1       4.781  12.463  22.813  0.00  0.00     0.003 A 
HETATM   18  C   UNL     1       5.457  11.852  21.759  0.00  0.00     0.044 A 
HETATM   19  C   UNL     1       6.503  10.966  22.028  0.00  0.00     0.143 A 
HETATM   20  F   UNL     1       7.127  10.385  20.991  0.00  0.00    -0.204 F 
ENDBRANCH  13  14
ENDBRANCH   4   7
BRANCH   3  21
HETATM   21  O   UNL     1      10.916  10.803  21.277  0.00  0.00    -0.360 OA
HETATM   22  H   UNL     1      10.711   9.928  21.640  0.00  0.00     0.217 HD
ENDBRANCH   3  21
BRANCH   6  23
HETATM   23  C   UNL     1       9.750  15.005  24.928  0.00  0.00     0.046 C 
BRANCH  23  24
HETATM   24  C   UNL     1       8.443  14.718  25.687  0.00  0.00     0.043 C 
BRANCH  24  25
HETATM   25  C   UNL     1       7.197  15.149  24.950  0.00  0.00    -0.058 A 
HETATM   26  C   UNL     1       6.001  15.357  25.651  0.00  0.00     0.007 A 
HETATM   27  C   UNL     1       4.864  15.824  24.990  0.00  0.00     0.001 A 
HETATM   28  C   UNL     1       4.910  16.078  23.620  0.00  0.00     0.000 A 
HETATM   29  C   UNL     1       6.090  15.860  22.911  0.00  0.00     0.001 A 
HETATM   30  C   UNL     1       7.228  15.394  23.572  0.00  0.00     0.007 A 
ENDBRANCH  24  25
ENDBRANCH  23  24
ENDBRANCH   6  23
BRANCH   1  31
HETATM   31  O   UNL     1      11.431  15.343  22.539  0.00  0.00    -0.360 OA
HETATM   32  H   UNL     1      11.219  15.566  21.618  0.00  0.00     0.217 HD
ENDBRANCH   1  31
TORSDOF 7
ENDMDL
