MODEL 1
REMARK VINA RESULT:    -7.504      0.000      0.000
REMARK INTER + INTRA:         -11.354
REMARK INTER:                 -10.658
REMARK INTRA:                  -0.696
REMARK UNBOUND:                -0.998
REMARK  7 active torsions:
REMARK  status: ('A' for Active; 'I' for Inactive)
REMARK    1  A    between atoms: C_2  and  C_3 
REMARK    2  A    between atoms: C_3  and  C_4 
REMARK    3  A    between atoms: C_4  and  C_5 
REMARK    4  A    between atoms: C_12  and  C_16 
REMARK    5  A    between atoms: C_13  and  O_15 
REMARK       I    between atoms: C_16  and  N_18 
REMARK    6  A    between atoms: N_18  and  C_20 
REMARK    7  A    between atoms: C_23  and  N_26 
ROOT
HETATM    1  C   UNL     1       5.898  15.001  23.316  0.00  0.00     0.067 A 
HETATM    2  N   UNL     1       6.779  15.587  24.142  0.00  0.00    -0.178 NA
HETATM    3  N   UNL     1       7.925  14.930  23.916  0.00  0.00    -0.277 N 
HETATM    4  H   UNL     1       8.745  15.203  24.447  0.00  0.00     0.189 HD
HETATM    5  C   UNL     1       6.508  13.965  22.546  0.00  0.00     0.019 A 
HETATM    6  C   UNL     1       7.814  13.908  23.015  0.00  0.00     0.065 A 
HETATM    7  C   UNL     1       6.114  13.040  21.554  0.00  0.00     0.035 C 
HETATM    8  C   UNL     1       7.009  12.030  21.110  0.00  0.00     0.066 C 
HETATM    9  C   UNL     1       8.263  11.948  21.726  0.00  0.00     0.083 C 
HETATM   10  C   UNL     1       8.724  12.927  22.615  0.00  0.00     0.069 C 
ENDROOT
BRANCH   8  11
HETATM   11  C   UNL     1       6.445  11.053  20.117  0.00  0.00     0.260 C 
HETATM   12  O   UNL     1       6.834  11.260  18.962  0.00  0.00    -0.267 OA
HETATM   13  N   UNL     1       5.562   9.994  20.467  0.00  0.00    -0.318 N 
HETATM   14  C   UNL     1       4.934   9.871  21.783  0.00  0.00     0.159 C 
BRANCH  13  15
HETATM   15  C   UNL     1       5.200   8.974  19.488  0.00  0.00     0.037 A 
HETATM   16  C   UNL     1       4.362   9.265  18.409  0.00  0.00     0.032 A 
HETATM   17  C   UNL     1       3.989   8.282  17.475  0.00  0.00     0.031 A 
HETATM   18  C   UNL     1       4.427   6.959  17.561  0.00  0.00     0.030 A 
HETATM   19  C   UNL     1       5.331   6.678  18.589  0.00  0.00     0.031 A 
HETATM   20  C   UNL     1       5.705   7.663  19.538  0.00  0.00     0.032 A 
BRANCH  18  21
HETATM   21  N   UNL     1       3.963   6.020  16.664  0.00  0.00    -0.377 N 
HETATM   22  C   UNL     1       3.668   4.614  16.982  0.00  0.00     0.149 C 
HETATM   23  C   UNL     1       2.176   4.299  16.783  0.00  0.00     0.187 C 
HETATM   24  O   UNL     1       1.707   4.696  15.483  0.00  0.00    -0.388 OA
HETATM   25  C   UNL     1       1.912   6.106  15.295  0.00  0.00     0.187 C 
HETATM   26  C   UNL     1       3.402   6.473  15.377  0.00  0.00     0.149 C 
ENDBRANCH  18  21
ENDBRANCH  13  15
ENDBRANCH   8  11
BRANCH   9  27
HETATM   27  O   UNL     1       9.104  10.877  21.593  0.00  0.00    -0.360 OA
HETATM   28  H   UNL     1       9.464  10.685  22.482  0.00  0.00     0.217 HD
ENDBRANCH   9  27
BRANCH   1  29
HETATM   29  C   UNL     1       4.463  15.426  23.362  0.00  0.00     0.062 C 
BRANCH  29  30
HETATM   30  C   UNL     1       3.978  15.726  24.784  0.00  0.00     0.006 C 
BRANCH  30  31
HETATM   31  C   UNL     1       2.755  14.889  25.159  0.00  0.00    -0.004 C 
HETATM   32  C   UNL     1       1.933  14.539  23.928  0.00  0.00     0.005 C 
ENDBRANCH  30  31
ENDBRANCH  29  30
ENDBRANCH   1  29
TORSDOF 7
ENDMDL
MODEL 2
REMARK VINA RESULT:    -7.453      1.677      2.267
REMARK INTER + INTRA:         -11.283
REMARK INTER:                 -10.456
REMARK INTRA:                  -0.827
REMARK UNBOUND:                -0.998
REMARK  7 active torsions:
REMARK  status: ('A' for Active; 'I' for Inactive)
REMARK    1  A    between atoms: C_2  and  C_3 
REMARK    2  A    between atoms: C_3  and  C_4 
REMARK    3  A    between atoms: C_4  and  C_5 
REMARK    4  A    between atoms: C_12  and  C_16 
REMARK    5  A    between atoms: C_13  and  O_15 
REMARK       I    between atoms: C_16  and  N_18 
REMARK    6  A    between atoms: N_18  and  C_20 
REMARK    7  A    between atoms: C_23  and  N_26 
ROOT
HETATM    1  C   UNL     1       3.840  13.927  22.992  0.00  0.00     0.067 A 
HETATM    2  N   UNL     1       4.480  14.960  23.562  0.00  0.00    -0.178 NA
HETATM    3  N   UNL     1       5.715  14.903  23.045  0.00  0.00    -0.277 N 
HETATM    4  H   UNL     1       6.391  15.597  23.343  0.00  0.00     0.189 HD
HETATM    5  C   UNL     1       4.686  13.216  22.089  0.00  0.00     0.019 A 
HETATM    6  C   UNL     1       5.919  13.846  22.202  0.00  0.00     0.065 A 
HETATM    7  C   UNL     1       4.584  12.098  21.233  0.00  0.00     0.035 C 
HETATM    8  C   UNL     1       5.731  11.587  20.569  0.00  0.00     0.066 C 
HETATM    9  C   UNL     1       6.966  12.188  20.838  0.00  0.00     0.083 C 
HETATM   10  C   UNL     1       7.075  13.373  21.578  0.00  0.00     0.069 C 
ENDROOT
BRANCH   8  11
HETATM   11  C   UNL     1       5.511  10.342  19.757  0.00  0.00     0.260 C 
HETATM   12  O   UNL     1       6.120   9.362  20.202  0.00  0.00    -0.267 OA
HETATM   13  N   UNL     1       4.683  10.290  18.602  0.00  0.00    -0.318 N 
HETATM   14  C   UNL     1       4.132  11.479  17.952  0.00  0.00     0.159 C 
BRANCH  13  15
HETATM   15  C   UNL     1       4.367   9.012  17.970  0.00  0.00     0.037 A 
HETATM   16  C   UNL     1       4.542   8.816  16.599  0.00  0.00     0.032 A 
HETATM   17  C   UNL     1       4.218   7.596  15.978  0.00  0.00     0.031 A 
HETATM   18  C   UNL     1       3.703   6.507  16.684  0.00  0.00     0.030 A 
HETATM   19  C   UNL     1       3.604   6.666  18.069  0.00  0.00     0.031 A 
HETATM   20  C   UNL     1       3.922   7.896  18.699  0.00  0.00     0.032 A 
BRANCH  18  21
HETATM   21  N   UNL     1       3.326   5.364  16.010  0.00  0.00    -0.377 N 
HETATM   22  C   UNL     1       2.732   4.170  16.629  0.00  0.00     0.149 C 
HETATM   23  C   UNL     1       1.305   3.926  16.110  0.00  0.00     0.187 C 
HETATM   24  O   UNL     1       1.247   3.908  14.673  0.00  0.00    -0.388 OA
HETATM   25  C   UNL     1       1.725   5.155  14.145  0.00  0.00     0.187 C 
HETATM   26  C   UNL     1       3.187   5.411  14.542  0.00  0.00     0.149 C 
ENDBRANCH  18  21
ENDBRANCH  13  15
ENDBRANCH   8  11
BRANCH   9  27
HETATM   27  O   UNL     1       8.170  11.638  20.489  0.00  0.00    -0.360 OA
HETATM   28  H   UNL     1       8.329  10.891  21.100  0.00  0.00     0.217 HD
ENDBRANCH   9  27
BRANCH   1  29
HETATM   29  C   UNL     1       2.435  13.623  23.412  0.00  0.00     0.062 C 
BRANCH  29  30
HETATM   30  C   UNL     1       1.389  14.254  22.488  0.00  0.00     0.006 C 
BRANCH  30  31
HETATM   31  C   UNL     1       1.105  13.380  21.265  0.00  0.00    -0.004 C 
HETATM   32  C   UNL     1      -0.389  13.287  20.995  0.00  0.00     0.005 C 
ENDBRANCH  30  31
ENDBRANCH  29  30
ENDBRANCH   1  29
TORSDOF 7
ENDMDL
MODEL 3
REMARK VINA RESULT:    -7.313      3.003      5.027
REMARK INTER + INTRA:         -11.090
REMARK INTER:                  -9.995
REMARK INTRA:                  -1.095
REMARK UNBOUND:                -0.998
REMARK  7 active torsions:
REMARK  status: ('A' for Active; 'I' for Inactive)
REMARK    1  A    between atoms: C_2  and  C_3 
REMARK    2  A    between atoms: C_3  and  C_4 
REMARK    3  A    between atoms: C_4  and  C_5 
REMARK    4  A    between atoms: C_12  and  C_16 
REMARK    5  A    between atoms: C_13  and  O_15 
REMARK       I    between atoms: C_16  and  N_18 
REMARK    6  A    between atoms: N_18  and  C_20 
REMARK    7  A    between atoms: C_23  and  N_26 
ROOT
HETATM    1  C   UNL     1      10.926  13.891  25.941  0.00  0.00     0.067 A 
HETATM    2  N   UNL     1      10.950  14.672  27.032  0.00  0.00    -0.178 NA
HETATM    3  N   UNL     1       9.708  15.171  27.103  0.00  0.00    -0.277 N 
HETATM    4  H   UNL     1       9.492  15.807  27.862  0.00  0.00     0.189 HD
HETATM    5  C   UNL     1       9.640  13.889  25.323  0.00  0.00     0.019 A 
HETATM    6  C   UNL     1       8.893  14.787  26.075  0.00  0.00     0.065 A 
HETATM    7  C   UNL     1       9.027  13.286  24.202  0.00  0.00     0.035 C 
HETATM    8  C   UNL     1       7.710  13.650  23.814  0.00  0.00     0.066 C 
HETATM    9  C   UNL     1       7.070  14.663  24.537  0.00  0.00     0.083 C 
HETATM   10  C   UNL     1       7.601  15.183  25.725  0.00  0.00     0.069 C 
ENDROOT
BRANCH   8  11
HETATM   11  C   UNL     1       7.202  13.005  22.555  0.00  0.00     0.260 C 
HETATM   12  O   UNL     1       7.731  13.458  21.534  0.00  0.00    -0.267 OA
HETATM   13  N   UNL     1       6.222  11.974  22.537  0.00  0.00    -0.318 N 
HETATM   14  C   UNL     1       5.443  11.584  23.713  0.00  0.00     0.159 C 
BRANCH  13  15
HETATM   15  C   UNL     1       5.910  11.266  21.300  0.00  0.00     0.037 A 
HETATM   16  C   UNL     1       6.340   9.955  21.084  0.00  0.00     0.032 A 
HETATM   17  C   UNL     1       6.065   9.273  19.885  0.00  0.00     0.031 A 
HETATM   18  C   UNL     1       5.348   9.855  18.837  0.00  0.00     0.030 A 
HETATM   19  C   UNL     1       4.842  11.135  19.078  0.00  0.00     0.031 A 
HETATM   20  C   UNL     1       5.123  11.830  20.281  0.00  0.00     0.032 A 
BRANCH  18  21
HETATM   21  N   UNL     1       5.178   9.168  17.653  0.00  0.00    -0.377 N 
HETATM   22  C   UNL     1       5.769   7.858  17.341  0.00  0.00     0.149 C 
HETATM   23  C   UNL     1       4.680   6.792  17.129  0.00  0.00     0.187 C 
HETATM   24  O   UNL     1       3.691   7.211  16.173  0.00  0.00    -0.388 OA
HETATM   25  C   UNL     1       3.068   8.429  16.610  0.00  0.00     0.187 C 
HETATM   26  C   UNL     1       4.091   9.568  16.741  0.00  0.00     0.149 C 
ENDBRANCH  18  21
ENDBRANCH  13  15
ENDBRANCH   8  11
BRANCH   9  27
HETATM   27  O   UNL     1       5.931  15.293  24.113  0.00  0.00    -0.360 OA
HETATM   28  H   UNL     1       6.096  15.592  23.197  0.00  0.00     0.217 HD
ENDBRANCH   9  27
BRANCH   1  29
HETATM   29  C   UNL     1      12.193  13.229  25.493  0.00  0.00     0.062 C 
BRANCH  29  30
HETATM   30  C   UNL     1      13.263  14.232  25.051  0.00  0.00     0.006 C 
BRANCH  30  31
HETATM   31  C   UNL     1      12.790  15.094  23.881  0.00  0.00    -0.004 C 
HETATM   32  C   UNL     1      12.378  14.232  22.697  0.00  0.00     0.005 C 
ENDBRANCH  30  31
ENDBRANCH  29  30
ENDBRANCH   1  29
TORSDOF 7
ENDMDL
MODEL 4
REMARK VINA RESULT:    -7.279      1.847      2.511
REMARK INTER + INTRA:         -11.043
REMARK INTER:                 -10.266
REMARK INTRA:                  -0.778
REMARK UNBOUND:                -0.998
REMARK  7 active torsions:
REMARK  status: ('A' for Active; 'I' for Inactive)
REMARK    1  A    between atoms: C_2  and  C_3 
REMARK    2  A    between atoms: C_3  and  C_4 
REMARK    3  A    between atoms: C_4  and  C_5 
REMARK    4  A    between atoms: C_12  and  C_16 
REMARK    5  A    between atoms: C_13  and  O_15 
REMARK       I    between atoms: C_16  and  N_18 
REMARK    6  A    between atoms: N_18  and  C_20 
REMARK    7  A    between atoms: C_23  and  N_26 
ROOT
HETATM    1  C   UNL     1       7.379  14.771  25.369  0.00  0.00     0.067 A 
HETATM    2  N   UNL     1       8.330  15.144  26.239  0.00  0.00    -0.178 NA
HETATM    3  N   UNL     1       9.272  14.199  26.118  0.00  0.00    -0.277 N 
HETATM    4  H   UNL     1      10.100  14.273  26.699  0.00  0.00     0.189 HD
HETATM    5  C   UNL     1       7.738  13.575  24.678  0.00  0.00     0.019 A 
HETATM    6  C   UNL     1       8.951  13.200  25.243  0.00  0.00     0.065 A 
HETATM    7  C   UNL     1       7.176  12.739  23.688  0.00  0.00     0.035 C 
HETATM    8  C   UNL     1       7.797  11.509  23.341  0.00  0.00     0.066 C 
HETATM    9  C   UNL     1       8.943  11.130  24.050  0.00  0.00     0.083 C 
HETATM   10  C   UNL     1       9.591  11.996  24.941  0.00  0.00     0.069 C 
ENDROOT
BRANCH   8  11
HETATM   11  C   UNL     1       7.057  10.668  22.340  0.00  0.00     0.260 C 
HETATM   12  O   UNL     1       6.462   9.715  22.857  0.00  0.00    -0.267 OA
HETATM   13  N   UNL     1       7.033  10.939  20.944  0.00  0.00    -0.318 N 
HETATM   14  C   UNL     1       7.898  11.930  20.302  0.00  0.00     0.159 C 
BRANCH  13  15
HETATM   15  C   UNL     1       6.148  10.193  20.056  0.00  0.00     0.037 A 
HETATM   16  C   UNL     1       5.406  10.834  19.061  0.00  0.00     0.032 A 
HETATM   17  C   UNL     1       4.533  10.126  18.216  0.00  0.00     0.031 A 
HETATM   18  C   UNL     1       4.349   8.745  18.313  0.00  0.00     0.030 A 
HETATM   19  C   UNL     1       5.149   8.084  19.249  0.00  0.00     0.031 A 
HETATM   20  C   UNL     1       6.025   8.794  20.108  0.00  0.00     0.032 A 
BRANCH  18  21
HETATM   21  N   UNL     1       3.418   8.117  17.512  0.00  0.00    -0.377 N 
HETATM   22  C   UNL     1       3.519   7.964  16.053  0.00  0.00     0.149 C 
HETATM   23  C   UNL     1       3.610   6.481  15.654  0.00  0.00     0.187 C 
HETATM   24  O   UNL     1       2.552   5.698  16.234  0.00  0.00    -0.388 OA
HETATM   25  C   UNL     1       2.596   5.795  17.667  0.00  0.00     0.187 C 
HETATM   26  C   UNL     1       2.405   7.245  18.137  0.00  0.00     0.149 C 
ENDBRANCH  18  21
ENDBRANCH  13  15
ENDBRANCH   8  11
BRANCH   9  27
HETATM   27  O   UNL     1       9.476   9.871  24.011  0.00  0.00    -0.360 OA
HETATM   28  H   UNL     1       8.934   9.313  24.604  0.00  0.00     0.217 HD
ENDBRANCH   9  27
BRANCH   1  29
HETATM   29  C   UNL     1       6.108  15.560  25.298  0.00  0.00     0.062 C 
BRANCH  29  30
HETATM   30  C   UNL     1       5.689  15.882  23.860  0.00  0.00     0.006 C 
BRANCH  30  31
HETATM   31  C   UNL     1       4.179  15.748  23.662  0.00  0.00    -0.004 C 
HETATM   32  C   UNL     1       3.818  14.370  23.126  0.00  0.00     0.005 C 
ENDBRANCH  30  31
ENDBRANCH  29  30
ENDBRANCH   1  29
TORSDOF 7
ENDMDL
MODEL 5
REMARK VINA RESULT:    -7.277      2.609      9.758
REMARK INTER + INTRA:         -11.040
REMARK INTER:                  -9.837
REMARK INTRA:                  -1.203
REMARK UNBOUND:                -0.998
REMARK  7 active torsions:
REMARK  status: ('A' for Active; 'I' for Inactive)
REMARK    1  A    between atoms: C_2  and  C_3 
REMARK    2  A    between atoms: C_3  and  C_4 
REMARK    3  A    between atoms: C_4  and  C_5 
REMARK    4  A    between atoms: C_12  and  C_16 
REMARK    5  A    between atoms: C_13  and  O_15 
REMARK       I    between atoms: C_16  and  N_18 
REMARK    6  A    between atoms: N_18  and  C_20 
REMARK    7  A    between atoms: C_23  and  N_26 
ROOT
HETATM    1  C   UNL     1       4.701   6.508  17.442  0.00  0.00     0.067 A 
HETATM    2  N   UNL     1       3.828   6.249  16.457  0.00  0.00    -0.178 NA
HETATM    3  N   UNL     1       3.464   7.460  16.016  0.00  0.00    -0.277 N 
HETATM    4  H   UNL     1       2.790   7.511  15.260  0.00  0.00     0.189 HD
HETATM    5  C   UNL     1       4.899   7.911  17.615  0.00  0.00     0.019 A 
HETATM    6  C   UNL     1       4.024   8.497  16.708  0.00  0.00     0.065 A 
HETATM    7  C   UNL     1       5.662   8.757  18.449  0.00  0.00     0.035 C 
HETATM    8  C   UNL     1       5.480  10.165  18.412  0.00  0.00     0.066 C 
HETATM    9  C   UNL     1       4.483  10.676  17.573  0.00  0.00     0.083 C 
HETATM   10  C   UNL     1       3.804   9.875  16.646  0.00  0.00     0.069 C 
ENDROOT
BRANCH   8  11
HETATM   11  C   UNL     1       6.286  10.950  19.408  0.00  0.00     0.260 C 
HETATM   12  O   UNL     1       7.312  11.438  18.920  0.00  0.00    -0.267 OA
HETATM   13  N   UNL     1       5.909  11.124  20.768  0.00  0.00    -0.318 N 
HETATM   14  C   UNL     1       4.818  10.382  21.402  0.00  0.00     0.159 C 
BRANCH  13  15
HETATM   15  C   UNL     1       6.638  12.048  21.631  0.00  0.00     0.037 A 
HETATM   16  C   UNL     1       6.277  13.394  21.727  0.00  0.00     0.032 A 
HETATM   17  C   UNL     1       6.989  14.296  22.538  0.00  0.00     0.031 A 
HETATM   18  C   UNL     1       8.097  13.911  23.296  0.00  0.00     0.030 A 
HETATM   19  C   UNL     1       8.414  12.551  23.271  0.00  0.00     0.031 A 
HETATM   20  C   UNL     1       7.705  11.638  22.450  0.00  0.00     0.032 A 
BRANCH  18  21
HETATM   21  N   UNL     1       8.806  14.857  24.008  0.00  0.00    -0.377 N 
HETATM   22  C   UNL     1       8.880  14.935  25.475  0.00  0.00     0.149 C 
HETATM   23  C   UNL     1      10.319  14.716  25.971  0.00  0.00     0.187 C 
HETATM   24  O   UNL     1      11.258  15.581  25.309  0.00  0.00    -0.388 OA
HETATM   25  C   UNL     1      11.219  15.357  23.890  0.00  0.00     0.187 C 
HETATM   26  C   UNL     1       9.828  15.661  23.312  0.00  0.00     0.149 C 
ENDBRANCH  18  21
ENDBRANCH  13  15
ENDBRANCH   8  11
BRANCH   9  27
HETATM   27  O   UNL     1       4.021  11.963  17.640  0.00  0.00    -0.360 OA
HETATM   28  H   UNL     1       4.805  12.547  17.645  0.00  0.00     0.217 HD
ENDBRANCH   9  27
BRANCH   1  29
HETATM   29  C   UNL     1       5.258   5.368  18.239  0.00  0.00     0.062 C 
BRANCH  29  30
HETATM   30  C   UNL     1       4.641   5.264  19.637  0.00  0.00     0.006 C 
BRANCH  30  31
HETATM   31  C   UNL     1       5.576   5.808  20.717  0.00  0.00    -0.004 C 
HETATM   32  C   UNL     1       4.810   6.635  21.738  0.00  0.00     0.005 C 
ENDBRANCH  30  31
ENDBRANCH  29  30
ENDBRANCH   1  29
TORSDOF 7
ENDMDL
MODEL 6
REMARK VINA RESULT:    -7.147      1.234      1.928
REMARK INTER + INTRA:         -10.860
REMARK INTER:                 -10.016
REMARK INTRA:                  -0.845
REMARK UNBOUND:                -0.998
REMARK  7 active torsions:
REMARK  status: ('A' for Active; 'I' for Inactive)
REMARK    1  A    between atoms: C_2  and  C_3 
REMARK    2  A    between atoms: C_3  and  C_4 
REMARK    3  A    between atoms: C_4  and  C_5 
REMARK    4  A    between atoms: C_12  and  C_16 
REMARK    5  A    between atoms: C_13  and  O_15 
REMARK       I    between atoms: C_16  and  N_18 
REMARK    6  A    between atoms: N_18  and  C_20 
REMARK    7  A    between atoms: C_23  and  N_26 
ROOT
HETATM    1  C   UNL     1       5.061  15.196  23.632  0.00  0.00     0.067 A 
HETATM    2  N   UNL     1       6.034  15.886  24.248  0.00  0.00    -0.178 NA
HETATM    3  N   UNL     1       7.144  15.177  24.000  0.00  0.00    -0.277 N 
HETATM    4  H   UNL     1       8.021  15.513  24.382  0.00  0.00     0.189 HD
HETATM    5  C   UNL     1       5.574  14.038  22.973  0.00  0.00     0.019 A 
HETATM    6  C   UNL     1       6.926  14.029  23.292  0.00  0.00     0.065 A 
HETATM    7  C   UNL     1       5.064  12.977  22.193  0.00  0.00     0.035 C 
HETATM    8  C   UNL     1       5.899  11.891  21.815  0.00  0.00     0.066 C 
HETATM    9  C   UNL     1       7.216  11.880  22.290  0.00  0.00     0.083 C 
HETATM   10  C   UNL     1       7.781  12.978  22.952  0.00  0.00     0.069 C 
ENDROOT
BRANCH   8  11
HETATM   11  C   UNL     1       5.220  10.781  21.063  0.00  0.00     0.260 C 
HETATM   12  O   UNL     1       4.361  10.199  21.735  0.00  0.00    -0.267 OA
HETATM   13  N   UNL     1       5.525  10.439  19.716  0.00  0.00    -0.318 N 
HETATM   14  C   UNL     1       6.676  10.977  18.990  0.00  0.00     0.159 C 
BRANCH  13  15
HETATM   15  C   UNL     1       4.703   9.477  18.989  0.00  0.00     0.037 A 
HETATM   16  C   UNL     1       4.534   8.169  19.449  0.00  0.00     0.032 A 
HETATM   17  C   UNL     1       3.764   7.229  18.741  0.00  0.00     0.031 A 
HETATM   18  C   UNL     1       3.119   7.536  17.541  0.00  0.00     0.030 A 
HETATM   19  C   UNL     1       3.213   8.864  17.118  0.00  0.00     0.031 A 
HETATM   20  C   UNL     1       3.995   9.814  17.822  0.00  0.00     0.032 A 
BRANCH  18  21
HETATM   21  N   UNL     1       2.445   6.551  16.850  0.00  0.00    -0.377 N 
HETATM   22  C   UNL     1       2.071   6.616  15.429  0.00  0.00     0.149 C 
HETATM   23  C   UNL     1       2.778   5.517  14.617  0.00  0.00     0.187 C 
HETATM   24  O   UNL     1       2.591   4.213  15.193  0.00  0.00    -0.388 OA
HETATM   25  C   UNL     1       3.096   4.192  16.538  0.00  0.00     0.187 C 
HETATM   26  C   UNL     1       2.356   5.199  17.432  0.00  0.00     0.149 C 
ENDBRANCH  18  21
ENDBRANCH  13  15
ENDBRANCH   8  11
BRANCH   9  27
HETATM   27  O   UNL     1       8.033  10.784  22.233  0.00  0.00    -0.360 OA
HETATM   28  H   UNL     1       8.168  10.481  23.153  0.00  0.00     0.217 HD
ENDBRANCH   9  27
BRANCH   1  29
HETATM   29  C   UNL     1       3.643  15.653  23.775  0.00  0.00     0.062 C 
BRANCH  29  30
HETATM   30  C   UNL     1       2.854  14.834  24.801  0.00  0.00     0.006 C 
BRANCH  30  31
HETATM   31  C   UNL     1       1.546  14.296  24.221  0.00  0.00    -0.004 C 
HETATM   32  C   UNL     1       1.449  14.586  22.731  0.00  0.00     0.005 C 
ENDBRANCH  30  31
ENDBRANCH  29  30
ENDBRANCH   1  29
TORSDOF 7
ENDMDL
MODEL 7
REMARK VINA RESULT:    -7.116      1.907      3.485
REMARK INTER + INTRA:         -10.818
REMARK INTER:                 -10.478
REMARK INTRA:                  -0.340
REMARK UNBOUND:                -0.998
REMARK  7 active torsions:
REMARK  status: ('A' for Active; 'I' for Inactive)
REMARK    1  A    between atoms: C_2  and  C_3 
REMARK    2  A    between atoms: C_3  and  C_4 
REMARK    3  A    between atoms: C_4  and  C_5 
REMARK    4  A    between atoms: C_12  and  C_16 
REMARK    5  A    between atoms: C_13  and  O_15 
REMARK       I    between atoms: C_16  and  N_18 
REMARK    6  A    between atoms: N_18  and  C_20 
REMARK    7  A    between atoms: C_23  and  N_26 
ROOT
HETATM    1  C   UNL     1       7.825  14.696  22.043  0.00  0.00     0.067 A 
HETATM    2  N   UNL     1       7.424  15.654  22.893  0.00  0.00    -0.178 NA
HETATM    3  N   UNL     1       6.181  15.289  23.234  0.00  0.00    -0.277 N 
HETATM    4  H   UNL     1       5.668  15.882  23.877  0.00  0.00     0.189 HD
HETATM    5  C   UNL     1       6.817  13.702  21.858  0.00  0.00     0.019 A 
HETATM    6  C   UNL     1       5.738  14.161  22.603  0.00  0.00     0.065 A 
HETATM    7  C   UNL     1       6.661  12.506  21.123  0.00  0.00     0.035 C 
HETATM    8  C   UNL     1       5.408  11.838  21.087  0.00  0.00     0.066 C 
HETATM    9  C   UNL     1       4.328  12.432  21.748  0.00  0.00     0.083 C 
HETATM   10  C   UNL     1       4.486  13.543  22.588  0.00  0.00     0.069 C 
ENDROOT
BRANCH   8  11
HETATM   11  C   UNL     1       5.345  10.626  20.200  0.00  0.00     0.260 C 
HETATM   12  O   UNL     1       5.962   9.659  20.661  0.00  0.00    -0.267 OA
HETATM   13  N   UNL     1       4.643  10.588  18.964  0.00  0.00    -0.318 N 
HETATM   14  C   UNL     1       4.092  11.778  18.314  0.00  0.00     0.159 C 
BRANCH  13  15
HETATM   15  C   UNL     1       4.467   9.329  18.246  0.00  0.00     0.037 A 
HETATM   16  C   UNL     1       4.380   9.293  16.852  0.00  0.00     0.032 A 
HETATM   17  C   UNL     1       4.187   8.087  16.154  0.00  0.00     0.031 A 
HETATM   18  C   UNL     1       4.072   6.855  16.800  0.00  0.00     0.030 A 
HETATM   19  C   UNL     1       4.242   6.871  18.187  0.00  0.00     0.031 A 
HETATM   20  C   UNL     1       4.429   8.084  18.897  0.00  0.00     0.032 A 
BRANCH  18  21
HETATM   21  N   UNL     1       3.802   5.716  16.069  0.00  0.00    -0.377 N 
HETATM   22  C   UNL     1       3.503   4.394  16.638  0.00  0.00     0.149 C 
HETATM   23  C   UNL     1       2.079   3.940  16.273  0.00  0.00     0.187 C 
HETATM   24  O   UNL     1       1.831   4.018  14.859  0.00  0.00    -0.388 OA
HETATM   25  C   UNL     1       2.020   5.367  14.399  0.00  0.00     0.187 C 
HETATM   26  C   UNL     1       3.460   5.846  14.640  0.00  0.00     0.149 C 
ENDBRANCH  18  21
ENDBRANCH  13  15
ENDBRANCH   8  11
BRANCH   9  27
HETATM   27  O   UNL     1       3.026  12.049  21.571  0.00  0.00    -0.360 OA
HETATM   28  H   UNL     1       2.936  11.771  20.638  0.00  0.00     0.217 HD
ENDBRANCH   9  27
BRANCH   1  29
HETATM   29  C   UNL     1       9.159  14.827  21.376  0.00  0.00     0.062 C 
BRANCH  29  30
HETATM   30  C   UNL     1       9.975  16.011  21.906  0.00  0.00     0.006 C 
BRANCH  30  31
HETATM   31  C   UNL     1      11.162  15.554  22.754  0.00  0.00    -0.004 C 
HETATM   32  C   UNL     1      10.915  15.824  24.230  0.00  0.00     0.005 C 
ENDBRANCH  30  31
ENDBRANCH  29  30
ENDBRANCH   1  29
TORSDOF 7
ENDMDL
MODEL 8
REMARK VINA RESULT:    -7.058      2.374      4.250
REMARK INTER + INTRA:         -10.738
REMARK INTER:                  -9.633
REMARK INTRA:                  -1.105
REMARK UNBOUND:                -0.998
REMARK  7 active torsions:
REMARK  status: ('A' for Active; 'I' for Inactive)
REMARK    1  A    between atoms: C_2  and  C_3 
REMARK    2  A    between atoms: C_3  and  C_4 
REMARK    3  A    between atoms: C_4  and  C_5 
REMARK    4  A    between atoms: C_12  and  C_16 
REMARK    5  A    between atoms: C_13  and  O_15 
REMARK       I    between atoms: C_16  and  N_18 
REMARK    6  A    between atoms: N_18  and  C_20 
REMARK    7  A    between atoms: C_23  and  N_26 
ROOT
HETATM    1  C   UNL     1       8.804  12.663  21.241  0.00  0.00     0.067 A 
HETATM    2  N   UNL     1       8.933  13.514  22.271  0.00  0.00    -0.178 NA
HETATM    3  N   UNL     1       7.685  13.650  22.741  0.00  0.00    -0.277 N 
HETATM    4  H   UNL     1       7.537  14.266  23.532  0.00  0.00     0.189 HD
HETATM    5  C   UNL     1       7.449  12.247  21.069  0.00  0.00     0.019 A 
HETATM    6  C   UNL     1       6.743  12.964  22.027  0.00  0.00     0.065 A 
HETATM    7  C   UNL     1       6.726  11.399  20.202  0.00  0.00     0.035 C 
HETATM    8  C   UNL     1       5.308  11.345  20.259  0.00  0.00     0.066 C 
HETATM    9  C   UNL     1       4.655  12.199  21.156  0.00  0.00     0.083 C 
HETATM   10  C   UNL     1       5.349  12.950  22.113  0.00  0.00     0.069 C 
ENDROOT
BRANCH   8  11
HETATM   11  C   UNL     1       4.649  10.474  19.227  0.00  0.00     0.260 C 
HETATM   12  O   UNL     1       4.071  11.122  18.347  0.00  0.00    -0.267 OA
HETATM   13  N   UNL     1       4.691   9.052  19.251  0.00  0.00    -0.318 N 
HETATM   14  C   UNL     1       5.186   8.281  20.392  0.00  0.00     0.159 C 
BRANCH  13  15
HETATM   15  C   UNL     1       4.190   8.274  18.123  0.00  0.00     0.037 A 
HETATM   16  C   UNL     1       2.923   7.687  18.149  0.00  0.00     0.032 A 
HETATM   17  C   UNL     1       2.442   6.915  17.075  0.00  0.00     0.031 A 
HETATM   18  C   UNL     1       3.192   6.685  15.920  0.00  0.00     0.030 A 
HETATM   19  C   UNL     1       4.426   7.337  15.850  0.00  0.00     0.031 A 
HETATM   20  C   UNL     1       4.919   8.110  16.932  0.00  0.00     0.032 A 
BRANCH  18  21
HETATM   21  N   UNL     1       2.702   5.853  14.935  0.00  0.00    -0.377 N 
HETATM   22  C   UNL     1       3.420   5.476  13.708  0.00  0.00     0.149 C 
HETATM   23  C   UNL     1       3.693   3.963  13.665  0.00  0.00     0.187 C 
HETATM   24  O   UNL     1       2.501   3.191  13.885  0.00  0.00    -0.388 OA
HETATM   25  C   UNL     1       1.926   3.521  15.159  0.00  0.00     0.187 C 
HETATM   26  C   UNL     1       1.532   5.005  15.230  0.00  0.00     0.149 C 
ENDBRANCH  18  21
ENDBRANCH  13  15
ENDBRANCH   8  11
BRANCH   9  27
HETATM   27  O   UNL     1       3.309  12.445  21.124  0.00  0.00    -0.360 OA
HETATM   28  H   UNL     1       3.182  13.368  21.421  0.00  0.00     0.217 HD
ENDBRANCH   9  27
BRANCH   1  29
HETATM   29  C   UNL     1      10.005  12.345  20.407  0.00  0.00     0.062 C 
BRANCH  29  30
HETATM   30  C   UNL     1      11.224  11.949  21.246  0.00  0.00     0.006 C 
BRANCH  30  31
HETATM   31  C   UNL     1      11.207  10.466  21.615  0.00  0.00    -0.004 C 
HETATM   32  C   UNL     1      10.809  10.269  23.070  0.00  0.00     0.005 C 
ENDBRANCH  30  31
ENDBRANCH  29  30
ENDBRANCH   1  29
TORSDOF 7
ENDMDL
MODEL 9
REMARK VINA RESULT:    -6.896      2.380      3.879
REMARK INTER + INTRA:         -10.514
REMARK INTER:                  -9.517
REMARK INTRA:                  -0.998
REMARK UNBOUND:                -0.998
REMARK  7 active torsions:
REMARK  status: ('A' for Active; 'I' for Inactive)
REMARK    1  A    between atoms: C_2  and  C_3 
REMARK    2  A    between atoms: C_3  and  C_4 
REMARK    3  A    between atoms: C_4  and  C_5 
REMARK    4  A    between atoms: C_12  and  C_16 
REMARK    5  A    between atoms: C_13  and  O_15 
REMARK       I    between atoms: C_16  and  N_18 
REMARK    6  A    between atoms: N_18  and  C_20 
REMARK    7  A    between atoms: C_23  and  N_26 
ROOT
HETATM    1  C   UNL     1      10.334  14.481  24.893  0.00  0.00     0.067 A 
HETATM    2  N   UNL     1      10.168  15.206  26.010  0.00  0.00    -0.178 NA
HETATM    3  N   UNL     1       8.981  14.806  26.486  0.00  0.00    -0.277 N 
HETATM    4  H   UNL     1       8.640  15.234  27.339  0.00  0.00     0.189 HD
HETATM    5  C   UNL     1       9.234  13.598  24.671  0.00  0.00     0.019 A 
HETATM    6  C   UNL     1       8.345  13.888  25.698  0.00  0.00     0.065 A 
HETATM    7  C   UNL     1       8.856  12.631  23.714  0.00  0.00     0.035 C 
HETATM    8  C   UNL     1       7.569  12.033  23.759  0.00  0.00     0.066 C 
HETATM    9  C   UNL     1       6.674  12.475  24.740  0.00  0.00     0.083 C 
HETATM   10  C   UNL     1       7.066  13.333  25.776  0.00  0.00     0.069 C 
ENDROOT
BRANCH   8  11
HETATM   11  C   UNL     1       7.253  11.086  22.635  0.00  0.00     0.260 C 
HETATM   12  O   UNL     1       7.854  10.009  22.729  0.00  0.00    -0.267 OA
HETATM   13  N   UNL     1       6.351  11.388  21.578  0.00  0.00    -0.318 N 
HETATM   14  C   UNL     1       5.804  12.725  21.345  0.00  0.00     0.159 C 
BRANCH  13  15
HETATM   15  C   UNL     1       5.951  10.359  20.624  0.00  0.00     0.037 A 
HETATM   16  C   UNL     1       6.292  10.446  19.273  0.00  0.00     0.032 A 
HETATM   17  C   UNL     1       5.889   9.470  18.343  0.00  0.00     0.031 A 
HETATM   18  C   UNL     1       5.128   8.357  18.704  0.00  0.00     0.030 A 
HETATM   19  C   UNL     1       4.853   8.218  20.067  0.00  0.00     0.031 A 
HETATM   20  C   UNL     1       5.249   9.202  21.008  0.00  0.00     0.032 A 
BRANCH  18  21
HETATM   21  N   UNL     1       4.693   7.477  17.735  0.00  0.00    -0.377 N 
HETATM   22  C   UNL     1       4.464   6.038  17.937  0.00  0.00     0.149 C 
HETATM   23  C   UNL     1       2.985   5.674  17.727  0.00  0.00     0.187 C 
HETATM   24  O   UNL     1       2.481   6.157  16.470  0.00  0.00    -0.388 OA
HETATM   25  C   UNL     1       2.622   7.585  16.398  0.00  0.00     0.187 C 
HETATM   26  C   UNL     1       4.095   8.010  16.497  0.00  0.00     0.149 C 
ENDBRANCH  18  21
ENDBRANCH  13  15
ENDBRANCH   8  11
BRANCH   9  27
HETATM   27  O   UNL     1       5.336  12.190  24.730  0.00  0.00    -0.360 OA
HETATM   28  H   UNL     1       5.188  11.494  25.401  0.00  0.00     0.217 HD
ENDBRANCH   9  27
BRANCH   1  29
HETATM   29  C   UNL     1      11.534  14.734  24.033  0.00  0.00     0.062 C 
BRANCH  29  30
HETATM   30  C   UNL     1      11.165  15.156  22.608  0.00  0.00     0.006 C 
BRANCH  30  31
HETATM   31  C   UNL     1      10.122  16.274  22.594  0.00  0.00    -0.004 C 
HETATM   32  C   UNL     1       9.030  15.991  21.573  0.00  0.00     0.005 C 
ENDBRANCH  30  31
ENDBRANCH  29  30
ENDBRANCH   1  29
TORSDOF 7
ENDMDL
