REMARK  7 active torsions:
REMARK  status: ('A' for Active; 'I' for Inactive)
REMARK    1  A    between atoms: C_2  and  C_3 
REMARK    2  A    between atoms: C_3  and  C_4 
REMARK    3  A    between atoms: C_4  and  C_5 
REMARK    4  A    between atoms: C_12  and  C_16 
REMARK    5  A    between atoms: C_13  and  O_15 
REMARK       I    between atoms: C_16  and  N_18 
REMARK    6  A    between atoms: N_18  and  C_20 
REMARK    7  A    between atoms: C_23  and  N_26 
ROOT
HETATM    1  C   UNL     1       5.869   2.063   1.898  0.00  0.00     0.067 A 
HETATM    2  N   UNL     1       5.467   3.336   1.761  0.00  0.00    -0.178 NA
HETATM    3  N   UNL     1       5.520   3.831   3.005  0.00  0.00    -0.277 N 
HETATM    4  H   UNL     1       5.247   4.797   3.147  0.00  0.00     0.189 HD
HETATM    5  C   UNL     1       6.194   1.757   3.254  0.00  0.00     0.019 A 
HETATM    6  C   UNL     1       5.891   2.919   3.953  0.00  0.00     0.065 A 
HETATM    7  C   UNL     1       6.656   0.640   3.984  0.00  0.00     0.035 C 
HETATM    8  C   UNL     1       6.731   0.683   5.402  0.00  0.00     0.066 C 
HETATM    9  C   UNL     1       6.278   1.839   6.048  0.00  0.00     0.083 C 
HETATM   10  C   UNL     1       5.939   3.003   5.346  0.00  0.00     0.069 C 
ENDROOT
BRANCH   8  11
HETATM   11  C   UNL     1       7.153  -0.596   6.069  0.00  0.00     0.260 C 
HETATM   12  O   UNL     1       6.651  -1.599   5.549  0.00  0.00    -0.267 OA
HETATM   13  N   UNL     1       8.043  -0.652   7.177  0.00  0.00    -0.318 N 
HETATM   14  C   UNL     1       8.471   0.530   7.926  0.00  0.00     0.159 C 
BRANCH  13  15
HETATM   15  C   UNL     1       8.554  -1.932   7.657  0.00  0.00     0.037 A 
HETATM   16  C   UNL     1       8.664  -3.036   6.809  0.00  0.00     0.032 A 
HETATM   17  C   UNL     1       9.133  -4.280   7.269  0.00  0.00     0.031 A 
HETATM   18  C   UNL     1       9.518  -4.494   8.594  0.00  0.00     0.030 A 
HETATM   19  C   UNL     1       9.491  -3.374   9.429  0.00  0.00     0.031 A 
HETATM   20  C   UNL     1       9.012  -2.120   8.973  0.00  0.00     0.032 A 
BRANCH  18  21
HETATM   21  N   UNL     1       9.892  -5.756   9.007  0.00  0.00    -0.377 N 
HETATM   22  C   UNL     1      10.855  -6.047  10.080  0.00  0.00     0.149 C 
HETATM   23  C   UNL     1      10.181  -6.790  11.246  0.00  0.00     0.187 C 
HETATM   24  O   UNL     1       9.458  -7.951  10.803  0.00  0.00    -0.388 OA
HETATM   25  C   UNL     1       8.450  -7.571   9.852  0.00  0.00     0.187 C 
HETATM   26  C   UNL     1       9.070  -6.914   8.609  0.00  0.00     0.149 C 
ENDBRANCH  18  21
ENDBRANCH  13  15
ENDBRANCH   8  11
BRANCH   9  27
HETATM   27  O   UNL     1       6.041   1.912   7.394  0.00  0.00    -0.360 OA
HETATM   28  H   UNL     1       5.626   1.066   7.656  0.00  0.00     0.217 HD
ENDBRANCH   9  27
BRANCH   1  29
HETATM   29  C   UNL     1       5.848   1.161   0.703  0.00  0.00     0.062 C 
BRANCH  29  30
HETATM   30  C   UNL     1       6.745   1.660  -0.434  0.00  0.00     0.006 C 
BRANCH  30  31
HETATM   31  C   UNL     1       6.655   0.763  -1.669  0.00  0.00    -0.004 C 
HETATM   32  C   UNL     1       7.560   1.271  -2.781  0.00  0.00     0.005 C 
ENDBRANCH  30  31
ENDBRANCH  29  30
ENDBRANCH   1  29
TORSDOF 7
