MODEL 1
REMARK VINA RESULT:    -7.042      0.000      0.000
REMARK INTER + INTRA:         -10.793
REMARK INTER:                  -9.463
REMARK INTRA:                  -1.330
REMARK UNBOUND:                -1.280
REMARK  7 active torsions:
REMARK  status: ('A' for Active; 'I' for Inactive)
REMARK    1  A    between atoms: O_2  and  C_3 
REMARK    2  A    between atoms: C_6  and  C_9 
REMARK    3  A    between atoms: C_10  and  C_11 
REMARK       I    between atoms: C_11  and  N_13 
REMARK    4  A    between atoms: N_13  and  C_14 
REMARK    5  A    between atoms: C_19  and  C_20 
REMARK    6  A    between atoms: C_24  and  O_25 
REMARK    7  A    between atoms: C_27  and  O_28 
ROOT
HETATM    1  C   UNL     1       3.051   7.814  25.131  0.00  0.00     0.039 C 
HETATM    2  C   UNL     1       3.604   7.434  26.356  0.00  0.00     0.131 C 
HETATM    3  N   UNL     1       4.826   6.918  26.037  0.00  0.00    -0.271 N 
HETATM    4  H   UNL     1       5.481   6.460  26.660  0.00  0.00     0.189 HD
HETATM    5  N   UNL     1       5.178   7.044  24.759  0.00  0.00    -0.173 NA
HETATM    6  C   UNL     1       4.080   7.514  24.149  0.00  0.00     0.103 C 
ENDROOT
BRANCH   6   7
HETATM    7  C   UNL     1       4.045   7.686  22.682  0.00  0.00     0.030 A 
HETATM    8  C   UNL     1       4.045   6.550  21.853  0.00  0.00     0.043 A 
HETATM    9  C   UNL     1       4.246   6.672  20.479  0.00  0.00     0.068 A 
HETATM   10 CL   UNL     1       4.435   5.252  19.519  0.00  0.00    -0.081 Cl
HETATM   11  C   UNL     1       4.348   7.934  19.897  0.00  0.00     0.090 A 
HETATM   12  C   UNL     1       4.231   9.077  20.677  0.00  0.00     0.075 A 
HETATM   13  C   UNL     1       4.106   8.953  22.065  0.00  0.00     0.081 A 
BRANCH  11  14
HETATM   14  O   UNL     1       4.598   8.103  18.563  0.00  0.00    -0.359 OA
HETATM   15  H   UNL     1       3.735   8.101  18.106  0.00  0.00     0.217 HD
ENDBRANCH  11  14
BRANCH  13  16
HETATM   16  O   UNL     1       4.106  10.099  22.815  0.00  0.00    -0.360 OA
HETATM   17  H   UNL     1       4.621   9.962  23.625  0.00  0.00     0.217 HD
ENDBRANCH  13  16
ENDBRANCH   6   7
BRANCH   1  18
HETATM   18  C   UNL     1       1.729   8.425  24.949  0.00  0.00    -0.021 A 
HETATM   19  C   UNL     1       0.570   7.638  24.909  0.00  0.00     0.015 A 
HETATM   20  C   UNL     1      -0.706   8.215  24.830  0.00  0.00     0.037 A 
HETATM   21  C   UNL     1      -0.854   9.599  24.847  0.00  0.00     0.068 A 
HETATM   22  C   UNL     1       0.289  10.395  24.891  0.00  0.00     0.037 A 
HETATM   23  C   UNL     1       1.567   9.818  24.906  0.00  0.00     0.015 A 
BRANCH  21  24
HETATM   24  O   UNL     1      -2.041  10.279  24.832  0.00  0.00    -0.356 OA
HETATM   25  C   UNL     1      -2.191  11.277  23.829  0.00  0.00     0.210 C 
ENDBRANCH  21  24
ENDBRANCH   1  18
BRANCH   2  26
HETATM   26  C   UNL     1       3.082   7.459  27.706  0.00  0.00     0.270 C 
HETATM   27  O   UNL     1       2.840   6.450  28.356  0.00  0.00    -0.266 OA
HETATM   28  N   UNL     1       2.837   8.720  28.235  0.00  0.00    -0.356 N 
HETATM   29  H   UNL     1       2.864   9.527  27.633  0.00  0.00     0.162 HD
BRANCH  28  30
HETATM   30  C   UNL     1       2.091   8.825  29.478  0.00  0.00     0.118 C 
HETATM   31  C   UNL     1       0.590   8.891  29.263  0.00  0.00     0.026 C 
ENDBRANCH  28  30
ENDBRANCH   2  26
TORSDOF 7
ENDMDL
MODEL 2
REMARK VINA RESULT:    -6.984      3.645      7.409
REMARK INTER + INTRA:         -10.714
REMARK INTER:                  -9.529
REMARK INTRA:                  -1.185
REMARK UNBOUND:                -1.280
REMARK  7 active torsions:
REMARK  status: ('A' for Active; 'I' for Inactive)
REMARK    1  A    between atoms: O_2  and  C_3 
REMARK    2  A    between atoms: C_6  and  C_9 
REMARK    3  A    between atoms: C_10  and  C_11 
REMARK       I    between atoms: C_11  and  N_13 
REMARK    4  A    between atoms: N_13  and  C_14 
REMARK    5  A    between atoms: C_19  and  C_20 
REMARK    6  A    between atoms: C_24  and  O_25 
REMARK    7  A    between atoms: C_27  and  O_28 
ROOT
HETATM    1  C   UNL     1      -0.068   9.711  26.420  0.00  0.00     0.039 C 
HETATM    2  C   UNL     1      -0.964  10.763  26.215  0.00  0.00     0.131 C 
HETATM    3  N   UNL     1      -1.776  10.742  27.312  0.00  0.00    -0.271 N 
HETATM    4  H   UNL     1      -2.603  11.305  27.474  0.00  0.00     0.189 HD
HETATM    5  N   UNL     1      -1.422   9.879  28.263  0.00  0.00    -0.173 NA
HETATM    6  C   UNL     1      -0.425   9.165  27.720  0.00  0.00     0.103 C 
ENDROOT
BRANCH   6   7
HETATM    7  C   UNL     1       0.167   8.021  28.443  0.00  0.00     0.030 A 
HETATM    8  C   UNL     1       1.143   8.256  29.427  0.00  0.00     0.043 A 
HETATM    9  C   UNL     1       1.883   7.202  29.960  0.00  0.00     0.068 A 
HETATM   10 CL   UNL     1       3.202   7.540  31.019  0.00  0.00    -0.081 Cl
HETATM   11  C   UNL     1       1.593   5.889  29.595  0.00  0.00     0.090 A 
HETATM   12  C   UNL     1       0.553   5.620  28.715  0.00  0.00     0.075 A 
HETATM   13  C   UNL     1      -0.139   6.681  28.122  0.00  0.00     0.081 A 
BRANCH  11  14
HETATM   14  O   UNL     1       2.325   4.827  30.050  0.00  0.00    -0.359 OA
HETATM   15  H   UNL     1       1.933   4.550  30.900  0.00  0.00     0.217 HD
ENDBRANCH  11  14
BRANCH  13  16
HETATM   16  O   UNL     1      -1.083   6.385  27.175  0.00  0.00    -0.360 OA
HETATM   17  H   UNL     1      -1.478   5.520  27.365  0.00  0.00     0.217 HD
ENDBRANCH  13  16
ENDBRANCH   6   7
BRANCH   1  18
HETATM   18  C   UNL     1       1.011   9.323  25.504  0.00  0.00    -0.021 A 
HETATM   19  C   UNL     1       2.042  10.218  25.185  0.00  0.00     0.015 A 
HETATM   20  C   UNL     1       3.128   9.830  24.387  0.00  0.00     0.037 A 
HETATM   21  C   UNL     1       3.235   8.519  23.935  0.00  0.00     0.068 A 
HETATM   22  C   UNL     1       2.221   7.615  24.247  0.00  0.00     0.037 A 
HETATM   23  C   UNL     1       1.104   8.020  24.993  0.00  0.00     0.015 A 
BRANCH  21  24
HETATM   24  O   UNL     1       4.269   8.005  23.201  0.00  0.00    -0.356 OA
HETATM   25  C   UNL     1       4.063   7.901  21.796  0.00  0.00     0.210 C 
ENDBRANCH  21  24
ENDBRANCH   1  18
BRANCH   2  26
HETATM   26  C   UNL     1      -1.143  11.684  25.114  0.00  0.00     0.270 C 
HETATM   27  O   UNL     1      -0.436  12.667  24.932  0.00  0.00    -0.266 OA
HETATM   28  N   UNL     1      -2.204  11.405  24.261  0.00  0.00    -0.356 N 
HETATM   29  H   UNL     1      -2.884  10.709  24.521  0.00  0.00     0.162 HD
BRANCH  28  30
HETATM   30  C   UNL     1      -2.599  12.407  23.283  0.00  0.00     0.118 C 
HETATM   31  C   UNL     1      -1.894  12.242  21.950  0.00  0.00     0.026 C 
ENDBRANCH  28  30
ENDBRANCH   2  26
TORSDOF 7
ENDMDL
MODEL 3
REMARK VINA RESULT:    -6.825      1.759      1.994
REMARK INTER + INTRA:         -10.499
REMARK INTER:                  -9.126
REMARK INTRA:                  -1.372
REMARK UNBOUND:                -1.280
REMARK  7 active torsions:
REMARK  status: ('A' for Active; 'I' for Inactive)
REMARK    1  A    between atoms: O_2  and  C_3 
REMARK    2  A    between atoms: C_6  and  C_9 
REMARK    3  A    between atoms: C_10  and  C_11 
REMARK       I    between atoms: C_11  and  N_13 
REMARK    4  A    between atoms: N_13  and  C_14 
REMARK    5  A    between atoms: C_19  and  C_20 
REMARK    6  A    between atoms: C_24  and  O_25 
REMARK    7  A    between atoms: C_27  and  O_28 
ROOT
HETATM    1  C   UNL     1       3.938   7.044  24.741  0.00  0.00     0.039 C 
HETATM    2  C   UNL     1       4.360   6.392  25.902  0.00  0.00     0.131 C 
HETATM    3  N   UNL     1       5.284   5.486  25.471  0.00  0.00    -0.271 N 
HETATM    4  H   UNL     1       5.746   4.770  26.021  0.00  0.00     0.189 HD
HETATM    5  N   UNL     1       5.602   5.570  24.181  0.00  0.00    -0.173 NA
HETATM    6  C   UNL     1       4.736   6.460  23.675  0.00  0.00     0.103 C 
ENDROOT
BRANCH   6   7
HETATM    7  C   UNL     1       4.704   6.745  22.226  0.00  0.00     0.030 A 
HETATM    8  C   UNL     1       5.809   7.367  21.619  0.00  0.00     0.043 A 
HETATM    9  C   UNL     1       5.723   7.857  20.317  0.00  0.00     0.068 A 
HETATM   10 CL   UNL     1       7.025   8.784  19.671  0.00  0.00    -0.081 Cl
HETATM   11  C   UNL     1       4.569   7.645  19.565  0.00  0.00     0.090 A 
HETATM   12  C   UNL     1       3.507   6.928  20.099  0.00  0.00     0.075 A 
HETATM   13  C   UNL     1       3.563   6.503  21.431  0.00  0.00     0.081 A 
BRANCH  11  14
HETATM   14  O   UNL     1       4.418   8.151  18.304  0.00  0.00    -0.359 OA
HETATM   15  H   UNL     1       4.987   7.624  17.711  0.00  0.00     0.217 HD
ENDBRANCH  11  14
BRANCH  13  16
HETATM   16  O   UNL     1       2.454   5.898  21.960  0.00  0.00    -0.360 OA
HETATM   17  H   UNL     1       2.248   6.288  22.823  0.00  0.00     0.217 HD
ENDBRANCH  13  16
ENDBRANCH   6   7
BRANCH   1  18
HETATM   18  C   UNL     1       2.935   8.115  24.685  0.00  0.00    -0.021 A 
HETATM   19  C   UNL     1       1.583   7.850  24.941  0.00  0.00     0.015 A 
HETATM   20  C   UNL     1       0.630   8.879  24.983  0.00  0.00     0.037 A 
HETATM   21  C   UNL     1       1.020  10.205  24.826  0.00  0.00     0.068 A 
HETATM   22  C   UNL     1       2.363  10.485  24.575  0.00  0.00     0.037 A 
HETATM   23  C   UNL     1       3.304   9.451  24.470  0.00  0.00     0.015 A 
BRANCH  21  24
HETATM   24  O   UNL     1       0.199  11.296  24.902  0.00  0.00    -0.356 OA
HETATM   25  C   UNL     1      -1.078  11.178  24.285  0.00  0.00     0.210 C 
ENDBRANCH  21  24
ENDBRANCH   1  18
BRANCH   2  26
HETATM   26  C   UNL     1       3.945   6.505  27.284  0.00  0.00     0.270 C 
HETATM   27  O   UNL     1       3.471   5.577  27.925  0.00  0.00    -0.266 OA
HETATM   28  N   UNL     1       4.091   7.762  27.858  0.00  0.00    -0.356 N 
HETATM   29  H   UNL     1       4.306   8.555  27.274  0.00  0.00     0.162 HD
BRANCH  28  30
HETATM   30  C   UNL     1       3.477   8.019  29.150  0.00  0.00     0.118 C 
HETATM   31  C   UNL     1       2.177   8.794  29.044  0.00  0.00     0.026 C 
ENDBRANCH  28  30
ENDBRANCH   2  26
TORSDOF 7
ENDMDL
MODEL 4
REMARK VINA RESULT:    -6.729      3.252      5.990
REMARK INTER + INTRA:         -10.369
REMARK INTER:                  -8.968
REMARK INTRA:                  -1.401
REMARK UNBOUND:                -1.280
REMARK  7 active torsions:
REMARK  status: ('A' for Active; 'I' for Inactive)
REMARK    1  A    between atoms: O_2  and  C_3 
REMARK    2  A    between atoms: C_6  and  C_9 
REMARK    3  A    between atoms: C_10  and  C_11 
REMARK       I    between atoms: C_11  and  N_13 
REMARK    4  A    between atoms: N_13  and  C_14 
REMARK    5  A    between atoms: C_19  and  C_20 
REMARK    6  A    between atoms: C_24  and  O_25 
REMARK    7  A    between atoms: C_27  and  O_28 
ROOT
HETATM    1  C   UNL     1       0.163   9.445  26.843  0.00  0.00     0.039 C 
HETATM    2  C   UNL     1      -0.056   9.190  28.199  0.00  0.00     0.131 C 
HETATM    3  N   UNL     1      -1.020  10.083  28.566  0.00  0.00    -0.271 N 
HETATM    4  H   UNL     1      -1.375  10.255  29.500  0.00  0.00     0.189 HD
HETATM    5  N   UNL     1      -1.542  10.796  27.570  0.00  0.00    -0.173 NA
HETATM    6  C   UNL     1      -0.784  10.495  26.504  0.00  0.00     0.103 C 
ENDROOT
BRANCH   6   7
HETATM    7  C   UNL     1      -0.989  11.182  25.212  0.00  0.00     0.030 A 
HETATM    8  C   UNL     1      -0.164  12.266  24.867  0.00  0.00     0.043 A 
HETATM    9  C   UNL     1      -0.474  13.077  23.776  0.00  0.00     0.068 A 
HETATM   10 CL   UNL     1       0.445  14.508  23.494  0.00  0.00    -0.081 Cl
HETATM   11  C   UNL     1      -1.553  12.759  22.954  0.00  0.00     0.090 A 
HETATM   12  C   UNL     1      -2.314  11.625  23.203  0.00  0.00     0.075 A 
HETATM   13  C   UNL     1      -2.050  10.855  24.341  0.00  0.00     0.081 A 
BRANCH  11  14
HETATM   14  O   UNL     1      -1.927  13.553  21.905  0.00  0.00    -0.359 OA
HETATM   15  H   UNL     1      -1.751  14.477  22.165  0.00  0.00     0.217 HD
ENDBRANCH  11  14
BRANCH  13  16
HETATM   16  O   UNL     1      -2.889   9.808  24.618  0.00  0.00    -0.360 OA
HETATM   17  H   UNL     1      -2.426   8.969  24.469  0.00  0.00     0.217 HD
ENDBRANCH  13  16
ENDBRANCH   6   7
BRANCH   1  18
HETATM   18  C   UNL     1       1.123   8.736  25.989  0.00  0.00    -0.021 A 
HETATM   19  C   UNL     1       0.866   7.431  25.546  0.00  0.00     0.015 A 
HETATM   20  C   UNL     1       1.729   6.777  24.655  0.00  0.00     0.037 A 
HETATM   21  C   UNL     1       2.842   7.437  24.142  0.00  0.00     0.068 A 
HETATM   22  C   UNL     1       3.108   8.736  24.569  0.00  0.00     0.037 A 
HETATM   23  C   UNL     1       2.279   9.367  25.509  0.00  0.00     0.015 A 
BRANCH  21  24
HETATM   24  O   UNL     1       3.723   6.930  23.227  0.00  0.00    -0.356 OA
HETATM   25  C   UNL     1       4.260   7.849  22.282  0.00  0.00     0.210 C 
ENDBRANCH  21  24
ENDBRANCH   1  18
BRANCH   2  26
HETATM   26  C   UNL     1       0.572   8.275  29.128  0.00  0.00     0.270 C 
HETATM   27  O   UNL     1       0.224   7.110  29.271  0.00  0.00    -0.266 OA
HETATM   28  N   UNL     1       1.604   8.806  29.892  0.00  0.00    -0.356 N 
HETATM   29  H   UNL     1       1.757   9.802  29.900  0.00  0.00     0.162 HD
BRANCH  28  30
HETATM   30  C   UNL     1       2.118   8.032  31.010  0.00  0.00     0.118 C 
HETATM   31  C   UNL     1       1.534   8.460  32.344  0.00  0.00     0.026 C 
ENDBRANCH  28  30
ENDBRANCH   2  26
TORSDOF 7
ENDMDL
MODEL 5
REMARK VINA RESULT:    -6.695      2.652      5.925
REMARK INTER + INTRA:         -10.323
REMARK INTER:                  -8.889
REMARK INTRA:                  -1.433
REMARK UNBOUND:                -1.280
REMARK  7 active torsions:
REMARK  status: ('A' for Active; 'I' for Inactive)
REMARK    1  A    between atoms: O_2  and  C_3 
REMARK    2  A    between atoms: C_6  and  C_9 
REMARK    3  A    between atoms: C_10  and  C_11 
REMARK       I    between atoms: C_11  and  N_13 
REMARK    4  A    between atoms: N_13  and  C_14 
REMARK    5  A    between atoms: C_19  and  C_20 
REMARK    6  A    between atoms: C_24  and  O_25 
REMARK    7  A    between atoms: C_27  and  O_28 
ROOT
HETATM    1  C   UNL     1       2.384   8.196  25.357  0.00  0.00     0.039 C 
HETATM    2  C   UNL     1       2.683   7.373  26.445  0.00  0.00     0.131 C 
HETATM    3  N   UNL     1       1.740   7.683  27.381  0.00  0.00    -0.271 N 
HETATM    4  H   UNL     1       1.690   7.349  28.337  0.00  0.00     0.189 HD
HETATM    5  N   UNL     1       0.787   8.518  26.971  0.00  0.00    -0.173 NA
HETATM    6  C   UNL     1       1.191   8.924  25.758  0.00  0.00     0.103 C 
ENDROOT
BRANCH   6   7
HETATM    7  C   UNL     1       0.436   9.955  25.016  0.00  0.00     0.030 A 
HETATM    8  C   UNL     1       0.982  11.243  24.874  0.00  0.00     0.043 A 
HETATM    9  C   UNL     1       0.206  12.295  24.389  0.00  0.00     0.068 A 
HETATM   10 CL   UNL     1       0.842  13.898  24.408  0.00  0.00    -0.081 Cl
HETATM   11  C   UNL     1      -1.092  12.058  23.944  0.00  0.00     0.090 A 
HETATM   12  C   UNL     1      -1.616  10.772  23.962  0.00  0.00     0.075 A 
HETATM   13  C   UNL     1      -0.865   9.731  24.519  0.00  0.00     0.081 A 
BRANCH  11  14
HETATM   14  O   UNL     1      -1.909  13.065  23.510  0.00  0.00    -0.359 OA
HETATM   15  H   UNL     1      -2.388  13.404  24.290  0.00  0.00     0.217 HD
ENDBRANCH  11  14
BRANCH  13  16
HETATM   16  O   UNL     1      -1.453   8.498  24.623  0.00  0.00    -0.360 OA
HETATM   17  H   UNL     1      -1.173   8.069  25.446  0.00  0.00     0.217 HD
ENDBRANCH  13  16
ENDBRANCH   6   7
BRANCH   1  18
HETATM   18  C   UNL     1       3.125   8.234  24.090  0.00  0.00    -0.021 A 
HETATM   19  C   UNL     1       3.111   7.140  23.215  0.00  0.00     0.015 A 
HETATM   20  C   UNL     1       3.737   7.197  21.961  0.00  0.00     0.037 A 
HETATM   21  C   UNL     1       4.343   8.373  21.531  0.00  0.00     0.068 A 
HETATM   22  C   UNL     1       4.360   9.472  22.388  0.00  0.00     0.037 A 
HETATM   23  C   UNL     1       3.790   9.394  23.667  0.00  0.00     0.015 A 
BRANCH  21  24
HETATM   24  O   UNL     1       4.934   8.572  20.313  0.00  0.00    -0.356 OA
HETATM   25  C   UNL     1       4.205   8.135  19.172  0.00  0.00     0.210 C 
ENDBRANCH  21  24
ENDBRANCH   1  18
BRANCH   2  26
HETATM   26  C   UNL     1       3.752   6.426  26.680  0.00  0.00     0.270 C 
HETATM   27  O   UNL     1       4.700   6.647  27.422  0.00  0.00    -0.266 OA
HETATM   28  N   UNL     1       3.662   5.228  25.982  0.00  0.00    -0.356 N 
HETATM   29  H   UNL     1       2.985   5.132  25.241  0.00  0.00     0.162 HD
BRANCH  28  30
HETATM   30  C   UNL     1       4.808   4.334  25.973  0.00  0.00     0.118 C 
HETATM   31  C   UNL     1       5.696   4.522  24.756  0.00  0.00     0.026 C 
ENDBRANCH  28  30
ENDBRANCH   2  26
TORSDOF 7
ENDMDL
MODEL 6
REMARK VINA RESULT:    -6.681      2.958      6.493
REMARK INTER + INTRA:         -10.305
REMARK INTER:                  -9.250
REMARK INTRA:                  -1.055
REMARK UNBOUND:                -1.280
REMARK  7 active torsions:
REMARK  status: ('A' for Active; 'I' for Inactive)
REMARK    1  A    between atoms: O_2  and  C_3 
REMARK    2  A    between atoms: C_6  and  C_9 
REMARK    3  A    between atoms: C_10  and  C_11 
REMARK       I    between atoms: C_11  and  N_13 
REMARK    4  A    between atoms: N_13  and  C_14 
REMARK    5  A    between atoms: C_19  and  C_20 
REMARK    6  A    between atoms: C_24  and  O_25 
REMARK    7  A    between atoms: C_27  and  O_28 
ROOT
HETATM    1  C   UNL     1       2.399   8.411  25.268  0.00  0.00     0.039 C 
HETATM    2  C   UNL     1       3.527   8.332  24.448  0.00  0.00     0.131 C 
HETATM    3  N   UNL     1       4.339   7.425  25.066  0.00  0.00    -0.271 N 
HETATM    4  H   UNL     1       5.287   7.173  24.808  0.00  0.00     0.189 HD
HETATM    5  N   UNL     1       3.805   6.813  26.121  0.00  0.00    -0.173 NA
HETATM    6  C   UNL     1       2.643   7.450  26.331  0.00  0.00     0.103 C 
ENDROOT
BRANCH   6   7
HETATM    7  C   UNL     1       1.801   7.120  27.499  0.00  0.00     0.030 A 
HETATM    8  C   UNL     1       1.835   7.952  28.633  0.00  0.00     0.043 A 
HETATM    9  C   UNL     1       1.239   7.550  29.827  0.00  0.00     0.068 A 
HETATM   10 CL   UNL     1       1.462   8.501  31.249  0.00  0.00    -0.081 Cl
HETATM   11  C   UNL     1       0.515   6.361  29.882  0.00  0.00     0.090 A 
HETATM   12  C   UNL     1       0.365   5.579  28.745  0.00  0.00     0.075 A 
HETATM   13  C   UNL     1       1.026   5.943  27.567  0.00  0.00     0.081 A 
BRANCH  11  14
HETATM   14  O   UNL     1      -0.041   5.900  31.043  0.00  0.00    -0.359 OA
HETATM   15  H   UNL     1       0.684   5.795  31.689  0.00  0.00     0.217 HD
ENDBRANCH  11  14
BRANCH  13  16
HETATM   16  O   UNL     1       0.949   5.091  26.497  0.00  0.00    -0.360 OA
HETATM   17  H   UNL     1       1.840   4.899  26.165  0.00  0.00     0.217 HD
ENDBRANCH  13  16
ENDBRANCH   6   7
BRANCH   1  18
HETATM   18  C   UNL     1       1.231   9.266  25.025  0.00  0.00    -0.021 A 
HETATM   19  C   UNL     1      -0.053   8.716  24.915  0.00  0.00     0.015 A 
HETATM   20  C   UNL     1      -1.189   9.528  24.777  0.00  0.00     0.037 A 
HETATM   21  C   UNL     1      -1.069  10.914  24.804  0.00  0.00     0.068 A 
HETATM   22  C   UNL     1       0.201  11.476  24.917  0.00  0.00     0.037 A 
HETATM   23  C   UNL     1       1.342  10.663  24.992  0.00  0.00     0.015 A 
BRANCH  21  24
HETATM   24  O   UNL     1      -2.101  11.809  24.736  0.00  0.00    -0.356 OA
HETATM   25  C   UNL     1      -2.556  12.160  23.434  0.00  0.00     0.210 C 
ENDBRANCH  21  24
ENDBRANCH   1  18
BRANCH   2  26
HETATM   26  C   UNL     1       3.903   9.041  23.244  0.00  0.00     0.270 C 
HETATM   27  O   UNL     1       3.904  10.261  23.150  0.00  0.00    -0.266 OA
HETATM   28  N   UNL     1       4.250   8.245  22.159  0.00  0.00    -0.356 N 
HETATM   29  H   UNL     1       4.070   7.254  22.189  0.00  0.00     0.162 HD
BRANCH  28  30
HETATM   30  C   UNL     1       4.401   8.867  20.854  0.00  0.00     0.118 C 
HETATM   31  C   UNL     1       3.652   8.132  19.757  0.00  0.00     0.026 C 
ENDBRANCH  28  30
ENDBRANCH   2  26
TORSDOF 7
ENDMDL
MODEL 7
REMARK VINA RESULT:    -6.513      3.895      8.105
REMARK INTER + INTRA:         -10.077
REMARK INTER:                  -8.676
REMARK INTRA:                  -1.402
REMARK UNBOUND:                -1.280
REMARK  7 active torsions:
REMARK  status: ('A' for Active; 'I' for Inactive)
REMARK    1  A    between atoms: O_2  and  C_3 
REMARK    2  A    between atoms: C_6  and  C_9 
REMARK    3  A    between atoms: C_10  and  C_11 
REMARK       I    between atoms: C_11  and  N_13 
REMARK    4  A    between atoms: N_13  and  C_14 
REMARK    5  A    between atoms: C_19  and  C_20 
REMARK    6  A    between atoms: C_24  and  O_25 
REMARK    7  A    between atoms: C_27  and  O_28 
ROOT
HETATM    1  C   UNL     1       3.752   6.583  20.273  0.00  0.00     0.039 C 
HETATM    2  C   UNL     1       3.536   7.344  19.121  0.00  0.00     0.131 C 
HETATM    3  N   UNL     1       3.633   8.639  19.542  0.00  0.00    -0.271 N 
HETATM    4  H   UNL     1       3.448   9.476  19.001  0.00  0.00     0.189 HD
HETATM    5  N   UNL     1       4.018   8.797  20.807  0.00  0.00    -0.173 NA
HETATM    6  C   UNL     1       4.021   7.556  21.318  0.00  0.00     0.103 C 
ENDROOT
BRANCH   6   7
HETATM    7  C   UNL     1       4.296   7.331  22.752  0.00  0.00     0.030 A 
HETATM    8  C   UNL     1       5.251   6.370  23.129  0.00  0.00     0.043 A 
HETATM    9  C   UNL     1       5.368   5.968  24.459  0.00  0.00     0.068 A 
HETATM   10 CL   UNL     1       6.409   4.654  24.861  0.00  0.00    -0.081 Cl
HETATM   11  C   UNL     1       4.607   6.590  25.447  0.00  0.00     0.090 A 
HETATM   12  C   UNL     1       3.742   7.626  25.117  0.00  0.00     0.075 A 
HETATM   13  C   UNL     1       3.569   7.976  23.774  0.00  0.00     0.081 A 
BRANCH  11  14
HETATM   14  O   UNL     1       4.649   6.195  26.755  0.00  0.00    -0.359 OA
HETATM   15  H   UNL     1       3.727   6.047  27.041  0.00  0.00     0.217 HD
ENDBRANCH  11  14
BRANCH  13  16
HETATM   16  O   UNL     1       2.627   8.924  23.473  0.00  0.00    -0.360 OA
HETATM   17  H   UNL     1       3.019   9.809  23.538  0.00  0.00     0.217 HD
ENDBRANCH  13  16
ENDBRANCH   6   7
BRANCH   1  18
HETATM   18  C   UNL     1       3.744   5.116  20.335  0.00  0.00    -0.021 A 
HETATM   19  C   UNL     1       2.600   4.419  20.744  0.00  0.00     0.015 A 
HETATM   20  C   UNL     1       2.549   3.017  20.719  0.00  0.00     0.037 A 
HETATM   21  C   UNL     1       3.623   2.283  20.227  0.00  0.00     0.068 A 
HETATM   22  C   UNL     1       4.767   2.963  19.811  0.00  0.00     0.037 A 
HETATM   23  C   UNL     1       4.841   4.361  19.896  0.00  0.00     0.015 A 
BRANCH  21  24
HETATM   24  O   UNL     1       3.672   0.922  20.098  0.00  0.00    -0.356 OA
HETATM   25  C   UNL     1       4.541   0.228  20.987  0.00  0.00     0.210 C 
ENDBRANCH  21  24
ENDBRANCH   1  18
BRANCH   2  26
HETATM   26  C   UNL     1       3.207   6.975  17.761  0.00  0.00     0.270 C 
HETATM   27  O   UNL     1       3.969   6.366  17.022  0.00  0.00    -0.266 OA
HETATM   28  N   UNL     1       1.955   7.380  17.313  0.00  0.00    -0.356 N 
HETATM   29  H   UNL     1       1.417   8.033  17.860  0.00  0.00     0.162 HD
BRANCH  28  30
HETATM   30  C   UNL     1       1.647   7.265  15.897  0.00  0.00     0.118 C 
HETATM   31  C   UNL     1       0.575   6.231  15.606  0.00  0.00     0.026 C 
ENDBRANCH  28  30
ENDBRANCH   2  26
TORSDOF 7
ENDMDL
MODEL 8
REMARK VINA RESULT:    -6.455      3.244      7.029
REMARK INTER + INTRA:          -9.999
REMARK INTER:                  -8.792
REMARK INTRA:                  -1.207
REMARK UNBOUND:                -1.280
REMARK  7 active torsions:
REMARK  status: ('A' for Active; 'I' for Inactive)
REMARK    1  A    between atoms: O_2  and  C_3 
REMARK    2  A    between atoms: C_6  and  C_9 
REMARK    3  A    between atoms: C_10  and  C_11 
REMARK       I    between atoms: C_11  and  N_13 
REMARK    4  A    between atoms: N_13  and  C_14 
REMARK    5  A    between atoms: C_19  and  C_20 
REMARK    6  A    between atoms: C_24  and  O_25 
REMARK    7  A    between atoms: C_27  and  O_28 
ROOT
HETATM    1  C   UNL     1       0.453   9.261  26.675  0.00  0.00     0.039 C 
HETATM    2  C   UNL     1      -0.562  10.221  26.673  0.00  0.00     0.131 C 
HETATM    3  N   UNL     1      -1.190  10.060  27.874  0.00  0.00    -0.271 N 
HETATM    4  H   UNL     1      -2.033  10.523  28.193  0.00  0.00     0.189 HD
HETATM    5  N   UNL     1      -0.611   9.194  28.705  0.00  0.00    -0.173 NA
HETATM    6  C   UNL     1       0.356   8.617  27.975  0.00  0.00     0.103 C 
ENDROOT
BRANCH   6   7
HETATM    7  C   UNL     1       1.160   7.509  28.527  0.00  0.00     0.030 A 
HETATM    8  C   UNL     1       0.961   6.203  28.044  0.00  0.00     0.043 A 
HETATM    9  C   UNL     1       1.529   5.109  28.697  0.00  0.00     0.068 A 
HETATM   10 CL   UNL     1       1.111   3.513  28.198  0.00  0.00    -0.081 Cl
HETATM   11  C   UNL     1       2.383   5.308  29.779  0.00  0.00     0.090 A 
HETATM   12  C   UNL     1       2.692   6.593  30.203  0.00  0.00     0.075 A 
HETATM   13  C   UNL     1       2.063   7.687  29.597  0.00  0.00     0.081 A 
BRANCH  11  14
HETATM   14  O   UNL     1       2.921   4.266  30.483  0.00  0.00    -0.359 OA
HETATM   15  H   UNL     1       2.973   4.545  31.417  0.00  0.00     0.217 HD
ENDBRANCH  11  14
BRANCH  13  16
HETATM   16  O   UNL     1       2.304   8.934  30.111  0.00  0.00    -0.360 OA
HETATM   17  H   UNL     1       1.467   9.348  30.371  0.00  0.00     0.217 HD
ENDBRANCH  13  16
ENDBRANCH   6   7
BRANCH   1  18
HETATM   18  C   UNL     1       1.411   9.036  25.585  0.00  0.00    -0.021 A 
HETATM   19  C   UNL     1       2.338  10.023  25.226  0.00  0.00     0.015 A 
HETATM   20  C   UNL     1       3.319   9.787  24.251  0.00  0.00     0.037 A 
HETATM   21  C   UNL     1       3.431   8.535  23.655  0.00  0.00     0.068 A 
HETATM   22  C   UNL     1       2.519   7.541  24.006  0.00  0.00     0.037 A 
HETATM   23  C   UNL     1       1.499   7.797  24.934  0.00  0.00     0.015 A 
BRANCH  21  24
HETATM   24  O   UNL     1       4.376   8.165  22.738  0.00  0.00    -0.356 OA
HETATM   25  C   UNL     1       4.397   8.891  21.515  0.00  0.00     0.210 C 
ENDBRANCH  21  24
ENDBRANCH   1  18
BRANCH   2  26
HETATM   26  C   UNL     1      -0.997  11.171  25.672  0.00  0.00     0.270 C 
HETATM   27  O   UNL     1      -0.590  12.324  25.611  0.00  0.00    -0.266 OA
HETATM   28  N   UNL     1      -1.948  10.705  24.771  0.00  0.00    -0.356 N 
HETATM   29  H   UNL     1      -2.407   9.825  24.942  0.00  0.00     0.162 HD
BRANCH  28  30
HETATM   30  C   UNL     1      -2.611  11.659  23.898  0.00  0.00     0.118 C 
HETATM   31  C   UNL     1      -1.840  11.926  22.619  0.00  0.00     0.026 C 
ENDBRANCH  28  30
ENDBRANCH   2  26
TORSDOF 7
ENDMDL
MODEL 9
REMARK VINA RESULT:    -6.354      3.021      4.980
REMARK INTER + INTRA:          -9.863
REMARK INTER:                  -8.583
REMARK INTRA:                  -1.280
REMARK UNBOUND:                -1.280
REMARK  7 active torsions:
REMARK  status: ('A' for Active; 'I' for Inactive)
REMARK    1  A    between atoms: O_2  and  C_3 
REMARK    2  A    between atoms: C_6  and  C_9 
REMARK    3  A    between atoms: C_10  and  C_11 
REMARK       I    between atoms: C_11  and  N_13 
REMARK    4  A    between atoms: N_13  and  C_14 
REMARK    5  A    between atoms: C_19  and  C_20 
REMARK    6  A    between atoms: C_24  and  O_25 
REMARK    7  A    between atoms: C_27  and  O_28 
ROOT
HETATM    1  C   UNL     1       3.671   6.878  24.446  0.00  0.00     0.039 C 
HETATM    2  C   UNL     1       3.196   7.752  25.427  0.00  0.00     0.131 C 
HETATM    3  N   UNL     1       3.083   8.954  24.791  0.00  0.00    -0.271 N 
HETATM    4  H   UNL     1       2.850   9.850  25.206  0.00  0.00     0.189 HD
HETATM    5  N   UNL     1       3.304   8.924  23.478  0.00  0.00    -0.173 NA
HETATM    6  C   UNL     1       3.751   7.682  23.238  0.00  0.00     0.103 C 
ENDROOT
BRANCH   6   7
HETATM    7  C   UNL     1       4.212   7.292  21.890  0.00  0.00     0.030 A 
HETATM    8  C   UNL     1       5.367   7.889  21.355  0.00  0.00     0.043 A 
HETATM    9  C   UNL     1       5.697   7.721  20.010  0.00  0.00     0.068 A 
HETATM   10 CL   UNL     1       7.007   8.618  19.339  0.00  0.00    -0.081 Cl
HETATM   11  C   UNL     1       4.937   6.875  19.205  0.00  0.00     0.090 A 
HETATM   12  C   UNL     1       3.860   6.180  19.738  0.00  0.00     0.075 A 
HETATM   13  C   UNL     1       3.484   6.407  21.066  0.00  0.00     0.081 A 
BRANCH  11  14
HETATM   14  O   UNL     1       5.189   6.720  17.870  0.00  0.00    -0.359 OA
HETATM   15  H   UNL     1       4.373   6.376  17.460  0.00  0.00     0.217 HD
ENDBRANCH  11  14
BRANCH  13  16
HETATM   16  O   UNL     1       2.351   5.790  21.528  0.00  0.00    -0.360 OA
HETATM   17  H   UNL     1       2.071   5.106  20.901  0.00  0.00     0.217 HD
ENDBRANCH  13  16
ENDBRANCH   6   7
BRANCH   1  18
HETATM   18  C   UNL     1       3.959   5.453  24.647  0.00  0.00    -0.021 A 
HETATM   19  C   UNL     1       2.922   4.525  24.820  0.00  0.00     0.015 A 
HETATM   20  C   UNL     1       3.179   3.150  24.918  0.00  0.00     0.037 A 
HETATM   21  C   UNL     1       4.477   2.666  24.788  0.00  0.00     0.068 A 
HETATM   22  C   UNL     1       5.518   3.575  24.611  0.00  0.00     0.037 A 
HETATM   23  C   UNL     1       5.268   4.955  24.576  0.00  0.00     0.015 A 
BRANCH  21  24
HETATM   24  O   UNL     1       4.847   1.349  24.808  0.00  0.00    -0.356 OA
HETATM   25  C   UNL     1       5.668   0.901  23.735  0.00  0.00     0.210 C 
ENDBRANCH  21  24
ENDBRANCH   1  18
BRANCH   2  26
HETATM   26  C   UNL     1       2.919   7.572  26.836  0.00  0.00     0.270 C 
HETATM   27  O   UNL     1       1.789   7.477  27.297  0.00  0.00    -0.266 OA
HETATM   28  N   UNL     1       4.030   7.538  27.670  0.00  0.00    -0.356 N 
HETATM   29  H   UNL     1       4.934   7.800  27.308  0.00  0.00     0.162 HD
BRANCH  28  30
HETATM   30  C   UNL     1       3.830   7.606  29.108  0.00  0.00     0.118 C 
HETATM   31  C   UNL     1       3.875   9.025  29.645  0.00  0.00     0.026 C 
ENDBRANCH  28  30
ENDBRANCH   2  26
TORSDOF 7
ENDMDL
