MODEL 1
REMARK VINA RESULT:    -9.918      0.000      0.000
REMARK INTER + INTRA:         -14.813
REMARK INTER:                 -12.858
REMARK INTRA:                  -1.955
REMARK UNBOUND:                -1.416
REMARK  7 active torsions:
REMARK  status: ('A' for Active; 'I' for Inactive)
REMARK    1  A    between atoms: C_7  and  N_8 
REMARK    2  A    between atoms: C_14  and  C_15 
REMARK    3  A    between atoms: C_16  and  O_17 
REMARK    4  A    between atoms: C_19  and  O_20 
REMARK    5  A    between atoms: C_22  and  C_23 
REMARK       I    between atoms: C_23  and  N_25 
REMARK    6  A    between atoms: N_25  and  C_27 
REMARK    7  A    between atoms: C_27  and  C_28 
ROOT
HETATM    1  C   UNL     1       2.234  12.909  23.502  0.00  0.00     0.046 A 
HETATM    2  C   UNL     1       2.519  14.225  23.941  0.00  0.00     0.082 A 
HETATM    3  C   UNL     1       3.808  14.629  24.280  0.00  0.00     0.075 A 
HETATM    4  C   UNL     1       4.863  13.729  24.169  0.00  0.00     0.084 A 
HETATM    5  C   UNL     1       3.315  12.012  23.422  0.00  0.00     0.038 A 
HETATM    6  C   UNL     1       4.638  12.412  23.732  0.00  0.00     0.066 A 
ENDROOT
BRANCH   1   7
HETATM    7  C   UNL     1       0.855  12.670  22.954  0.00  0.00     0.172 A 
HETATM    8  N   UNL     1      -0.203  11.975  23.491  0.00  0.00    -0.241 N 
HETATM    9  C   UNL     1      -1.256  12.176  22.612  0.00  0.00     0.349 A 
HETATM   10  O   UNL     1      -2.375  11.677  22.598  0.00  0.00    -0.245 OA
HETATM   11  N   UNL     1      -0.769  13.009  21.626  0.00  0.00    -0.226 N 
HETATM   12  H   UNL     1      -1.272  13.282  20.791  0.00  0.00     0.194 HD
HETATM   13  N   UNL     1       0.535  13.290  21.838  0.00  0.00    -0.151 NA
BRANCH   8  14
HETATM   14  C   UNL     1      -0.364  11.116  24.592  0.00  0.00     0.084 A 
HETATM   15  C   UNL     1       0.466   9.989  24.724  0.00  0.00     0.143 A 
HETATM   16  F   UNL     1       1.259   9.610  23.710  0.00  0.00    -0.204 F 
HETATM   17  C   UNL     1       0.491   9.228  25.890  0.00  0.00     0.044 A 
HETATM   18  C   UNL     1      -0.358   9.558  26.944  0.00  0.00     0.003 A 
HETATM   19  C   UNL     1      -1.193  10.667  26.832  0.00  0.00     0.002 A 
HETATM   20  C   UNL     1      -1.160  11.465  25.681  0.00  0.00     0.033 A 
ENDBRANCH   8  14
ENDBRANCH   1   7
BRANCH   2  21
HETATM   21  O   UNL     1       1.577  15.221  24.034  0.00  0.00    -0.360 OA
HETATM   22  H   UNL     1       0.848  15.020  23.407  0.00  0.00     0.217 HD
ENDBRANCH   2  21
BRANCH   6  23
HETATM   23  C   UNL     1       5.805  11.620  23.224  0.00  0.00     0.256 C 
HETATM   24  O   UNL     1       6.612  12.249  22.534  0.00  0.00    -0.267 OA
HETATM   25  N   UNL     1       5.946  10.237  23.404  0.00  0.00    -0.346 N 
HETATM   26  C   UNL     1       7.059   9.589  22.710  0.00  0.00     0.153 C 
BRANCH  25  27
HETATM   27  C   UNL     1       5.222   9.392  24.351  0.00  0.00     0.190 C 
BRANCH  27  28
HETATM   28  C   UNL     1       4.790   8.131  23.689  0.00  0.00     0.070 A 
HETATM   29  O   UNL     1       3.967   8.257  22.604  0.00  0.00    -0.325 OA
HETATM   30  C   UNL     1       3.660   6.999  22.192  0.00  0.00     0.142 A 
HETATM   31  C   UNL     1       4.274   6.066  22.993  0.00  0.00     0.027 A 
HETATM   32  C   UNL     1       5.024   6.795  23.945  0.00  0.00     0.036 A 
ENDBRANCH  27  28
ENDBRANCH  25  27
ENDBRANCH   6  23
BRANCH   4  33
HETATM   33  O   UNL     1       6.124  14.177  24.467  0.00  0.00    -0.360 OA
HETATM   34  H   UNL     1       6.694  14.033  23.690  0.00  0.00     0.217 HD
ENDBRANCH   4  33
TORSDOF 7
ENDMDL
MODEL 2
REMARK VINA RESULT:    -9.894      2.224      5.151
REMARK INTER + INTRA:         -14.781
REMARK INTER:                 -12.766
REMARK INTRA:                  -2.015
REMARK UNBOUND:                -1.416
REMARK  7 active torsions:
REMARK  status: ('A' for Active; 'I' for Inactive)
REMARK    1  A    between atoms: C_7  and  N_8 
REMARK    2  A    between atoms: C_14  and  C_15 
REMARK    3  A    between atoms: C_16  and  O_17 
REMARK    4  A    between atoms: C_19  and  O_20 
REMARK    5  A    between atoms: C_22  and  C_23 
REMARK       I    between atoms: C_23  and  N_25 
REMARK    6  A    between atoms: N_25  and  C_27 
REMARK    7  A    between atoms: C_27  and  C_28 
ROOT
HETATM    1  C   UNL     1       2.031   8.897  24.611  0.00  0.00     0.046 A 
HETATM    2  C   UNL     1       1.714   7.769  23.816  0.00  0.00     0.082 A 
HETATM    3  C   UNL     1       2.655   7.158  22.990  0.00  0.00     0.075 A 
HETATM    4  C   UNL     1       3.956   7.648  22.948  0.00  0.00     0.084 A 
HETATM    5  C   UNL     1       3.348   9.387  24.532  0.00  0.00     0.038 A 
HETATM    6  C   UNL     1       4.327   8.762  23.722  0.00  0.00     0.066 A 
ENDROOT
BRANCH   1   7
HETATM    7  C   UNL     1       1.000   9.315  25.622  0.00  0.00     0.172 A 
HETATM    8  N   UNL     1      -0.021  10.232  25.518  0.00  0.00    -0.241 N 
HETATM    9  C   UNL     1      -0.725  10.129  26.708  0.00  0.00     0.349 A 
HETATM   10  O   UNL     1      -1.649  10.810  27.135  0.00  0.00    -0.245 OA
HETATM   11  N   UNL     1      -0.102   9.132  27.429  0.00  0.00    -0.226 N 
HETATM   12  H   UNL     1      -0.331   8.870  28.380  0.00  0.00     0.194 HD
HETATM   13  N   UNL     1       0.968   8.653  26.758  0.00  0.00    -0.151 NA
BRANCH   8  14
HETATM   14  C   UNL     1      -0.378  11.210  24.574  0.00  0.00     0.084 A 
HETATM   15  C   UNL     1       0.580  12.142  24.140  0.00  0.00     0.143 A 
HETATM   16  F   UNL     1       1.760  12.244  24.770  0.00  0.00    -0.204 F 
HETATM   17  C   UNL     1       0.341  12.992  23.062  0.00  0.00     0.044 A 
HETATM   18  C   UNL     1      -0.893  12.955  22.418  0.00  0.00     0.003 A 
HETATM   19  C   UNL     1      -1.859  12.042  22.836  0.00  0.00     0.002 A 
HETATM   20  C   UNL     1      -1.583  11.146  23.876  0.00  0.00     0.033 A 
ENDBRANCH   8  14
ENDBRANCH   1   7
BRANCH   2  21
HETATM   21  O   UNL     1       0.484   7.155  23.815  0.00  0.00    -0.360 OA
HETATM   22  H   UNL     1       0.538   6.348  24.372  0.00  0.00     0.217 HD
ENDBRANCH   2  21
BRANCH   6  23
HETATM   23  C   UNL     1       5.784   8.995  23.983  0.00  0.00     0.256 C 
HETATM   24  O   UNL     1       6.345   8.133  24.666  0.00  0.00    -0.267 OA
HETATM   25  N   UNL     1       6.470  10.153  23.593  0.00  0.00    -0.346 N 
HETATM   26  C   UNL     1       7.848  10.296  24.064  0.00  0.00     0.153 C 
BRANCH  25  27
HETATM   27  C   UNL     1       6.036  11.151  22.617  0.00  0.00     0.190 C 
BRANCH  27  28
HETATM   28  C   UNL     1       5.720  12.434  23.301  0.00  0.00     0.070 A 
HETATM   29  O   UNL     1       6.778  13.243  23.608  0.00  0.00    -0.325 OA
HETATM   30  C   UNL     1       6.274  14.323  24.263  0.00  0.00     0.142 A 
HETATM   31  C   UNL     1       4.909  14.221  24.381  0.00  0.00     0.027 A 
HETATM   32  C   UNL     1       4.546  13.014  23.737  0.00  0.00     0.036 A 
ENDBRANCH  27  28
ENDBRANCH  25  27
ENDBRANCH   6  23
BRANCH   4  33
HETATM   33  O   UNL     1       4.865   6.992  22.159  0.00  0.00    -0.360 OA
HETATM   34  H   UNL     1       5.757   7.314  22.383  0.00  0.00     0.217 HD
ENDBRANCH   4  33
TORSDOF 7
ENDMDL
MODEL 3
REMARK VINA RESULT:    -9.878      2.529      5.340
REMARK INTER + INTRA:         -14.759
REMARK INTER:                 -12.419
REMARK INTRA:                  -2.340
REMARK UNBOUND:                -1.416
REMARK  7 active torsions:
REMARK  status: ('A' for Active; 'I' for Inactive)
REMARK    1  A    between atoms: C_7  and  N_8 
REMARK    2  A    between atoms: C_14  and  C_15 
REMARK    3  A    between atoms: C_16  and  O_17 
REMARK    4  A    between atoms: C_19  and  O_20 
REMARK    5  A    between atoms: C_22  and  C_23 
REMARK       I    between atoms: C_23  and  N_25 
REMARK    6  A    between atoms: N_25  and  C_27 
REMARK    7  A    between atoms: C_27  and  C_28 
ROOT
HETATM    1  C   UNL     1       1.157   8.204  25.009  0.00  0.00     0.046 A 
HETATM    2  C   UNL     1       0.550   7.135  24.305  0.00  0.00     0.082 A 
HETATM    3  C   UNL     1       1.267   6.329  23.424  0.00  0.00     0.075 A 
HETATM    4  C   UNL     1       2.626   6.554  23.234  0.00  0.00     0.084 A 
HETATM    5  C   UNL     1       2.527   8.425  24.781  0.00  0.00     0.038 A 
HETATM    6  C   UNL     1       3.281   7.597  23.913  0.00  0.00     0.066 A 
ENDROOT
BRANCH   1   7
HETATM    7  C   UNL     1       0.334   8.845  26.091  0.00  0.00     0.172 A 
HETATM    8  N   UNL     1      -0.493   9.943  26.041  0.00  0.00    -0.241 N 
HETATM    9  C   UNL     1      -1.081  10.014  27.295  0.00  0.00     0.349 A 
HETATM   10  O   UNL     1      -1.807  10.876  27.775  0.00  0.00    -0.245 OA
HETATM   11  N   UNL     1      -0.596   8.932  27.999  0.00  0.00    -0.226 N 
HETATM   12  H   UNL     1      -0.775   8.745  28.978  0.00  0.00     0.194 HD
HETATM   13  N   UNL     1       0.287   8.232  27.254  0.00  0.00    -0.151 NA
BRANCH   8  14
HETATM   14  C   UNL     1      -0.745  10.948  25.092  0.00  0.00     0.084 A 
HETATM   15  C   UNL     1       0.319  11.724  24.599  0.00  0.00     0.143 A 
HETATM   16  F   UNL     1       1.527  11.662  25.179  0.00  0.00    -0.204 F 
HETATM   17  C   UNL     1       0.160  12.583  23.514  0.00  0.00     0.044 A 
HETATM   18  C   UNL     1      -1.093  12.716  22.921  0.00  0.00     0.003 A 
HETATM   19  C   UNL     1      -2.162  11.960  23.396  0.00  0.00     0.002 A 
HETATM   20  C   UNL     1      -1.975  11.050  24.444  0.00  0.00     0.033 A 
ENDBRANCH   8  14
ENDBRANCH   1   7
BRANCH   2  21
HETATM   21  O   UNL     1      -0.768   6.773  24.450  0.00  0.00    -0.360 OA
HETATM   22  H   UNL     1      -1.330   7.490  24.082  0.00  0.00     0.217 HD
ENDBRANCH   2  21
BRANCH   6  23
HETATM   23  C   UNL     1       4.775   7.549  24.023  0.00  0.00     0.256 C 
HETATM   24  O   UNL     1       5.222   6.695  24.793  0.00  0.00    -0.267 OA
HETATM   25  N   UNL     1       5.632   8.465  23.398  0.00  0.00    -0.346 N 
HETATM   26  C   UNL     1       7.053   8.378  23.735  0.00  0.00     0.153 C 
BRANCH  25  27
HETATM   27  C   UNL     1       5.302   9.381  22.308  0.00  0.00     0.190 C 
BRANCH  27  28
HETATM   28  C   UNL     1       5.098  10.756  22.836  0.00  0.00     0.070 A 
HETATM   29  O   UNL     1       6.219  11.514  23.028  0.00  0.00    -0.325 OA
HETATM   30  C   UNL     1       5.811  12.699  23.555  0.00  0.00     0.142 A 
HETATM   31  C   UNL     1       4.446  12.715  23.704  0.00  0.00     0.027 A 
HETATM   32  C   UNL     1       3.980  11.472  23.216  0.00  0.00     0.036 A 
ENDBRANCH  27  28
ENDBRANCH  25  27
ENDBRANCH   6  23
BRANCH   4  33
HETATM   33  O   UNL     1       3.307   5.710  22.396  0.00  0.00    -0.360 OA
HETATM   34  H   UNL     1       3.833   5.094  22.937  0.00  0.00     0.217 HD
ENDBRANCH   4  33
TORSDOF 7
ENDMDL
MODEL 4
REMARK VINA RESULT:    -9.684      2.555      5.430
REMARK INTER + INTRA:         -14.496
REMARK INTER:                 -12.317
REMARK INTRA:                  -2.179
REMARK UNBOUND:                -1.416
REMARK  7 active torsions:
REMARK  status: ('A' for Active; 'I' for Inactive)
REMARK    1  A    between atoms: C_7  and  N_8 
REMARK    2  A    between atoms: C_14  and  C_15 
REMARK    3  A    between atoms: C_16  and  O_17 
REMARK    4  A    between atoms: C_19  and  O_20 
REMARK    5  A    between atoms: C_22  and  C_23 
REMARK       I    between atoms: C_23  and  N_25 
REMARK    6  A    between atoms: N_25  and  C_27 
REMARK    7  A    between atoms: C_27  and  C_28 
ROOT
HETATM    1  C   UNL     1       1.214   8.089  24.759  0.00  0.00     0.046 A 
HETATM    2  C   UNL     1       0.577   6.957  24.194  0.00  0.00     0.082 A 
HETATM    3  C   UNL     1       1.256   6.056  23.378  0.00  0.00     0.075 A 
HETATM    4  C   UNL     1       2.609   6.248  23.117  0.00  0.00     0.084 A 
HETATM    5  C   UNL     1       2.576   8.273  24.460  0.00  0.00     0.038 A 
HETATM    6  C   UNL     1       3.293   7.352  23.658  0.00  0.00     0.066 A 
ENDROOT
BRANCH   1   7
HETATM    7  C   UNL     1       0.435   8.848  25.797  0.00  0.00     0.172 A 
HETATM    8  N   UNL     1      -0.305  10.002  25.680  0.00  0.00    -0.241 N 
HETATM    9  C   UNL     1      -0.895  10.184  26.922  0.00  0.00     0.349 A 
HETATM   10  O   UNL     1      -1.556  11.123  27.347  0.00  0.00    -0.245 OA
HETATM   11  N   UNL     1      -0.500   9.107  27.687  0.00  0.00    -0.226 N 
HETATM   12  H   UNL     1      -0.700   8.987  28.673  0.00  0.00     0.194 HD
HETATM   13  N   UNL     1       0.332   8.303  26.990  0.00  0.00    -0.151 NA
BRANCH   8  14
HETATM   14  C   UNL     1      -0.472  10.971  24.676  0.00  0.00     0.084 A 
HETATM   15  C   UNL     1      -1.746  11.189  24.124  0.00  0.00     0.143 A 
HETATM   16  F   UNL     1      -2.752  10.343  24.387  0.00  0.00    -0.204 F 
HETATM   17  C   UNL     1      -2.006  12.270  23.284  0.00  0.00     0.044 A 
HETATM   18  C   UNL     1      -0.973  13.140  22.943  0.00  0.00     0.003 A 
HETATM   19  C   UNL     1       0.298  12.939  23.476  0.00  0.00     0.002 A 
HETATM   20  C   UNL     1       0.533  11.888  24.372  0.00  0.00     0.033 A 
ENDBRANCH   8  14
ENDBRANCH   1   7
BRANCH   2  21
HETATM   21  O   UNL     1      -0.737   6.625  24.425  0.00  0.00    -0.360 OA
HETATM   22  H   UNL     1      -0.760   5.835  25.009  0.00  0.00     0.217 HD
ENDBRANCH   2  21
BRANCH   6  23
HETATM   23  C   UNL     1       4.790   7.302  23.718  0.00  0.00     0.256 C 
HETATM   24  O   UNL     1       5.262   6.406  24.423  0.00  0.00    -0.267 OA
HETATM   25  N   UNL     1       5.625   8.256  23.121  0.00  0.00    -0.346 N 
HETATM   26  C   UNL     1       7.056   8.154  23.407  0.00  0.00     0.153 C 
BRANCH  25  27
HETATM   27  C   UNL     1       5.260   9.232  22.097  0.00  0.00     0.190 C 
BRANCH  27  28
HETATM   28  C   UNL     1       5.175  10.593  22.691  0.00  0.00     0.070 A 
HETATM   29  O   UNL     1       6.321  11.339  22.686  0.00  0.00    -0.325 OA
HETATM   30  C   UNL     1       6.033  12.511  23.313  0.00  0.00     0.142 A 
HETATM   31  C   UNL     1       4.721  12.530  23.720  0.00  0.00     0.027 A 
HETATM   32  C   UNL     1       4.158  11.304  23.297  0.00  0.00     0.036 A 
ENDBRANCH  27  28
ENDBRANCH  25  27
ENDBRANCH   6  23
BRANCH   4  33
HETATM   33  O   UNL     1       3.254   5.315  22.348  0.00  0.00    -0.360 OA
HETATM   34  H   UNL     1       2.778   5.230  21.502  0.00  0.00     0.217 HD
ENDBRANCH   4  33
TORSDOF 7
ENDMDL
MODEL 5
REMARK VINA RESULT:    -9.610      2.876      5.650
REMARK INTER + INTRA:         -14.397
REMARK INTER:                 -12.581
REMARK INTRA:                  -1.816
REMARK UNBOUND:                -1.416
REMARK  7 active torsions:
REMARK  status: ('A' for Active; 'I' for Inactive)
REMARK    1  A    between atoms: C_7  and  N_8 
REMARK    2  A    between atoms: C_14  and  C_15 
REMARK    3  A    between atoms: C_16  and  O_17 
REMARK    4  A    between atoms: C_19  and  O_20 
REMARK    5  A    between atoms: C_22  and  C_23 
REMARK       I    between atoms: C_23  and  N_25 
REMARK    6  A    between atoms: N_25  and  C_27 
REMARK    7  A    between atoms: C_27  and  C_28 
ROOT
HETATM    1  C   UNL     1      -0.365  11.121  25.295  0.00  0.00     0.046 A 
HETATM    2  C   UNL     1      -1.407  11.378  24.371  0.00  0.00     0.082 A 
HETATM    3  C   UNL     1      -1.201  12.123  23.212  0.00  0.00     0.075 A 
HETATM    4  C   UNL     1       0.067  12.619  22.929  0.00  0.00     0.084 A 
HETATM    5  C   UNL     1       0.902  11.654  24.996  0.00  0.00     0.038 A 
HETATM    6  C   UNL     1       1.139  12.388  23.808  0.00  0.00     0.066 A 
ENDROOT
BRANCH   1   7
HETATM    7  C   UNL     1      -0.662  10.121  26.378  0.00  0.00     0.172 A 
HETATM    8  N   UNL     1      -0.068   8.911  26.652  0.00  0.00    -0.241 N 
HETATM    9  C   UNL     1      -0.663   8.470  27.825  0.00  0.00     0.349 A 
HETATM   10  O   UNL     1      -0.549   7.400  28.409  0.00  0.00    -0.245 OA
HETATM   11  N   UNL     1      -1.546   9.464  28.194  0.00  0.00    -0.226 N 
HETATM   12  H   UNL     1      -2.195   9.408  28.970  0.00  0.00     0.194 HD
HETATM   13  N   UNL     1      -1.549  10.464  27.287  0.00  0.00    -0.151 NA
BRANCH   8  14
HETATM   14  C   UNL     1       0.854   8.089  25.983  0.00  0.00     0.084 A 
HETATM   15  C   UNL     1       0.403   7.189  25.002  0.00  0.00     0.143 A 
HETATM   16  F   UNL     1      -0.909   6.954  24.851  0.00  0.00    -0.204 F 
HETATM   17  C   UNL     1       1.287   6.507  24.168  0.00  0.00     0.044 A 
HETATM   18  C   UNL     1       2.658   6.683  24.331  0.00  0.00     0.003 A 
HETATM   19  C   UNL     1       3.128   7.566  25.301  0.00  0.00     0.002 A 
HETATM   20  C   UNL     1       2.229   8.297  26.088  0.00  0.00     0.033 A 
ENDBRANCH   8  14
ENDBRANCH   1   7
BRANCH   2  21
HETATM   21  O   UNL     1      -2.687  10.894  24.506  0.00  0.00    -0.360 OA
HETATM   22  H   UNL     1      -2.638   9.926  24.668  0.00  0.00     0.217 HD
ENDBRANCH   2  21
BRANCH   6  23
HETATM   23  C   UNL     1       2.536  12.551  23.288  0.00  0.00     0.256 C 
HETATM   24  O   UNL     1       2.829  11.839  22.324  0.00  0.00    -0.267 OA
HETATM   25  N   UNL     1       3.503  13.363  23.896  0.00  0.00    -0.346 N 
HETATM   26  C   UNL     1       4.861  13.290  23.358  0.00  0.00     0.153 C 
BRANCH  25  27
HETATM   27  C   UNL     1       3.278  14.414  24.887  0.00  0.00     0.190 C 
BRANCH  27  28
HETATM   28  C   UNL     1       4.460  14.538  25.781  0.00  0.00     0.070 A 
HETATM   29  O   UNL     1       4.864  13.403  26.428  0.00  0.00    -0.325 OA
HETATM   30  C   UNL     1       5.913  13.751  27.219  0.00  0.00     0.142 A 
HETATM   31  C   UNL     1       6.191  15.090  27.091  0.00  0.00     0.027 A 
HETATM   32  C   UNL     1       5.270  15.596  26.143  0.00  0.00     0.036 A 
ENDBRANCH  27  28
ENDBRANCH  25  27
ENDBRANCH   6  23
BRANCH   4  33
HETATM   33  O   UNL     1       0.241  13.307  21.756  0.00  0.00    -0.360 OA
HETATM   34  H   UNL     1      -0.449  13.992  21.695  0.00  0.00     0.217 HD
ENDBRANCH   4  33
TORSDOF 7
ENDMDL
MODEL 6
REMARK VINA RESULT:    -9.576      2.274      4.788
REMARK INTER + INTRA:         -14.351
REMARK INTER:                 -12.329
REMARK INTRA:                  -2.022
REMARK UNBOUND:                -1.416
REMARK  7 active torsions:
REMARK  status: ('A' for Active; 'I' for Inactive)
REMARK    1  A    between atoms: C_7  and  N_8 
REMARK    2  A    between atoms: C_14  and  C_15 
REMARK    3  A    between atoms: C_16  and  O_17 
REMARK    4  A    between atoms: C_19  and  O_20 
REMARK    5  A    between atoms: C_22  and  C_23 
REMARK       I    between atoms: C_23  and  N_25 
REMARK    6  A    between atoms: N_25  and  C_27 
REMARK    7  A    between atoms: C_27  and  C_28 
ROOT
HETATM    1  C   UNL     1      -0.610  10.161  24.716  0.00  0.00     0.046 A 
HETATM    2  C   UNL     1      -0.826  10.422  26.091  0.00  0.00     0.082 A 
HETATM    3  C   UNL     1      -0.337   9.583  27.089  0.00  0.00     0.075 A 
HETATM    4  C   UNL     1       0.406   8.460  26.741  0.00  0.00     0.084 A 
HETATM    5  C   UNL     1       0.124   9.006  24.391  0.00  0.00     0.038 A 
HETATM    6  C   UNL     1       0.656   8.156  25.391  0.00  0.00     0.066 A 
ENDROOT
BRANCH   1   7
HETATM    7  C   UNL     1      -0.989  11.257  23.759  0.00  0.00     0.172 A 
HETATM    8  N   UNL     1      -0.210  12.220  23.162  0.00  0.00    -0.241 N 
HETATM    9  C   UNL     1      -1.057  12.889  22.292  0.00  0.00     0.349 A 
HETATM   10  O   UNL     1      -0.860  13.892  21.619  0.00  0.00    -0.245 OA
HETATM   11  N   UNL     1      -2.279  12.256  22.398  0.00  0.00    -0.226 N 
HETATM   12  H   UNL     1      -3.133  12.559  21.946  0.00  0.00     0.194 HD
HETATM   13  N   UNL     1      -2.228  11.267  23.316  0.00  0.00    -0.151 NA
BRANCH   8  14
HETATM   14  C   UNL     1       1.114  12.663  23.329  0.00  0.00     0.084 A 
HETATM   15  C   UNL     1       1.372  13.819  24.087  0.00  0.00     0.143 A 
HETATM   16  F   UNL     1       0.364  14.617  24.468  0.00  0.00    -0.204 F 
HETATM   17  C   UNL     1       2.666  14.181  24.455  0.00  0.00     0.044 A 
HETATM   18  C   UNL     1       3.743  13.407  24.032  0.00  0.00     0.003 A 
HETATM   19  C   UNL     1       3.510  12.260  23.276  0.00  0.00     0.002 A 
HETATM   20  C   UNL     1       2.201  11.869  22.968  0.00  0.00     0.033 A 
ENDBRANCH   8  14
ENDBRANCH   1   7
BRANCH   2  21
HETATM   21  O   UNL     1      -1.491  11.528  26.565  0.00  0.00    -0.360 OA
HETATM   22  H   UNL     1      -0.892  12.305  26.496  0.00  0.00     0.217 HD
ENDBRANCH   2  21
BRANCH   6  23
HETATM   23  C   UNL     1       1.782   7.221  25.067  0.00  0.00     0.256 C 
HETATM   24  O   UNL     1       1.462   6.040  24.908  0.00  0.00    -0.267 OA
HETATM   25  N   UNL     1       3.130   7.604  25.048  0.00  0.00    -0.346 N 
HETATM   26  C   UNL     1       4.118   6.538  24.871  0.00  0.00     0.153 C 
BRANCH  25  27
HETATM   27  C   UNL     1       3.662   8.964  24.999  0.00  0.00     0.190 C 
BRANCH  27  28
HETATM   28  C   UNL     1       4.637   9.095  23.883  0.00  0.00     0.070 A 
HETATM   29  O   UNL     1       4.154   8.899  22.618  0.00  0.00    -0.325 OA
HETATM   30  C   UNL     1       5.209   9.016  21.769  0.00  0.00     0.142 A 
HETATM   31  C   UNL     1       6.362   9.284  22.467  0.00  0.00     0.027 A 
HETATM   32  C   UNL     1       5.991   9.361  23.829  0.00  0.00     0.036 A 
ENDBRANCH  27  28
ENDBRANCH  25  27
ENDBRANCH   6  23
BRANCH   4  33
HETATM   33  O   UNL     1       0.910   7.684  27.752  0.00  0.00    -0.360 OA
HETATM   34  H   UNL     1       1.856   7.528  27.580  0.00  0.00     0.217 HD
ENDBRANCH   4  33
TORSDOF 7
ENDMDL
MODEL 7
REMARK VINA RESULT:    -9.361      2.584      6.689
REMARK INTER + INTRA:         -14.061
REMARK INTER:                 -12.305
REMARK INTRA:                  -1.755
REMARK UNBOUND:                -1.416
REMARK  7 active torsions:
REMARK  status: ('A' for Active; 'I' for Inactive)
REMARK    1  A    between atoms: C_7  and  N_8 
REMARK    2  A    between atoms: C_14  and  C_15 
REMARK    3  A    between atoms: C_16  and  O_17 
REMARK    4  A    between atoms: C_19  and  O_20 
REMARK    5  A    between atoms: C_22  and  C_23 
REMARK       I    between atoms: C_23  and  N_25 
REMARK    6  A    between atoms: N_25  and  C_27 
REMARK    7  A    between atoms: C_27  and  C_28 
ROOT
HETATM    1  C   UNL     1       6.120  10.486  23.920  0.00  0.00     0.046 A 
HETATM    2  C   UNL     1       6.427  10.115  22.588  0.00  0.00     0.082 A 
HETATM    3  C   UNL     1       5.656   9.199  21.879  0.00  0.00     0.075 A 
HETATM    4  C   UNL     1       4.533   8.636  22.476  0.00  0.00     0.084 A 
HETATM    5  C   UNL     1       4.993   9.884  24.508  0.00  0.00     0.038 A 
HETATM    6  C   UNL     1       4.178   8.973  23.794  0.00  0.00     0.066 A 
ENDROOT
BRANCH   1   7
HETATM    7  C   UNL     1       6.891  11.645  24.488  0.00  0.00     0.172 A 
HETATM    8  N   UNL     1       6.443  12.844  24.991  0.00  0.00    -0.241 N 
HETATM    9  C   UNL     1       7.574  13.482  25.477  0.00  0.00     0.349 A 
HETATM   10  O   UNL     1       7.708  14.615  25.921  0.00  0.00    -0.245 OA
HETATM   11  N   UNL     1       8.619  12.606  25.265  0.00  0.00    -0.226 N 
HETATM   12  H   UNL     1       9.595  12.809  25.440  0.00  0.00     0.194 HD
HETATM   13  N   UNL     1       8.188  11.489  24.640  0.00  0.00    -0.151 NA
BRANCH   8  14
HETATM   14  C   UNL     1       5.203  13.506  25.011  0.00  0.00     0.084 A 
HETATM   15  C   UNL     1       4.722  14.049  26.215  0.00  0.00     0.143 A 
HETATM   16  F   UNL     1       5.325  13.757  27.378  0.00  0.00    -0.204 F 
HETATM   17  C   UNL     1       3.611  14.888  26.250  0.00  0.00     0.044 A 
HETATM   18  C   UNL     1       2.925  15.170  25.071  0.00  0.00     0.003 A 
HETATM   19  C   UNL     1       3.382  14.639  23.867  0.00  0.00     0.002 A 
HETATM   20  C   UNL     1       4.539  13.851  23.834  0.00  0.00     0.033 A 
ENDBRANCH   8  14
ENDBRANCH   1   7
BRANCH   2  21
HETATM   21  O   UNL     1       7.473  10.644  21.869  0.00  0.00    -0.360 OA
HETATM   22  H   UNL     1       7.500  10.205  20.991  0.00  0.00     0.217 HD
ENDBRANCH   2  21
BRANCH   6  23
HETATM   23  C   UNL     1       2.775   8.699  24.246  0.00  0.00     0.256 C 
HETATM   24  O   UNL     1       2.463   7.507  24.314  0.00  0.00    -0.267 OA
HETATM   25  N   UNL     1       1.822   9.700  24.478  0.00  0.00    -0.346 N 
HETATM   26  C   UNL     1       0.455   9.261  24.760  0.00  0.00     0.153 C 
BRANCH  25  27
HETATM   27  C   UNL     1       2.068  11.130  24.653  0.00  0.00     0.190 C 
BRANCH  27  28
HETATM   28  C   UNL     1       1.131  11.920  23.810  0.00  0.00     0.070 A 
HETATM   29  O   UNL     1       1.416  11.991  22.475  0.00  0.00    -0.325 OA
HETATM   30  C   UNL     1       0.473  12.792  21.911  0.00  0.00     0.142 A 
HETATM   31  C   UNL     1      -0.414  13.236  22.862  0.00  0.00     0.027 A 
HETATM   32  C   UNL     1      -0.006  12.653  24.084  0.00  0.00     0.036 A 
ENDBRANCH  27  28
ENDBRANCH  25  27
ENDBRANCH   6  23
BRANCH   4  33
HETATM   33  O   UNL     1       3.772   7.773  21.730  0.00  0.00    -0.360 OA
HETATM   34  H   UNL     1       4.142   6.877  21.821  0.00  0.00     0.217 HD
ENDBRANCH   4  33
TORSDOF 7
ENDMDL
MODEL 8
REMARK VINA RESULT:    -9.355      2.687      6.899
REMARK INTER + INTRA:         -14.052
REMARK INTER:                 -12.636
REMARK INTRA:                  -1.416
REMARK UNBOUND:                -1.416
REMARK  7 active torsions:
REMARK  status: ('A' for Active; 'I' for Inactive)
REMARK    1  A    between atoms: C_7  and  N_8 
REMARK    2  A    between atoms: C_14  and  C_15 
REMARK    3  A    between atoms: C_16  and  O_17 
REMARK    4  A    between atoms: C_19  and  O_20 
REMARK    5  A    between atoms: C_22  and  C_23 
REMARK       I    between atoms: C_23  and  N_25 
REMARK    6  A    between atoms: N_25  and  C_27 
REMARK    7  A    between atoms: C_27  and  C_28 
ROOT
HETATM    1  C   UNL     1       1.064   8.550  24.406  0.00  0.00     0.046 A 
HETATM    2  C   UNL     1       0.049   8.180  25.321  0.00  0.00     0.082 A 
HETATM    3  C   UNL     1      -0.708   9.125  26.009  0.00  0.00     0.075 A 
HETATM    4  C   UNL     1      -0.486  10.480  25.786  0.00  0.00     0.084 A 
HETATM    5  C   UNL     1       1.283   9.927  24.216  0.00  0.00     0.038 A 
HETATM    6  C   UNL     1       0.504  10.904  24.882  0.00  0.00     0.066 A 
ENDROOT
BRANCH   1   7
HETATM    7  C   UNL     1       1.644   7.446  23.566  0.00  0.00     0.172 A 
HETATM    8  N   UNL     1       2.956   7.147  23.281  0.00  0.00    -0.241 N 
HETATM    9  C   UNL     1       2.912   5.964  22.559  0.00  0.00     0.349 A 
HETATM   10  O   UNL     1       3.810   5.358  21.989  0.00  0.00    -0.245 OA
HETATM   11  N   UNL     1       1.579   5.615  22.492  0.00  0.00    -0.226 N 
HETATM   12  H   UNL     1       1.206   4.837  21.962  0.00  0.00     0.194 HD
HETATM   13  N   UNL     1       0.809   6.543  23.100  0.00  0.00    -0.151 NA
BRANCH   8  14
HETATM   14  C   UNL     1       4.184   7.800  23.481  0.00  0.00     0.084 A 
HETATM   15  C   UNL     1       5.090   7.304  24.433  0.00  0.00     0.143 A 
HETATM   16  F   UNL     1       4.710   6.350  25.297  0.00  0.00    -0.204 F 
HETATM   17  C   UNL     1       6.396   7.782  24.524  0.00  0.00     0.044 A 
HETATM   18  C   UNL     1       6.811   8.810  23.681  0.00  0.00     0.003 A 
HETATM   19  C   UNL     1       5.927   9.320  22.733  0.00  0.00     0.002 A 
HETATM   20  C   UNL     1       4.639   8.785  22.606  0.00  0.00     0.033 A 
ENDBRANCH   8  14
ENDBRANCH   1   7
BRANCH   2  21
HETATM   21  O   UNL     1      -0.307   6.878  25.584  0.00  0.00    -0.360 OA
HETATM   22  H   UNL     1      -1.263   6.856  25.810  0.00  0.00     0.217 HD
ENDBRANCH   2  21
BRANCH   6  23
HETATM   23  C   UNL     1       0.433  12.304  24.351  0.00  0.00     0.256 C 
HETATM   24  O   UNL     1      -0.703  12.722  24.113  0.00  0.00    -0.267 OA
HETATM   25  N   UNL     1       1.559  13.073  24.030  0.00  0.00    -0.346 N 
HETATM   26  C   UNL     1       1.317  14.358  23.373  0.00  0.00     0.153 C 
BRANCH  25  27
HETATM   27  C   UNL     1       2.941  12.829  24.438  0.00  0.00     0.190 C 
BRANCH  27  28
HETATM   28  C   UNL     1       3.599  14.109  24.814  0.00  0.00     0.070 A 
HETATM   29  O   UNL     1       4.641  14.519  24.028  0.00  0.00    -0.325 OA
HETATM   30  C   UNL     1       5.120  15.668  24.573  0.00  0.00     0.142 A 
HETATM   31  C   UNL     1       4.403  16.005  25.696  0.00  0.00     0.027 A 
HETATM   32  C   UNL     1       3.405  15.013  25.839  0.00  0.00     0.036 A 
ENDBRANCH  27  28
ENDBRANCH  25  27
ENDBRANCH   6  23
BRANCH   4  33
HETATM   33  O   UNL     1      -1.282  11.379  26.446  0.00  0.00    -0.360 OA
HETATM   34  H   UNL     1      -2.211  11.109  26.336  0.00  0.00     0.217 HD
ENDBRANCH   4  33
TORSDOF 7
ENDMDL
MODEL 9
REMARK VINA RESULT:    -9.209      1.811      5.764
REMARK INTER + INTRA:         -13.855
REMARK INTER:                 -11.940
REMARK INTRA:                  -1.915
REMARK UNBOUND:                -1.416
REMARK  7 active torsions:
REMARK  status: ('A' for Active; 'I' for Inactive)
REMARK    1  A    between atoms: C_7  and  N_8 
REMARK    2  A    between atoms: C_14  and  C_15 
REMARK    3  A    between atoms: C_16  and  O_17 
REMARK    4  A    between atoms: C_19  and  O_20 
REMARK    5  A    between atoms: C_22  and  C_23 
REMARK       I    between atoms: C_23  and  N_25 
REMARK    6  A    between atoms: N_25  and  C_27 
REMARK    7  A    between atoms: C_27  and  C_28 
ROOT
HETATM    1  C   UNL     1       4.570  12.536  23.697  0.00  0.00     0.046 A 
HETATM    2  C   UNL     1       4.543  13.631  24.595  0.00  0.00     0.082 A 
HETATM    3  C   UNL     1       3.394  14.390  24.802  0.00  0.00     0.075 A 
HETATM    4  C   UNL     1       2.222  14.062  24.130  0.00  0.00     0.084 A 
HETATM    5  C   UNL     1       3.378  12.240  23.012  0.00  0.00     0.038 A 
HETATM    6  C   UNL     1       2.190  12.981  23.232  0.00  0.00     0.066 A 
ENDROOT
BRANCH   1   7
HETATM    7  C   UNL     1       5.796  11.667  23.737  0.00  0.00     0.172 A 
HETATM    8  N   UNL     1       5.921  10.305  23.593  0.00  0.00    -0.241 N 
HETATM    9  C   UNL     1       7.285  10.060  23.605  0.00  0.00     0.349 A 
HETATM   10  O   UNL     1       7.893   8.996  23.615  0.00  0.00    -0.245 OA
HETATM   11  N   UNL     1       7.888  11.296  23.717  0.00  0.00    -0.226 N 
HETATM   12  H   UNL     1       8.882  11.452  23.832  0.00  0.00     0.194 HD
HETATM   13  N   UNL     1       6.961  12.273  23.816  0.00  0.00    -0.151 NA
BRANCH   8  14
HETATM   14  C   UNL     1       5.017   9.230  23.541  0.00  0.00     0.084 A 
HETATM   15  C   UNL     1       4.735   8.615  22.309  0.00  0.00     0.143 A 
HETATM   16  F   UNL     1       5.149   9.175  21.162  0.00  0.00    -0.204 F 
HETATM   17  C   UNL     1       4.016   7.425  22.230  0.00  0.00     0.044 A 
HETATM   18  C   UNL     1       3.521   6.842  23.394  0.00  0.00     0.003 A 
HETATM   19  C   UNL     1       3.785   7.437  24.626  0.00  0.00     0.002 A 
HETATM   20  C   UNL     1       4.566   8.597  24.699  0.00  0.00     0.033 A 
ENDBRANCH   8  14
ENDBRANCH   1   7
BRANCH   2  21
HETATM   21  O   UNL     1       5.617  14.017  25.363  0.00  0.00    -0.360 OA
HETATM   22  H   UNL     1       5.975  14.856  24.997  0.00  0.00     0.217 HD
ENDBRANCH   2  21
BRANCH   6  23
HETATM   23  C   UNL     1       0.859  12.399  22.863  0.00  0.00     0.256 C 
HETATM   24  O   UNL     1       0.505  12.582  21.695  0.00  0.00    -0.267 OA
HETATM   25  N   UNL     1      -0.002  11.781  23.781  0.00  0.00    -0.346 N 
HETATM   26  C   UNL     1      -1.331  11.409  23.295  0.00  0.00     0.153 C 
BRANCH  25  27
HETATM   27  C   UNL     1       0.334  11.296  25.118  0.00  0.00     0.190 C 
BRANCH  27  28
HETATM   28  C   UNL     1       0.169   9.819  25.186  0.00  0.00     0.070 A 
HETATM   29  O   UNL     1      -0.351   9.311  26.344  0.00  0.00    -0.325 OA
HETATM   30  C   UNL     1      -0.368   7.959  26.211  0.00  0.00     0.142 A 
HETATM   31  C   UNL     1       0.131   7.589  24.985  0.00  0.00     0.027 A 
HETATM   32  C   UNL     1       0.454   8.790  24.312  0.00  0.00     0.036 A 
ENDBRANCH  27  28
ENDBRANCH  25  27
ENDBRANCH   6  23
BRANCH   4  33
HETATM   33  O   UNL     1       1.099  14.803  24.395  0.00  0.00    -0.360 OA
HETATM   34  H   UNL     1       1.364  15.595  24.897  0.00  0.00     0.217 HD
ENDBRANCH   4  33
TORSDOF 7
ENDMDL
