MODEL 1
REMARK VINA RESULT:    -7.975      0.000      0.000
REMARK INTER + INTRA:          -9.406
REMARK INTER:                  -8.909
REMARK INTRA:                  -0.496
REMARK UNBOUND:                -0.498
REMARK  3 active torsions:
REMARK  status: ('A' for Active; 'I' for Inactive)
REMARK    1  A    between atoms: C_7  and  N_8 
REMARK    2  A    between atoms: C_10  and  C_11 
REMARK       I    between atoms: C_11  and  N_13 
REMARK    3  A    between atoms: C_18  and  O_19 
ROOT
HETATM    1  C   UNL     1       2.606  14.159  23.889  0.00  0.00     0.048 C 
HETATM    2  C   UNL     1       4.022  14.459  23.493  0.00  0.00    -0.061 A 
HETATM    3  C   UNL     1       4.571  15.724  23.666  0.00  0.00     0.009 A 
HETATM    4  C   UNL     1       5.893  15.966  23.282  0.00  0.00     0.033 A 
HETATM    5  C   UNL     1       6.696  14.982  22.717  0.00  0.00     0.073 A 
HETATM    6  N   UNL     1       7.939  15.315  22.352  0.00  0.00    -0.218 NA
HETATM    7  C   UNL     1       8.699  14.385  21.775  0.00  0.00     0.200 A 
HETATM    8  N   UNL     1       8.340  13.125  21.562  0.00  0.00    -0.212 NA
HETATM    9  C   UNL     1       7.086  12.794  21.961  0.00  0.00     0.140 A 
HETATM   10  C   UNL     1       6.178  13.699  22.547  0.00  0.00     0.028 A 
HETATM   11  C   UNL     1       4.829  13.453  22.950  0.00  0.00     0.023 A 
ENDROOT
BRANCH   9  12
HETATM   12  C   UNL     1       6.722  11.344  21.807  0.00  0.00     0.274 C 
HETATM   13  O   UNL     1       7.046  10.554  22.697  0.00  0.00    -0.266 OA
HETATM   14  N   UNL     1       6.027  10.879  20.699  0.00  0.00    -0.338 N 
HETATM   15  C   UNL     1       5.589  11.590  19.489  0.00  0.00     0.165 A 
HETATM   16  C   UNL     1       5.607   9.482  20.702  0.00  0.00     0.165 A 
HETATM   17  C   UNL     1       4.883  10.522  18.696  0.00  0.00    -0.032 A 
HETATM   18  C   UNL     1       4.282  10.590  17.448  0.00  0.00     0.012 A 
HETATM   19  C   UNL     1       4.902   9.313  19.402  0.00  0.00    -0.030 A 
HETATM   20  C   UNL     1       3.702   9.429  16.917  0.00  0.00     0.037 A 
HETATM   21  C   UNL     1       3.731   8.230  17.642  0.00  0.00     0.066 A 
HETATM   22  C   UNL     1       4.329   8.160  18.893  0.00  0.00     0.046 A 
BRANCH  21  23
HETATM   23  O   UNL     1       3.179   7.082  17.149  0.00  0.00    -0.361 OA
HETATM   24  H   UNL     1       2.349   7.304  16.697  0.00  0.00     0.217 HD
ENDBRANCH  21  23
ENDBRANCH   9  12
BRANCH   7  25
HETATM   25  N   UNL     1       9.971  14.769  21.406  0.00  0.00    -0.271 NA
HETATM   26  H   UNL     1       9.935  15.683  20.974  0.00  0.00     0.127 HD
HETATM   27  H   UNL     1      10.612  14.652  22.178  0.00  0.00     0.127 HD
ENDBRANCH   7  25
TORSDOF 3
ENDMDL
MODEL 2
REMARK VINA RESULT:    -7.935      2.548      3.818
REMARK INTER + INTRA:          -9.361
REMARK INTER:                  -8.998
REMARK INTRA:                  -0.363
REMARK UNBOUND:                -0.498
REMARK  3 active torsions:
REMARK  status: ('A' for Active; 'I' for Inactive)
REMARK    1  A    between atoms: C_7  and  N_8 
REMARK    2  A    between atoms: C_10  and  C_11 
REMARK       I    between atoms: C_11  and  N_13 
REMARK    3  A    between atoms: C_18  and  O_19 
ROOT
HETATM    1  C   UNL     1       2.442  14.310  24.044  0.00  0.00     0.048 C 
HETATM    2  C   UNL     1       3.849  14.659  23.658  0.00  0.00    -0.061 A 
HETATM    3  C   UNL     1       4.442  15.845  24.076  0.00  0.00     0.009 A 
HETATM    4  C   UNL     1       5.755  16.137  23.694  0.00  0.00     0.033 A 
HETATM    5  C   UNL     1       6.505  15.283  22.893  0.00  0.00     0.073 A 
HETATM    6  N   UNL     1       7.741  15.662  22.553  0.00  0.00    -0.218 NA
HETATM    7  C   UNL     1       8.450  14.863  21.755  0.00  0.00     0.200 A 
HETATM    8  N   UNL     1       8.045  13.688  21.291  0.00  0.00    -0.212 NA
HETATM    9  C   UNL     1       6.799  13.304  21.665  0.00  0.00     0.140 A 
HETATM   10  C   UNL     1       5.942  14.078  22.473  0.00  0.00     0.028 A 
HETATM   11  C   UNL     1       4.603  13.779  22.874  0.00  0.00     0.023 A 
ENDROOT
BRANCH   9  12
HETATM   12  C   UNL     1       6.385  11.930  21.218  0.00  0.00     0.274 C 
HETATM   13  O   UNL     1       5.575  11.826  20.294  0.00  0.00    -0.266 OA
HETATM   14  N   UNL     1       6.896  10.784  21.812  0.00  0.00    -0.338 N 
HETATM   15  C   UNL     1       7.808  10.636  22.956  0.00  0.00     0.165 A 
HETATM   16  C   UNL     1       6.534   9.499  21.225  0.00  0.00     0.165 A 
HETATM   17  C   UNL     1       7.973   9.145  23.077  0.00  0.00    -0.032 A 
HETATM   18  C   UNL     1       8.698   8.400  23.996  0.00  0.00     0.012 A 
HETATM   19  C   UNL     1       7.233   8.500  22.079  0.00  0.00    -0.030 A 
HETATM   20  C   UNL     1       8.670   7.001  23.899  0.00  0.00     0.037 A 
HETATM   21  C   UNL     1       7.924   6.378  22.890  0.00  0.00     0.066 A 
HETATM   22  C   UNL     1       7.200   7.120  21.968  0.00  0.00     0.046 A 
BRANCH  21  23
HETATM   23  O   UNL     1       7.875   5.018  22.774  0.00  0.00    -0.361 OA
HETATM   24  H   UNL     1       6.959   4.753  22.591  0.00  0.00     0.217 HD
ENDBRANCH  21  23
ENDBRANCH   9  12
BRANCH   7  25
HETATM   25  N   UNL     1       9.717  15.292  21.420  0.00  0.00    -0.271 NA
HETATM   26  H   UNL     1       9.651  16.105  20.821  0.00  0.00     0.127 HD
HETATM   27  H   UNL     1      10.290  15.379  22.248  0.00  0.00     0.127 HD
ENDBRANCH   7  25
TORSDOF 3
ENDMDL
MODEL 3
REMARK VINA RESULT:    -7.790      3.444      5.682
REMARK INTER + INTRA:          -9.199
REMARK INTER:                  -8.756
REMARK INTRA:                  -0.443
REMARK UNBOUND:                -0.498
REMARK  3 active torsions:
REMARK  status: ('A' for Active; 'I' for Inactive)
REMARK    1  A    between atoms: C_7  and  N_8 
REMARK    2  A    between atoms: C_10  and  C_11 
REMARK       I    between atoms: C_11  and  N_13 
REMARK    3  A    between atoms: C_18  and  O_19 
ROOT
HETATM    1  C   UNL     1       9.189  17.543  21.024  0.00  0.00     0.048 C 
HETATM    2  C   UNL     1       9.659  16.281  21.684  0.00  0.00    -0.061 A 
HETATM    3  C   UNL     1      10.869  16.226  22.365  0.00  0.00     0.009 A 
HETATM    4  C   UNL     1      11.275  15.031  22.966  0.00  0.00     0.033 A 
HETATM    5  C   UNL     1      10.512  13.870  22.906  0.00  0.00     0.073 A 
HETATM    6  N   UNL     1      10.996  12.766  23.483  0.00  0.00    -0.218 NA
HETATM    7  C   UNL     1      10.285  11.642  23.395  0.00  0.00     0.200 A 
HETATM    8  N   UNL     1       9.100  11.529  22.808  0.00  0.00    -0.212 NA
HETATM    9  C   UNL     1       8.608  12.663  22.248  0.00  0.00     0.140 A 
HETATM   10  C   UNL     1       9.284  13.900  22.244  0.00  0.00     0.028 A 
HETATM   11  C   UNL     1       8.869  15.126  21.640  0.00  0.00     0.023 A 
ENDROOT
BRANCH   9  12
HETATM   12  C   UNL     1       7.225  12.551  21.672  0.00  0.00     0.274 C 
HETATM   13  O   UNL     1       7.086  12.030  20.563  0.00  0.00    -0.266 OA
HETATM   14  N   UNL     1       6.109  13.008  22.358  0.00  0.00    -0.338 N 
HETATM   15  C   UNL     1       6.011  13.714  23.645  0.00  0.00     0.165 A 
HETATM   16  C   UNL     1       4.799  12.739  21.776  0.00  0.00     0.165 A 
HETATM   17  C   UNL     1       4.529  13.908  23.822  0.00  0.00    -0.032 A 
HETATM   18  C   UNL     1       3.829  14.540  24.839  0.00  0.00     0.012 A 
HETATM   19  C   UNL     1       3.841  13.346  22.740  0.00  0.00    -0.030 A 
HETATM   20  C   UNL     1       2.430  14.601  24.755  0.00  0.00     0.037 A 
HETATM   21  C   UNL     1       1.762  14.029  23.663  0.00  0.00     0.066 A 
HETATM   22  C   UNL     1       2.461  13.394  22.646  0.00  0.00     0.046 A 
BRANCH  21  23
HETATM   23  O   UNL     1       0.402  14.076  23.552  0.00  0.00    -0.361 OA
HETATM   24  H   UNL     1       0.162  13.982  22.616  0.00  0.00     0.217 HD
ENDBRANCH  21  23
ENDBRANCH   9  12
BRANCH   7  25
HETATM   25  N   UNL     1      10.821  10.523  23.997  0.00  0.00    -0.271 NA
HETATM   26  H   UNL     1      11.832  10.578  23.971  0.00  0.00     0.127 HD
HETATM   27  H   UNL     1      10.394  10.370  24.900  0.00  0.00     0.127 HD
ENDBRANCH   7  25
TORSDOF 3
ENDMDL
MODEL 4
REMARK VINA RESULT:    -7.745      3.076      4.961
REMARK INTER + INTRA:          -9.149
REMARK INTER:                  -8.654
REMARK INTRA:                  -0.495
REMARK UNBOUND:                -0.498
REMARK  3 active torsions:
REMARK  status: ('A' for Active; 'I' for Inactive)
REMARK    1  A    between atoms: C_7  and  N_8 
REMARK    2  A    between atoms: C_10  and  C_11 
REMARK       I    between atoms: C_11  and  N_13 
REMARK    3  A    between atoms: C_18  and  O_19 
ROOT
HETATM    1  C   UNL     1       7.874  15.354  22.708  0.00  0.00     0.048 C 
HETATM    2  C   UNL     1       6.406  15.126  22.917  0.00  0.00    -0.061 A 
HETATM    3  C   UNL     1       5.622  16.040  23.612  0.00  0.00     0.009 A 
HETATM    4  C   UNL     1       4.258  15.792  23.789  0.00  0.00     0.033 A 
HETATM    5  C   UNL     1       3.639  14.646  23.300  0.00  0.00     0.073 A 
HETATM    6  N   UNL     1       2.336  14.480  23.546  0.00  0.00    -0.218 NA
HETATM    7  C   UNL     1       1.748  13.366  23.110  0.00  0.00     0.200 A 
HETATM    8  N   UNL     1       2.343  12.409  22.409  0.00  0.00    -0.212 NA
HETATM    9  C   UNL     1       3.659  12.602  22.145  0.00  0.00     0.140 A 
HETATM   10  C   UNL     1       4.397  13.720  22.584  0.00  0.00     0.028 A 
HETATM   11  C   UNL     1       5.790  13.982  22.396  0.00  0.00     0.023 A 
ENDROOT
BRANCH   9  12
HETATM   12  C   UNL     1       4.301  11.564  21.268  0.00  0.00     0.274 C 
HETATM   13  O   UNL     1       4.159  11.651  20.046  0.00  0.00    -0.266 OA
HETATM   14  N   UNL     1       5.051  10.524  21.798  0.00  0.00    -0.338 N 
HETATM   15  C   UNL     1       5.314  10.163  23.199  0.00  0.00     0.165 A 
HETATM   16  C   UNL     1       5.741   9.642  20.862  0.00  0.00     0.165 A 
HETATM   17  C   UNL     1       6.201   8.952  23.084  0.00  0.00    -0.032 A 
HETATM   18  C   UNL     1       6.750   8.153  24.077  0.00  0.00     0.012 A 
HETATM   19  C   UNL     1       6.438   8.659  21.736  0.00  0.00    -0.030 A 
HETATM   20  C   UNL     1       7.538   7.057  23.697  0.00  0.00     0.037 A 
HETATM   21  C   UNL     1       7.764   6.784  22.341  0.00  0.00     0.066 A 
HETATM   22  C   UNL     1       7.218   7.584  21.347  0.00  0.00     0.046 A 
BRANCH  21  23
HETATM   23  O   UNL     1       8.523   5.722  21.942  0.00  0.00    -0.361 OA
HETATM   24  H   UNL     1       8.883   5.282  22.728  0.00  0.00     0.217 HD
ENDBRANCH  21  23
ENDBRANCH   9  12
BRANCH   7  25
HETATM   25  N   UNL     1       0.404  13.227  23.389  0.00  0.00    -0.271 NA
HETATM   26  H   UNL     1      -0.057  12.776  22.609  0.00  0.00     0.127 HD
HETATM   27  H   UNL     1       0.275  12.811  24.300  0.00  0.00     0.127 HD
ENDBRANCH   7  25
TORSDOF 3
ENDMDL
MODEL 5
REMARK VINA RESULT:    -7.482      3.109      5.564
REMARK INTER + INTRA:          -8.856
REMARK INTER:                  -8.476
REMARK INTRA:                  -0.380
REMARK UNBOUND:                -0.498
REMARK  3 active torsions:
REMARK  status: ('A' for Active; 'I' for Inactive)
REMARK    1  A    between atoms: C_7  and  N_8 
REMARK    2  A    between atoms: C_10  and  C_11 
REMARK       I    between atoms: C_11  and  N_13 
REMARK    3  A    between atoms: C_18  and  O_19 
ROOT
HETATM    1  C   UNL     1       8.973   8.554  24.011  0.00  0.00     0.048 C 
HETATM    2  C   UNL     1       9.341   9.939  23.566  0.00  0.00    -0.061 A 
HETATM    3  C   UNL     1      10.607  10.463  23.799  0.00  0.00     0.009 A 
HETATM    4  C   UNL     1      10.912  11.759  23.373  0.00  0.00     0.033 A 
HETATM    5  C   UNL     1       9.986  12.565  22.720  0.00  0.00     0.073 A 
HETATM    6  N   UNL     1      10.358  13.803  22.377  0.00  0.00    -0.218 NA
HETATM    7  C   UNL     1       9.462  14.591  21.785  0.00  0.00     0.200 A 
HETATM    8  N   UNL     1       8.223  14.239  21.466  0.00  0.00    -0.212 NA
HETATM    9  C   UNL     1       7.866  12.972  21.796  0.00  0.00     0.140 A 
HETATM   10  C   UNL     1       8.713  12.059  22.457  0.00  0.00     0.028 A 
HETATM   11  C   UNL     1       8.409  10.731  22.886  0.00  0.00     0.023 A 
ENDROOT
BRANCH   9  12
HETATM   12  C   UNL     1       6.497  12.548  21.344  0.00  0.00     0.274 C 
HETATM   13  O   UNL     1       6.400  11.821  20.352  0.00  0.00    -0.266 OA
HETATM   14  N   UNL     1       5.351  12.946  22.016  0.00  0.00    -0.338 N 
HETATM   15  C   UNL     1       5.191  13.850  23.165  0.00  0.00     0.165 A 
HETATM   16  C   UNL     1       4.079  12.379  21.579  0.00  0.00     0.165 A 
HETATM   17  C   UNL     1       3.705  13.844  23.407  0.00  0.00    -0.032 A 
HETATM   18  C   UNL     1       2.953  14.534  24.346  0.00  0.00     0.012 A 
HETATM   19  C   UNL     1       3.075  12.997  22.487  0.00  0.00    -0.030 A 
HETATM   20  C   UNL     1       1.561  14.364  24.349  0.00  0.00     0.037 A 
HETATM   21  C   UNL     1       0.951  13.510  23.419  0.00  0.00     0.066 A 
HETATM   22  C   UNL     1       1.702  12.816  22.481  0.00  0.00     0.046 A 
BRANCH  21  23
HETATM   23  O   UNL     1      -0.401  13.328  23.395  0.00  0.00    -0.361 OA
HETATM   24  H   UNL     1      -0.833  14.197  23.382  0.00  0.00     0.217 HD
ENDBRANCH  21  23
ENDBRANCH   9  12
BRANCH   7  25
HETATM   25  N   UNL     1       9.881  15.863  21.454  0.00  0.00    -0.271 NA
HETATM   26  H   UNL     1      10.761  15.808  20.956  0.00  0.00     0.127 HD
HETATM   27  H   UNL     1       9.134  16.375  21.008  0.00  0.00     0.127 HD
ENDBRANCH   7  25
TORSDOF 3
ENDMDL
MODEL 6
REMARK VINA RESULT:    -7.454      1.899      3.214
REMARK INTER + INTRA:          -8.824
REMARK INTER:                  -8.330
REMARK INTRA:                  -0.493
REMARK UNBOUND:                -0.498
REMARK  3 active torsions:
REMARK  status: ('A' for Active; 'I' for Inactive)
REMARK    1  A    between atoms: C_7  and  N_8 
REMARK    2  A    between atoms: C_10  and  C_11 
REMARK       I    between atoms: C_11  and  N_13 
REMARK    3  A    between atoms: C_18  and  O_19 
ROOT
HETATM    1  C   UNL     1       9.747  14.082  21.787  0.00  0.00     0.048 C 
HETATM    2  C   UNL     1       8.318  14.318  22.180  0.00  0.00    -0.061 A 
HETATM    3  C   UNL     1       7.863  15.583  22.534  0.00  0.00     0.009 A 
HETATM    4  C   UNL     1       6.525  15.763  22.898  0.00  0.00     0.033 A 
HETATM    5  C   UNL     1       5.614  14.713  22.931  0.00  0.00     0.073 A 
HETATM    6  N   UNL     1       4.363  14.976  23.322  0.00  0.00    -0.218 NA
HETATM    7  C   UNL     1       3.497  13.965  23.391  0.00  0.00     0.200 A 
HETATM    8  N   UNL     1       3.760  12.706  23.063  0.00  0.00    -0.212 NA
HETATM    9  C   UNL     1       5.026  12.458  22.643  0.00  0.00     0.140 A 
HETATM   10  C   UNL     1       6.039  13.436  22.565  0.00  0.00     0.028 A 
HETATM   11  C   UNL     1       7.404  13.258  22.184  0.00  0.00     0.023 A 
ENDROOT
BRANCH   9  12
HETATM   12  C   UNL     1       5.289  11.053  22.181  0.00  0.00     0.274 C 
HETATM   13  O   UNL     1       5.701  10.227  22.999  0.00  0.00    -0.266 OA
HETATM   14  N   UNL     1       5.073  10.664  20.866  0.00  0.00    -0.338 N 
HETATM   15  C   UNL     1       4.656  11.457  19.700  0.00  0.00     0.165 A 
HETATM   16  C   UNL     1       5.233   9.250  20.544  0.00  0.00     0.165 A 
HETATM   17  C   UNL     1       4.597  10.439  18.592  0.00  0.00    -0.032 A 
HETATM   18  C   UNL     1       4.289  10.602  17.249  0.00  0.00     0.012 A 
HETATM   19  C   UNL     1       4.934   9.174  19.088  0.00  0.00    -0.030 A 
HETATM   20  C   UNL     1       4.325   9.477  16.411  0.00  0.00     0.037 A 
HETATM   21  C   UNL     1       4.663   8.220  16.930  0.00  0.00     0.066 A 
HETATM   22  C   UNL     1       4.969   8.055  18.273  0.00  0.00     0.046 A 
BRANCH  21  23
HETATM   23  O   UNL     1       4.711   7.109  16.137  0.00  0.00    -0.361 OA
HETATM   24  H   UNL     1       4.559   7.375  15.216  0.00  0.00     0.217 HD
ENDBRANCH  21  23
ENDBRANCH   9  12
BRANCH   7  25
HETATM   25  N   UNL     1       2.218  14.275  23.806  0.00  0.00    -0.271 NA
HETATM   26  H   UNL     1       2.232  14.512  24.790  0.00  0.00     0.127 HD
HETATM   27  H   UNL     1       1.797  14.945  23.178  0.00  0.00     0.127 HD
ENDBRANCH   7  25
TORSDOF 3
ENDMDL
MODEL 7
REMARK VINA RESULT:    -7.389      2.384      3.429
REMARK INTER + INTRA:          -8.751
REMARK INTER:                  -8.257
REMARK INTRA:                  -0.493
REMARK UNBOUND:                -0.498
REMARK  3 active torsions:
REMARK  status: ('A' for Active; 'I' for Inactive)
REMARK    1  A    between atoms: C_7  and  N_8 
REMARK    2  A    between atoms: C_10  and  C_11 
REMARK       I    between atoms: C_11  and  N_13 
REMARK    3  A    between atoms: C_18  and  O_19 
ROOT
HETATM    1  C   UNL     1       2.645  14.924  23.686  0.00  0.00     0.048 C 
HETATM    2  C   UNL     1       4.103  14.889  23.334  0.00  0.00    -0.061 A 
HETATM    3  C   UNL     1       4.981  15.870  23.782  0.00  0.00     0.009 A 
HETATM    4  C   UNL     1       6.332  15.806  23.431  0.00  0.00     0.033 A 
HETATM    5  C   UNL     1       6.847  14.791  22.632  0.00  0.00     0.073 A 
HETATM    6  N   UNL     1       8.148  14.831  22.323  0.00  0.00    -0.218 NA
HETATM    7  C   UNL     1       8.636  13.881  21.527  0.00  0.00     0.200 A 
HETATM    8  N   UNL     1       7.944  12.860  21.036  0.00  0.00    -0.212 NA
HETATM    9  C   UNL     1       6.633  12.818  21.379  0.00  0.00     0.140 A 
HETATM   10  C   UNL     1       5.994  13.784  22.182  0.00  0.00     0.028 A 
HETATM   11  C   UNL     1       4.615  13.848  22.551  0.00  0.00     0.023 A 
ENDROOT
BRANCH   9  12
HETATM   12  C   UNL     1       5.880  11.608  20.902  0.00  0.00     0.274 C 
HETATM   13  O   UNL     1       5.308  11.658  19.810  0.00  0.00    -0.266 OA
HETATM   14  N   UNL     1       5.820  10.442  21.653  0.00  0.00    -0.338 N 
HETATM   15  C   UNL     1       6.349  10.150  22.993  0.00  0.00     0.165 A 
HETATM   16  C   UNL     1       5.175   9.281  21.049  0.00  0.00     0.165 A 
HETATM   17  C   UNL     1       5.958   8.713  23.214  0.00  0.00    -0.032 A 
HETATM   18  C   UNL     1       6.161   7.895  24.316  0.00  0.00     0.012 A 
HETATM   19  C   UNL     1       5.280   8.224  22.091  0.00  0.00    -0.030 A 
HETATM   20  C   UNL     1       5.674   6.580  24.275  0.00  0.00     0.037 A 
HETATM   21  C   UNL     1       5.000   6.111  23.139  0.00  0.00     0.066 A 
HETATM   22  C   UNL     1       4.798   6.928  22.035  0.00  0.00     0.046 A 
BRANCH  21  23
HETATM   23  O   UNL     1       4.511   4.838  23.072  0.00  0.00    -0.361 OA
HETATM   24  H   UNL     1       4.514   4.455  23.964  0.00  0.00     0.217 HD
ENDBRANCH  21  23
ENDBRANCH   9  12
BRANCH   7  25
HETATM   25  N   UNL     1       9.980  13.959  21.224  0.00  0.00    -0.271 NA
HETATM   26  H   UNL     1      10.494  14.245  22.048  0.00  0.00     0.127 HD
HETATM   27  H   UNL     1      10.287  13.116  20.762  0.00  0.00     0.127 HD
ENDBRANCH   7  25
TORSDOF 3
ENDMDL
MODEL 8
REMARK VINA RESULT:    -7.337      4.037      5.687
REMARK INTER + INTRA:          -8.693
REMARK INTER:                  -8.232
REMARK INTRA:                  -0.461
REMARK UNBOUND:                -0.498
REMARK  3 active torsions:
REMARK  status: ('A' for Active; 'I' for Inactive)
REMARK    1  A    between atoms: C_7  and  N_8 
REMARK    2  A    between atoms: C_10  and  C_11 
REMARK       I    between atoms: C_11  and  N_13 
REMARK    3  A    between atoms: C_18  and  O_19 
ROOT
HETATM    1  C   UNL     1       9.023   9.215  24.044  0.00  0.00     0.048 C 
HETATM    2  C   UNL     1       9.432  10.525  23.438  0.00  0.00    -0.061 A 
HETATM    3  C   UNL     1      10.470  10.604  22.516  0.00  0.00     0.009 A 
HETATM    4  C   UNL     1      10.825  11.843  21.975  0.00  0.00     0.033 A 
HETATM    5  C   UNL     1      10.179  13.023  22.329  0.00  0.00     0.073 A 
HETATM    6  N   UNL     1      10.609  14.166  21.782  0.00  0.00    -0.218 NA
HETATM    7  C   UNL     1      10.017  15.302  22.147  0.00  0.00     0.200 A 
HETATM    8  N   UNL     1       8.997  15.399  22.990  0.00  0.00    -0.212 NA
HETATM    9  C   UNL     1       8.554  14.231  23.518  0.00  0.00     0.140 A 
HETATM   10  C   UNL     1       9.123  12.971  23.238  0.00  0.00     0.028 A 
HETATM   11  C   UNL     1       8.757  11.702  23.782  0.00  0.00     0.023 A 
ENDROOT
BRANCH   9  12
HETATM   12  C   UNL     1       7.338  14.337  24.394  0.00  0.00     0.274 C 
HETATM   13  O   UNL     1       7.482  14.691  25.567  0.00  0.00    -0.266 OA
HETATM   14  N   UNL     1       6.066  14.057  23.915  0.00  0.00    -0.338 N 
HETATM   15  C   UNL     1       5.637  13.561  22.599  0.00  0.00     0.165 A 
HETATM   16  C   UNL     1       4.937  14.314  24.803  0.00  0.00     0.165 A 
HETATM   17  C   UNL     1       4.139  13.486  22.728  0.00  0.00    -0.032 A 
HETATM   18  C   UNL     1       3.187  13.058  21.814  0.00  0.00     0.012 A 
HETATM   19  C   UNL     1       3.747  13.918  24.000  0.00  0.00    -0.030 A 
HETATM   20  C   UNL     1       1.837  13.070  22.195  0.00  0.00     0.037 A 
HETATM   21  C   UNL     1       1.468  13.509  23.474  0.00  0.00     0.066 A 
HETATM   22  C   UNL     1       2.419  13.940  24.389  0.00  0.00     0.046 A 
BRANCH  21  23
HETATM   23  O   UNL     1       0.163  13.527  23.875  0.00  0.00    -0.361 OA
HETATM   24  H   UNL     1       0.020  14.304  24.439  0.00  0.00     0.217 HD
ENDBRANCH  21  23
ENDBRANCH   9  12
BRANCH   7  25
HETATM   25  N   UNL     1      10.493  16.460  21.567  0.00  0.00    -0.271 NA
HETATM   26  H   UNL     1      11.186  16.880  22.173  0.00  0.00     0.127 HD
HETATM   27  H   UNL     1      10.765  16.288  20.610  0.00  0.00     0.127 HD
ENDBRANCH   7  25
TORSDOF 3
ENDMDL
MODEL 9
REMARK VINA RESULT:    -7.297      2.284      2.916
REMARK INTER + INTRA:          -8.648
REMARK INTER:                  -8.150
REMARK INTRA:                  -0.498
REMARK UNBOUND:                -0.498
REMARK  3 active torsions:
REMARK  status: ('A' for Active; 'I' for Inactive)
REMARK    1  A    between atoms: C_7  and  N_8 
REMARK    2  A    between atoms: C_10  and  C_11 
REMARK       I    between atoms: C_11  and  N_13 
REMARK    3  A    between atoms: C_18  and  O_19 
ROOT
HETATM    1  C   UNL     1       4.880  16.143  23.780  0.00  0.00     0.048 C 
HETATM    2  C   UNL     1       6.107  15.387  24.198  0.00  0.00    -0.061 A 
HETATM    3  C   UNL     1       6.555  15.404  25.514  0.00  0.00     0.009 A 
HETATM    4  C   UNL     1       7.704  14.690  25.865  0.00  0.00     0.033 A 
HETATM    5  C   UNL     1       8.437  13.956  24.939  0.00  0.00     0.073 A 
HETATM    6  N   UNL     1       9.541  13.330  25.362  0.00  0.00    -0.218 NA
HETATM    7  C   UNL     1      10.266  12.657  24.470  0.00  0.00     0.200 A 
HETATM    8  N   UNL     1       9.965  12.517  23.185  0.00  0.00    -0.212 NA
HETATM    9  C   UNL     1       8.829  13.134  22.775  0.00  0.00     0.140 A 
HETATM   10  C   UNL     1       8.001  13.906  23.616  0.00  0.00     0.028 A 
HETATM   11  C   UNL     1       6.821  14.630  23.262  0.00  0.00     0.023 A 
ENDROOT
BRANCH   9  12
HETATM   12  C   UNL     1       8.442  12.891  21.344  0.00  0.00     0.274 C 
HETATM   13  O   UNL     1       8.919  13.618  20.469  0.00  0.00    -0.266 OA
HETATM   14  N   UNL     1       7.575  11.868  20.986  0.00  0.00    -0.338 N 
HETATM   15  C   UNL     1       6.831  10.919  21.827  0.00  0.00     0.165 A 
HETATM   16  C   UNL     1       7.362  11.629  19.562  0.00  0.00     0.165 A 
HETATM   17  C   UNL     1       6.092  10.073  20.824  0.00  0.00    -0.032 A 
HETATM   18  C   UNL     1       5.204   9.026  21.025  0.00  0.00     0.012 A 
HETATM   19  C   UNL     1       6.402  10.492  19.525  0.00  0.00    -0.030 A 
HETATM   20  C   UNL     1       4.631   8.407  19.904  0.00  0.00     0.037 A 
HETATM   21  C   UNL     1       4.958   8.842  18.612  0.00  0.00     0.066 A 
HETATM   22  C   UNL     1       5.849   9.887  18.409  0.00  0.00     0.046 A 
BRANCH  21  23
HETATM   23  O   UNL     1       4.413   8.262  17.503  0.00  0.00    -0.361 OA
HETATM   24  H   UNL     1       3.615   7.775  17.765  0.00  0.00     0.217 HD
ENDBRANCH  21  23
ENDBRANCH   9  12
BRANCH   7  25
HETATM   25  N   UNL     1      11.401  12.031  24.943  0.00  0.00    -0.271 NA
HETATM   26  H   UNL     1      12.184  12.671  24.894  0.00  0.00     0.127 HD
HETATM   27  H   UNL     1      11.218  11.599  25.837  0.00  0.00     0.127 HD
ENDBRANCH   7  25
TORSDOF 3
ENDMDL
