REMARK  3 active torsions:
REMARK  status: ('A' for Active; 'I' for Inactive)
REMARK    1  A    between atoms: C_7  and  N_8 
REMARK    2  A    between atoms: C_10  and  C_11 
REMARK       I    between atoms: C_11  and  N_13 
REMARK    3  A    between atoms: C_18  and  O_19 
ROOT
HETATM    1  C   UNL     1       1.046   0.009   0.038  0.00  0.00     0.048 C 
HETATM    2  C   UNL     1       2.545  -0.036   0.081  0.00  0.00    -0.061 A 
HETATM    3  C   UNL     1       3.305   1.128   0.103  0.00  0.00     0.009 A 
HETATM    4  C   UNL     1       4.700   1.046   0.140  0.00  0.00     0.033 A 
HETATM    5  C   UNL     1       5.375  -0.170   0.148  0.00  0.00     0.073 A 
HETATM    6  N   UNL     1       6.712  -0.149   0.152  0.00  0.00    -0.218 NA
HETATM    7  C   UNL     1       7.362  -1.312   0.122  0.00  0.00     0.200 A 
HETATM    8  N   UNL     1       6.791  -2.510   0.127  0.00  0.00    -0.212 NA
HETATM    9  C   UNL     1       5.435  -2.517   0.149  0.00  0.00     0.140 A 
HETATM   10  C   UNL     1       4.638  -1.354   0.144  0.00  0.00     0.028 A 
HETATM   11  C   UNL     1       3.212  -1.266   0.116  0.00  0.00     0.023 A 
ENDROOT
BRANCH   9  12
HETATM   12  C   UNL     1       4.798  -3.874   0.254  0.00  0.00     0.274 C 
HETATM   13  O   UNL     1       3.743  -3.986   0.883  0.00  0.00    -0.266 OA
HETATM   14  N   UNL     1       5.361  -4.993  -0.343  0.00  0.00    -0.338 N 
HETATM   15  C   UNL     1       6.625  -5.139  -1.080  0.00  0.00     0.165 A 
HETATM   16  C   UNL     1       4.603  -6.239  -0.295  0.00  0.00     0.165 A 
HETATM   17  C   UNL     1       6.633  -6.593  -1.470  0.00  0.00    -0.032 A 
HETATM   18  C   UNL     1       7.589  -7.325  -2.159  0.00  0.00     0.012 A 
HETATM   19  C   UNL     1       5.467  -7.217  -1.011  0.00  0.00    -0.030 A 
HETATM   20  C   UNL     1       7.359  -8.691  -2.380  0.00  0.00     0.037 A 
HETATM   21  C   UNL     1       6.183  -9.294  -1.913  0.00  0.00     0.066 A 
HETATM   22  C   UNL     1       5.224  -8.563  -1.226  0.00  0.00     0.046 A 
BRANCH  21  23
HETATM   23  O   UNL     1       5.934 -10.622  -2.109  0.00  0.00    -0.361 OA
HETATM   24  H   UNL     1       6.686 -11.015  -2.580  0.00  0.00     0.217 HD
ENDBRANCH  21  23
ENDBRANCH   9  12
BRANCH   7  25
HETATM   25  N   UNL     1       8.740  -1.249   0.120  0.00  0.00    -0.271 NA
HETATM   26  H   UNL     1       9.037  -0.358   0.498  0.00  0.00     0.127 HD
HETATM   27  H   UNL     1       9.131  -2.079   0.542  0.00  0.00     0.127 HD
ENDBRANCH   7  25
TORSDOF 3
