MODEL 1
REMARK VINA RESULT:    -7.800      0.000      0.000
REMARK INTER + INTRA:         -11.987
REMARK INTER:                 -10.154
REMARK INTRA:                  -1.834
REMARK UNBOUND:                -1.907
REMARK  6 active torsions:
REMARK  status: ('A' for Active; 'I' for Inactive)
REMARK    1  A    between atoms: N_4  and  S_6 
REMARK    2  A    between atoms: S_6  and  C_9 
REMARK    3  A    between atoms: C_11  and  C_17 
REMARK    4  A    between atoms: C_12  and  O_13 
REMARK    5  A    between atoms: C_15  and  O_16 
REMARK    6  A    between atoms: N_23  and  C_24 
ROOT
HETATM    1  C   UNL     1       4.765  10.298  23.901  0.00  0.00     0.121 A 
HETATM    2  C   UNL     1       5.656  10.991  24.735  0.00  0.00     0.046 A 
HETATM    3  C   UNL     1       6.805  11.601  24.223  0.00  0.00     0.047 A 
HETATM    4  C   UNL     1       7.044  11.501  22.845  0.00  0.00     0.082 A 
HETATM    5  C   UNL     1       6.186  10.775  22.013  0.00  0.00     0.075 A 
HETATM    6  C   UNL     1       5.034  10.184  22.536  0.00  0.00     0.091 A 
ENDROOT
BRANCH   3   7
HETATM    7  C   UNL     1       7.619  12.511  25.070  0.00  0.00     0.172 A 
HETATM    8  N   UNL     1       8.728  12.086  25.625  0.00  0.00    -0.151 NA
HETATM    9  N   UNL     1       9.291  13.207  26.155  0.00  0.00    -0.226 N 
HETATM   10  H   UNL     1      10.181  13.212  26.635  0.00  0.00     0.194 HD
HETATM   11  C   UNL     1       8.502  14.327  25.915  0.00  0.00     0.349 A 
HETATM   12  O   UNL     1       8.766  15.464  26.274  0.00  0.00    -0.245 OA
HETATM   13  N   UNL     1       7.401  13.855  25.231  0.00  0.00    -0.241 N 
BRANCH  13  14
HETATM   14  C   UNL     1       6.268  14.644  24.963  0.00  0.00     0.084 A 
HETATM   15  C   UNL     1       6.030  15.178  23.693  0.00  0.00     0.143 A 
HETATM   16  F   UNL     1       6.857  14.895  22.676  0.00  0.00    -0.204 F 
HETATM   17  C   UNL     1       4.926  15.992  23.450  0.00  0.00     0.044 A 
HETATM   18  C   UNL     1       4.052  16.297  24.493  0.00  0.00     0.003 A 
HETATM   19  C   UNL     1       4.277  15.772  25.766  0.00  0.00     0.002 A 
HETATM   20  C   UNL     1       5.368  14.930  25.997  0.00  0.00     0.033 A 
ENDBRANCH  13  14
ENDBRANCH   3   7
BRANCH   4  21
HETATM   21  O   UNL     1       8.077  12.142  22.214  0.00  0.00    -0.360 OA
HETATM   22  H   UNL     1       8.111  13.069  22.538  0.00  0.00     0.217 HD
ENDBRANCH   4  21
BRANCH   1  23
HETATM   23  S   UNL     1       3.255   9.714  24.654  0.00  0.00     0.349 S 
HETATM   24  O   UNL     1       3.554   9.452  26.050  0.00  0.00    -0.193 OA
HETATM   25  O   UNL     1       2.663   8.680  23.836  0.00  0.00    -0.193 OA
BRANCH  23  26
HETATM   26  N   UNL     1       2.257  11.138  24.587  0.00  0.00     0.028 N 
HETATM   27  C   UNL     1       2.235  13.539  23.726  0.00  0.00     0.178 A 
HETATM   28  C   UNL     1       0.782  13.950  23.531  0.00  0.00     0.036 C 
HETATM   29  C   UNL     1       2.579  12.071  23.463  0.00  0.00     0.366 A 
HETATM   30  C   UNL     1       0.818  10.825  24.732  0.00  0.00     0.293 C 
ENDBRANCH  23  26
ENDBRANCH   1  23
BRANCH   6  31
HETATM   31  O   UNL     1       4.152   9.595  21.688  0.00  0.00    -0.359 OA
HETATM   32  H   UNL     1       4.392   9.786  20.764  0.00  0.00     0.217 HD
ENDBRANCH   6  31
TORSDOF 6
ENDMDL
MODEL 2
REMARK VINA RESULT:    -7.633      2.499      3.993
REMARK INTER + INTRA:         -11.771
REMARK INTER:                  -9.933
REMARK INTRA:                  -1.839
REMARK UNBOUND:                -1.907
REMARK  6 active torsions:
REMARK  status: ('A' for Active; 'I' for Inactive)
REMARK    1  A    between atoms: N_4  and  S_6 
REMARK    2  A    between atoms: S_6  and  C_9 
REMARK    3  A    between atoms: C_11  and  C_17 
REMARK    4  A    between atoms: C_12  and  O_13 
REMARK    5  A    between atoms: C_15  and  O_16 
REMARK    6  A    between atoms: N_23  and  C_24 
ROOT
HETATM    1  C   UNL     1       6.429  10.593  21.731  0.00  0.00     0.121 A 
HETATM    2  C   UNL     1       6.794  11.064  23.001  0.00  0.00     0.046 A 
HETATM    3  C   UNL     1       7.835  11.982  23.164  0.00  0.00     0.047 A 
HETATM    4  C   UNL     1       8.509  12.421  22.015  0.00  0.00     0.082 A 
HETATM    5  C   UNL     1       8.182  11.924  20.750  0.00  0.00     0.075 A 
HETATM    6  C   UNL     1       7.129  11.018  20.602  0.00  0.00     0.091 A 
ENDROOT
BRANCH   3   7
HETATM    7  C   UNL     1       8.068  12.637  24.477  0.00  0.00     0.172 A 
HETATM    8  N   UNL     1       9.122  12.331  25.194  0.00  0.00    -0.151 NA
HETATM    9  N   UNL     1       9.112  13.234  26.213  0.00  0.00    -0.226 N 
HETATM   10  H   UNL     1       9.822  13.275  26.932  0.00  0.00     0.194 HD
HETATM   11  C   UNL     1       8.028  14.099  26.106  0.00  0.00     0.349 A 
HETATM   12  O   UNL     1       7.773  15.008  26.880  0.00  0.00    -0.245 OA
HETATM   13  N   UNL     1       7.340  13.682  24.985  0.00  0.00    -0.241 N 
BRANCH  13  14
HETATM   14  C   UNL     1       6.072  14.179  24.634  0.00  0.00     0.084 A 
HETATM   15  C   UNL     1       4.897  13.518  25.003  0.00  0.00     0.143 A 
HETATM   16  F   UNL     1       4.953  12.414  25.762  0.00  0.00    -0.204 F 
HETATM   17  C   UNL     1       3.649  14.000  24.613  0.00  0.00     0.044 A 
HETATM   18  C   UNL     1       3.567  15.147  23.826  0.00  0.00     0.003 A 
HETATM   19  C   UNL     1       4.732  15.817  23.449  0.00  0.00     0.002 A 
HETATM   20  C   UNL     1       5.979  15.349  23.869  0.00  0.00     0.033 A 
ENDBRANCH  13  14
ENDBRANCH   3   7
BRANCH   4  21
HETATM   21  O   UNL     1       9.474  13.394  22.037  0.00  0.00    -0.360 OA
HETATM   22  H   UNL     1       9.120  14.191  21.584  0.00  0.00     0.217 HD
ENDBRANCH   4  21
BRANCH   1  23
HETATM   23  S   UNL     1       4.975   9.557  21.650  0.00  0.00     0.349 S 
HETATM   24  O   UNL     1       4.284   9.896  20.421  0.00  0.00    -0.193 OA
HETATM   25  O   UNL     1       4.270   9.597  22.911  0.00  0.00    -0.193 OA
BRANCH  23  26
HETATM   26  N   UNL     1       5.682   7.980  21.440  0.00  0.00     0.028 N 
HETATM   27  C   UNL     1       7.495   6.448  22.373  0.00  0.00     0.178 A 
HETATM   28  C   UNL     1       7.097   5.012  22.062  0.00  0.00     0.036 C 
HETATM   29  C   UNL     1       6.360   7.434  22.657  0.00  0.00     0.366 A 
HETATM   30  C   UNL     1       4.759   7.034  20.774  0.00  0.00     0.293 C 
ENDBRANCH  23  26
ENDBRANCH   1  23
BRANCH   6  31
HETATM   31  O   UNL     1       6.748  10.650  19.352  0.00  0.00    -0.359 OA
HETATM   32  H   UNL     1       7.495  10.731  18.733  0.00  0.00     0.217 HD
ENDBRANCH   6  31
TORSDOF 6
ENDMDL
MODEL 3
REMARK VINA RESULT:    -7.579      1.230      1.392
REMARK INTER + INTRA:         -11.701
REMARK INTER:                  -9.636
REMARK INTRA:                  -2.065
REMARK UNBOUND:                -1.907
REMARK  6 active torsions:
REMARK  status: ('A' for Active; 'I' for Inactive)
REMARK    1  A    between atoms: N_4  and  S_6 
REMARK    2  A    between atoms: S_6  and  C_9 
REMARK    3  A    between atoms: C_11  and  C_17 
REMARK    4  A    between atoms: C_12  and  O_13 
REMARK    5  A    between atoms: C_15  and  O_16 
REMARK    6  A    between atoms: N_23  and  C_24 
ROOT
HETATM    1  C   UNL     1       6.360  10.346  23.106  0.00  0.00     0.121 A 
HETATM    2  C   UNL     1       6.975  11.044  24.158  0.00  0.00     0.046 A 
HETATM    3  C   UNL     1       8.086  11.861  23.936  0.00  0.00     0.047 A 
HETATM    4  C   UNL     1       8.574  11.965  22.625  0.00  0.00     0.082 A 
HETATM    5  C   UNL     1       7.996  11.240  21.579  0.00  0.00     0.075 A 
HETATM    6  C   UNL     1       6.876  10.439  21.813  0.00  0.00     0.091 A 
ENDROOT
BRANCH   3   7
HETATM    7  C   UNL     1       8.590  12.759  25.006  0.00  0.00     0.172 A 
HETATM    8  N   UNL     1       9.665  12.444  25.686  0.00  0.00    -0.151 NA
HETATM    9  N   UNL     1       9.933  13.554  26.430  0.00  0.00    -0.226 N 
HETATM   10  H   UNL     1      10.728  13.633  27.050  0.00  0.00     0.194 HD
HETATM   11  C   UNL     1       8.997  14.554  26.192  0.00  0.00     0.349 A 
HETATM   12  O   UNL     1       8.994  15.655  26.720  0.00  0.00    -0.245 OA
HETATM   13  N   UNL     1       8.111  14.014  25.283  0.00  0.00    -0.241 N 
BRANCH  13  14
HETATM   14  C   UNL     1       6.904  14.640  24.923  0.00  0.00     0.084 A 
HETATM   15  C   UNL     1       6.713  15.186  23.650  0.00  0.00     0.143 A 
HETATM   16  F   UNL     1       7.668  15.069  22.715  0.00  0.00    -0.204 F 
HETATM   17  C   UNL     1       5.528  15.840  23.318  0.00  0.00     0.044 A 
HETATM   18  C   UNL     1       4.522  15.971  24.274  0.00  0.00     0.003 A 
HETATM   19  C   UNL     1       4.698  15.431  25.549  0.00  0.00     0.002 A 
HETATM   20  C   UNL     1       5.875  14.749  25.867  0.00  0.00     0.033 A 
ENDBRANCH  13  14
ENDBRANCH   3   7
BRANCH   4  21
HETATM   21  O   UNL     1       9.589  12.813  22.267  0.00  0.00    -0.360 OA
HETATM   22  H   UNL     1       9.779  12.684  21.312  0.00  0.00     0.217 HD
ENDBRANCH   4  21
BRANCH   1  23
HETATM   23  S   UNL     1       4.850   9.476  23.498  0.00  0.00     0.349 S 
HETATM   24  O   UNL     1       5.095   8.738  24.723  0.00  0.00    -0.193 OA
HETATM   25  O   UNL     1       4.359   8.787  22.325  0.00  0.00    -0.193 OA
BRANCH  23  26
HETATM   26  N   UNL     1       3.778  10.792  23.880  0.00  0.00     0.028 N 
HETATM   27  C   UNL     1       3.121  13.137  23.121  0.00  0.00     0.178 A 
HETATM   28  C   UNL     1       1.696  13.395  23.589  0.00  0.00     0.036 C 
HETATM   29  C   UNL     1       3.471  11.699  22.731  0.00  0.00     0.366 A 
HETATM   30  C   UNL     1       2.592  10.347  24.646  0.00  0.00     0.293 C 
ENDBRANCH  23  26
ENDBRANCH   1  23
BRANCH   6  31
HETATM   31  O   UNL     1       6.257   9.848  20.759  0.00  0.00    -0.359 OA
HETATM   32  H   UNL     1       6.080   8.911  20.953  0.00  0.00     0.217 HD
ENDBRANCH   6  31
TORSDOF 6
ENDMDL
MODEL 4
REMARK VINA RESULT:    -7.537      3.636      6.994
REMARK INTER + INTRA:         -11.647
REMARK INTER:                  -9.743
REMARK INTRA:                  -1.903
REMARK UNBOUND:                -1.907
REMARK  6 active torsions:
REMARK  status: ('A' for Active; 'I' for Inactive)
REMARK    1  A    between atoms: N_4  and  S_6 
REMARK    2  A    between atoms: S_6  and  C_9 
REMARK    3  A    between atoms: C_11  and  C_17 
REMARK    4  A    between atoms: C_12  and  O_13 
REMARK    5  A    between atoms: C_15  and  O_16 
REMARK    6  A    between atoms: N_23  and  C_24 
ROOT
HETATM    1  C   UNL     1       3.106   8.912  23.795  0.00  0.00     0.121 A 
HETATM    2  C   UNL     1       2.048   9.539  24.471  0.00  0.00     0.046 A 
HETATM    3  C   UNL     1       0.802   8.921  24.602  0.00  0.00     0.047 A 
HETATM    4  C   UNL     1       0.636   7.649  24.034  0.00  0.00     0.082 A 
HETATM    5  C   UNL     1       1.671   7.036  23.321  0.00  0.00     0.075 A 
HETATM    6  C   UNL     1       2.916   7.659  23.212  0.00  0.00     0.091 A 
ENDROOT
BRANCH   3   7
HETATM    7  C   UNL     1      -0.235   9.491  25.500  0.00  0.00     0.172 A 
HETATM    8  N   UNL     1      -0.521   8.907  26.638  0.00  0.00    -0.151 NA
HETATM    9  N   UNL     1      -1.355   9.782  27.268  0.00  0.00    -0.226 N 
HETATM   10  H   UNL     1      -1.734   9.626  28.192  0.00  0.00     0.194 HD
HETATM   11  C   UNL     1      -1.574  10.913  26.489  0.00  0.00     0.349 A 
HETATM   12  O   UNL     1      -2.277  11.860  26.806  0.00  0.00    -0.245 OA
HETATM   13  N   UNL     1      -0.861  10.699  25.328  0.00  0.00    -0.241 N 
BRANCH  13  14
HETATM   14  C   UNL     1      -0.970  11.527  24.196  0.00  0.00     0.084 A 
HETATM   15  C   UNL     1      -2.117  11.530  23.397  0.00  0.00     0.143 A 
HETATM   16  F   UNL     1      -3.176  10.778  23.733  0.00  0.00    -0.204 F 
HETATM   17  C   UNL     1      -2.197  12.326  22.257  0.00  0.00     0.044 A 
HETATM   18  C   UNL     1      -1.109  13.117  21.891  0.00  0.00     0.003 A 
HETATM   19  C   UNL     1       0.043  13.124  22.678  0.00  0.00     0.002 A 
HETATM   20  C   UNL     1       0.106  12.350  23.839  0.00  0.00     0.033 A 
ENDBRANCH  13  14
ENDBRANCH   3   7
BRANCH   4  21
HETATM   21  O   UNL     1      -0.502   6.902  24.185  0.00  0.00    -0.360 OA
HETATM   22  H   UNL     1      -1.276   7.505  24.146  0.00  0.00     0.217 HD
ENDBRANCH   4  21
BRANCH   1  23
HETATM   23  S   UNL     1       4.690   9.738  23.849  0.00  0.00     0.349 S 
HETATM   24  O   UNL     1       5.474   9.217  22.745  0.00  0.00    -0.193 OA
HETATM   25  O   UNL     1       5.220   9.700  25.194  0.00  0.00    -0.193 OA
BRANCH  23  26
HETATM   26  N   UNL     1       4.245  11.373  23.455  0.00  0.00     0.028 N 
HETATM   27  C   UNL     1       3.611  13.600  24.527  0.00  0.00     0.178 A 
HETATM   28  C   UNL     1       3.951  14.705  23.537  0.00  0.00     0.036 C 
HETATM   29  C   UNL     1       4.526  12.372  24.532  0.00  0.00     0.366 A 
HETATM   30  C   UNL     1       4.709  11.774  22.109  0.00  0.00     0.293 C 
ENDBRANCH  23  26
ENDBRANCH   1  23
BRANCH   6  31
HETATM   31  O   UNL     1       3.940   6.988  22.626  0.00  0.00    -0.359 OA
HETATM   32  H   UNL     1       4.420   7.571  22.012  0.00  0.00     0.217 HD
ENDBRANCH   6  31
TORSDOF 6
ENDMDL
MODEL 5
REMARK VINA RESULT:    -7.480      2.151      2.911
REMARK INTER + INTRA:         -11.574
REMARK INTER:                  -9.810
REMARK INTRA:                  -1.764
REMARK UNBOUND:                -1.907
REMARK  6 active torsions:
REMARK  status: ('A' for Active; 'I' for Inactive)
REMARK    1  A    between atoms: N_4  and  S_6 
REMARK    2  A    between atoms: S_6  and  C_9 
REMARK    3  A    between atoms: C_11  and  C_17 
REMARK    4  A    between atoms: C_12  and  O_13 
REMARK    5  A    between atoms: C_15  and  O_16 
REMARK    6  A    between atoms: N_23  and  C_24 
ROOT
HETATM    1  C   UNL     1       6.517  11.146  21.738  0.00  0.00     0.121 A 
HETATM    2  C   UNL     1       7.072  11.685  22.909  0.00  0.00     0.046 A 
HETATM    3  C   UNL     1       8.354  12.241  22.916  0.00  0.00     0.047 A 
HETATM    4  C   UNL     1       9.075  12.246  21.713  0.00  0.00     0.082 A 
HETATM    5  C   UNL     1       8.548  11.672  20.552  0.00  0.00     0.075 A 
HETATM    6  C   UNL     1       7.259  11.133  20.557  0.00  0.00     0.091 A 
ENDROOT
BRANCH   3   7
HETATM    7  C   UNL     1       8.842  13.000  24.096  0.00  0.00     0.172 A 
HETATM    8  N   UNL     1       9.989  12.695  24.653  0.00  0.00    -0.151 NA
HETATM    9  N   UNL     1      10.199  13.689  25.561  0.00  0.00    -0.226 N 
HETATM   10  H   UNL     1      11.025  13.751  26.141  0.00  0.00     0.194 HD
HETATM   11  C   UNL     1       9.156  14.608  25.547  0.00  0.00     0.349 A 
HETATM   12  O   UNL     1       9.084  15.601  26.255  0.00  0.00    -0.245 OA
HETATM   13  N   UNL     1       8.265  14.133  24.608  0.00  0.00    -0.241 N 
BRANCH  13  14
HETATM   14  C   UNL     1       6.981  14.677  24.425  0.00  0.00     0.084 A 
HETATM   15  C   UNL     1       6.613  15.304  23.230  0.00  0.00     0.143 A 
HETATM   16  F   UNL     1       7.470  15.346  22.200  0.00  0.00    -0.204 F 
HETATM   17  C   UNL     1       5.352  15.873  23.076  0.00  0.00     0.044 A 
HETATM   18  C   UNL     1       4.445  15.838  24.134  0.00  0.00     0.003 A 
HETATM   19  C   UNL     1       4.797  15.216  25.333  0.00  0.00     0.002 A 
HETATM   20  C   UNL     1       6.051  14.618  25.472  0.00  0.00     0.033 A 
ENDBRANCH  13  14
ENDBRANCH   3   7
BRANCH   4  21
HETATM   21  O   UNL     1      10.294  12.854  21.571  0.00  0.00    -0.360 OA
HETATM   22  H   UNL     1      10.368  13.190  20.651  0.00  0.00     0.217 HD
ENDBRANCH   4  21
BRANCH   1  23
HETATM   23  S   UNL     1       4.811  10.623  21.829  0.00  0.00     0.349 S 
HETATM   24  O   UNL     1       4.595   9.696  20.734  0.00  0.00    -0.193 OA
HETATM   25  O   UNL     1       3.950  11.774  21.982  0.00  0.00    -0.193 OA
BRANCH  23  26
HETATM   26  N   UNL     1       4.806   9.704  23.306  0.00  0.00     0.028 N 
HETATM   27  C   UNL     1       3.782   9.656  25.642  0.00  0.00     0.178 A 
HETATM   28  C   UNL     1       3.806   8.215  26.131  0.00  0.00     0.036 C 
HETATM   29  C   UNL     1       3.577   9.873  24.141  0.00  0.00     0.366 A 
HETATM   30  C   UNL     1       5.218   8.298  23.097  0.00  0.00     0.293 C 
ENDBRANCH  23  26
ENDBRANCH   1  23
BRANCH   6  31
HETATM   31  O   UNL     1       6.723  10.698  19.388  0.00  0.00    -0.359 OA
HETATM   32  H   UNL     1       7.125  11.167  18.636  0.00  0.00     0.217 HD
ENDBRANCH   6  31
TORSDOF 6
ENDMDL
MODEL 6
REMARK VINA RESULT:    -7.407      2.508      3.620
REMARK INTER + INTRA:         -11.479
REMARK INTER:                  -9.264
REMARK INTRA:                  -2.215
REMARK UNBOUND:                -1.907
REMARK  6 active torsions:
REMARK  status: ('A' for Active; 'I' for Inactive)
REMARK    1  A    between atoms: N_4  and  S_6 
REMARK    2  A    between atoms: S_6  and  C_9 
REMARK    3  A    between atoms: C_11  and  C_17 
REMARK    4  A    between atoms: C_12  and  O_13 
REMARK    5  A    between atoms: C_15  and  O_16 
REMARK    6  A    between atoms: N_23  and  C_24 
ROOT
HETATM    1  C   UNL     1       4.685  11.591  22.624  0.00  0.00     0.121 A 
HETATM    2  C   UNL     1       5.638  12.604  22.436  0.00  0.00     0.046 A 
HETATM    3  C   UNL     1       6.800  12.378  21.694  0.00  0.00     0.047 A 
HETATM    4  C   UNL     1       6.990  11.104  21.140  0.00  0.00     0.082 A 
HETATM    5  C   UNL     1       6.068  10.076  21.359  0.00  0.00     0.075 A 
HETATM    6  C   UNL     1       4.903  10.321  22.090  0.00  0.00     0.091 A 
ENDROOT
BRANCH   3   7
HETATM    7  C   UNL     1       7.689  13.508  21.318  0.00  0.00     0.172 A 
HETATM    8  N   UNL     1       7.874  13.815  20.057  0.00  0.00    -0.151 NA
HETATM    9  N   UNL     1       8.574  14.984  20.093  0.00  0.00    -0.226 N 
HETATM   10  H   UNL     1       8.851  15.495  19.266  0.00  0.00     0.194 HD
HETATM   11  C   UNL     1       8.814  15.384  21.403  0.00  0.00     0.349 A 
HETATM   12  O   UNL     1       9.416  16.394  21.732  0.00  0.00    -0.245 OA
HETATM   13  N   UNL     1       8.256  14.399  22.192  0.00  0.00    -0.241 N 
BRANCH  13  14
HETATM   14  C   UNL     1       8.447  14.331  23.584  0.00  0.00     0.084 A 
HETATM   15  C   UNL     1       7.531  14.894  24.478  0.00  0.00     0.143 A 
HETATM   16  F   UNL     1       6.407  15.466  24.021  0.00  0.00    -0.204 F 
HETATM   17  C   UNL     1       7.752  14.855  25.853  0.00  0.00     0.044 A 
HETATM   18  C   UNL     1       8.913  14.264  26.348  0.00  0.00     0.003 A 
HETATM   19  C   UNL     1       9.836  13.697  25.468  0.00  0.00     0.002 A 
HETATM   20  C   UNL     1       9.595  13.710  24.093  0.00  0.00     0.033 A 
ENDBRANCH  13  14
ENDBRANCH   3   7
BRANCH   4  21
HETATM   21  O   UNL     1       8.035  10.794  20.310  0.00  0.00    -0.360 OA
HETATM   22  H   UNL     1       7.890   9.890  19.953  0.00  0.00     0.217 HD
ENDBRANCH   4  21
BRANCH   1  23
HETATM   23  S   UNL     1       3.170  12.061  23.446  0.00  0.00     0.349 S 
HETATM   24  O   UNL     1       2.779  10.942  24.282  0.00  0.00    -0.193 OA
HETATM   25  O   UNL     1       2.237  12.607  22.486  0.00  0.00    -0.193 OA
BRANCH  23  26
HETATM   26  N   UNL     1       3.723  13.335  24.495  0.00  0.00     0.028 N 
HETATM   27  C   UNL     1       3.487  15.840  24.915  0.00  0.00     0.178 A 
HETATM   28  C   UNL     1       3.816  16.099  26.378  0.00  0.00     0.036 C 
HETATM   29  C   UNL     1       2.803  14.511  24.586  0.00  0.00     0.366 A 
HETATM   30  C   UNL     1       4.197  12.824  25.800  0.00  0.00     0.293 C 
ENDBRANCH  23  26
ENDBRANCH   1  23
BRANCH   6  31
HETATM   31  O   UNL     1       3.964   9.343  22.180  0.00  0.00    -0.359 OA
HETATM   32  H   UNL     1       4.353   8.535  22.556  0.00  0.00     0.217 HD
ENDBRANCH   6  31
TORSDOF 6
ENDMDL
MODEL 7
REMARK VINA RESULT:    -7.317      2.050      2.599
REMARK INTER + INTRA:         -11.362
REMARK INTER:                  -9.921
REMARK INTRA:                  -1.442
REMARK UNBOUND:                -1.907
REMARK  6 active torsions:
REMARK  status: ('A' for Active; 'I' for Inactive)
REMARK    1  A    between atoms: N_4  and  S_6 
REMARK    2  A    between atoms: S_6  and  C_9 
REMARK    3  A    between atoms: C_11  and  C_17 
REMARK    4  A    between atoms: C_12  and  O_13 
REMARK    5  A    between atoms: C_15  and  O_16 
REMARK    6  A    between atoms: N_23  and  C_24 
ROOT
HETATM    1  C   UNL     1       4.861  10.698  23.575  0.00  0.00     0.121 A 
HETATM    2  C   UNL     1       5.833  11.675  23.313  0.00  0.00     0.046 A 
HETATM    3  C   UNL     1       6.442  11.777  22.060  0.00  0.00     0.047 A 
HETATM    4  C   UNL     1       6.053  10.869  21.064  0.00  0.00     0.082 A 
HETATM    5  C   UNL     1       5.118   9.864  21.329  0.00  0.00     0.075 A 
HETATM    6  C   UNL     1       4.506   9.784  22.582  0.00  0.00     0.091 A 
ENDROOT
BRANCH   3   7
HETATM    7  C   UNL     1       7.301  12.943  21.728  0.00  0.00     0.172 A 
HETATM    8  N   UNL     1       8.223  12.845  20.801  0.00  0.00    -0.151 NA
HETATM    9  N   UNL     1       8.674  14.121  20.637  0.00  0.00    -0.226 N 
HETATM   10  H   UNL     1       9.381  14.381  19.963  0.00  0.00     0.194 HD
HETATM   11  C   UNL     1       8.010  15.000  21.486  0.00  0.00     0.349 A 
HETATM   12  O   UNL     1       8.209  16.203  21.549  0.00  0.00    -0.245 OA
HETATM   13  N   UNL     1       7.137  14.216  22.211  0.00  0.00    -0.241 N 
BRANCH  13  14
HETATM   14  C   UNL     1       6.409  14.696  23.315  0.00  0.00     0.084 A 
HETATM   15  C   UNL     1       6.863  14.519  24.625  0.00  0.00     0.143 A 
HETATM   16  F   UNL     1       8.046  13.932  24.856  0.00  0.00    -0.204 F 
HETATM   17  C   UNL     1       6.112  14.963  25.712  0.00  0.00     0.044 A 
HETATM   18  C   UNL     1       4.880  15.578  25.493  0.00  0.00     0.003 A 
HETATM   19  C   UNL     1       4.414  15.761  24.191  0.00  0.00     0.002 A 
HETATM   20  C   UNL     1       5.185  15.343  23.103  0.00  0.00     0.033 A 
ENDBRANCH  13  14
ENDBRANCH   3   7
BRANCH   4  21
HETATM   21  O   UNL     1       6.501  10.934  19.771  0.00  0.00    -0.360 OA
HETATM   22  H   UNL     1       6.059  10.226  19.254  0.00  0.00     0.217 HD
ENDBRANCH   4  21
BRANCH   1  23
HETATM   23  S   UNL     1       4.043  10.788  25.161  0.00  0.00     0.349 S 
HETATM   24  O   UNL     1       4.809  11.711  25.978  0.00  0.00    -0.193 OA
HETATM   25  O   UNL     1       3.761   9.456  25.647  0.00  0.00    -0.193 OA
BRANCH  23  26
HETATM   26  N   UNL     1       2.548  11.571  24.739  0.00  0.00     0.028 N 
HETATM   27  C   UNL     1       1.621  13.627  23.548  0.00  0.00     0.178 A 
HETATM   28  C   UNL     1       0.211  13.297  23.079  0.00  0.00     0.036 C 
HETATM   29  C   UNL     1       2.634  12.480  23.554  0.00  0.00     0.366 A 
HETATM   30  C   UNL     1       1.408  10.629  24.710  0.00  0.00     0.293 C 
ENDBRANCH  23  26
ENDBRANCH   1  23
BRANCH   6  31
HETATM   31  O   UNL     1       3.510   8.882  22.773  0.00  0.00    -0.359 OA
HETATM   32  H   UNL     1       2.773   9.290  23.260  0.00  0.00     0.217 HD
ENDBRANCH   6  31
TORSDOF 6
ENDMDL
MODEL 8
REMARK VINA RESULT:    -7.313      3.127      6.104
REMARK INTER + INTRA:         -11.358
REMARK INTER:                  -9.451
REMARK INTRA:                  -1.907
REMARK UNBOUND:                -1.907
REMARK  6 active torsions:
REMARK  status: ('A' for Active; 'I' for Inactive)
REMARK    1  A    between atoms: N_4  and  S_6 
REMARK    2  A    between atoms: S_6  and  C_9 
REMARK    3  A    between atoms: C_11  and  C_17 
REMARK    4  A    between atoms: C_12  and  O_13 
REMARK    5  A    between atoms: C_15  and  O_16 
REMARK    6  A    between atoms: N_23  and  C_24 
ROOT
HETATM    1  C   UNL     1       8.576  13.469  22.441  0.00  0.00     0.121 A 
HETATM    2  C   UNL     1       7.660  12.810  21.606  0.00  0.00     0.046 A 
HETATM    3  C   UNL     1       7.701  11.424  21.433  0.00  0.00     0.047 A 
HETATM    4  C   UNL     1       8.691  10.705  22.120  0.00  0.00     0.082 A 
HETATM    5  C   UNL     1       9.635  11.358  22.919  0.00  0.00     0.075 A 
HETATM    6  C   UNL     1       9.571  12.742  23.095  0.00  0.00     0.091 A 
ENDROOT
BRANCH   3   7
HETATM    7  C   UNL     1       6.602  10.717  20.728  0.00  0.00     0.172 A 
HETATM    8  N   UNL     1       6.655  10.532  19.432  0.00  0.00    -0.151 NA
HETATM    9  N   UNL     1       5.603   9.708  19.164  0.00  0.00    -0.226 N 
HETATM   10  H   UNL     1       5.389   9.358  18.240  0.00  0.00     0.194 HD
HETATM   11  C   UNL     1       4.905   9.393  20.325  0.00  0.00     0.349 A 
HETATM   12  O   UNL     1       3.922   8.672  20.381  0.00  0.00    -0.245 OA
HETATM   13  N   UNL     1       5.549  10.079  21.334  0.00  0.00    -0.241 N 
BRANCH  13  14
HETATM   14  C   UNL     1       5.040  10.178  22.641  0.00  0.00     0.084 A 
HETATM   15  C   UNL     1       4.365  11.321  23.080  0.00  0.00     0.143 A 
HETATM   16  F   UNL     1       4.133  12.335  22.234  0.00  0.00    -0.204 F 
HETATM   17  C   UNL     1       3.901  11.422  24.390  0.00  0.00     0.044 A 
HETATM   18  C   UNL     1       4.129  10.378  25.285  0.00  0.00     0.003 A 
HETATM   19  C   UNL     1       4.802   9.232  24.861  0.00  0.00     0.002 A 
HETATM   20  C   UNL     1       5.237   9.121  23.539  0.00  0.00     0.033 A 
ENDBRANCH  13  14
ENDBRANCH   3   7
BRANCH   4  21
HETATM   21  O   UNL     1       8.767   9.338  22.112  0.00  0.00    -0.360 OA
HETATM   22  H   UNL     1       9.588   9.076  21.640  0.00  0.00     0.217 HD
ENDBRANCH   4  21
BRANCH   1  23
HETATM   23  S   UNL     1       8.304  15.215  22.705  0.00  0.00     0.349 S 
HETATM   24  O   UNL     1       7.874  15.771  21.436  0.00  0.00    -0.193 OA
HETATM   25  O   UNL     1       9.434  15.790  23.401  0.00  0.00    -0.193 OA
BRANCH  23  26
HETATM   26  N   UNL     1       6.926  15.197  23.767  0.00  0.00     0.028 N 
HETATM   27  C   UNL     1       4.507  15.988  23.937  0.00  0.00     0.178 A 
HETATM   28  C   UNL     1       3.785  15.068  24.912  0.00  0.00     0.036 C 
HETATM   29  C   UNL     1       5.608  15.358  23.080  0.00  0.00     0.366 A 
HETATM   30  C   UNL     1       6.980  14.084  24.741  0.00  0.00     0.293 C 
ENDBRANCH  23  26
ENDBRANCH   1  23
BRANCH   6  31
HETATM   31  O   UNL     1      10.419  13.334  23.975  0.00  0.00    -0.359 OA
HETATM   32  H   UNL     1      10.172  14.266  24.107  0.00  0.00     0.217 HD
ENDBRANCH   6  31
TORSDOF 6
ENDMDL
MODEL 9
REMARK VINA RESULT:    -7.218      2.096      3.383
REMARK INTER + INTRA:         -11.235
REMARK INTER:                  -9.502
REMARK INTRA:                  -1.733
REMARK UNBOUND:                -1.907
REMARK  6 active torsions:
REMARK  status: ('A' for Active; 'I' for Inactive)
REMARK    1  A    between atoms: N_4  and  S_6 
REMARK    2  A    between atoms: S_6  and  C_9 
REMARK    3  A    between atoms: C_11  and  C_17 
REMARK    4  A    between atoms: C_12  and  O_13 
REMARK    5  A    between atoms: C_15  and  O_16 
REMARK    6  A    between atoms: N_23  and  C_24 
ROOT
HETATM    1  C   UNL     1       5.430  10.449  23.417  0.00  0.00     0.121 A 
HETATM    2  C   UNL     1       6.436  11.188  24.060  0.00  0.00     0.046 A 
HETATM    3  C   UNL     1       7.339  11.969  23.334  0.00  0.00     0.047 A 
HETATM    4  C   UNL     1       7.213  11.994  21.937  0.00  0.00     0.082 A 
HETATM    5  C   UNL     1       6.242  11.226  21.286  0.00  0.00     0.075 A 
HETATM    6  C   UNL     1       5.336  10.462  22.025  0.00  0.00     0.091 A 
ENDROOT
BRANCH   3   7
HETATM    7  C   UNL     1       8.252  12.912  24.029  0.00  0.00     0.172 A 
HETATM    8  N   UNL     1       9.520  12.616  24.184  0.00  0.00    -0.151 NA
HETATM    9  N   UNL     1      10.076  13.757  24.679  0.00  0.00    -0.226 N 
HETATM   10  H   UNL     1      11.061  13.856  24.883  0.00  0.00     0.194 HD
HETATM   11  C   UNL     1       9.120  14.757  24.826  0.00  0.00     0.349 A 
HETATM   12  O   UNL     1       9.338  15.883  25.247  0.00  0.00    -0.245 OA
HETATM   13  N   UNL     1       7.931  14.185  24.426  0.00  0.00    -0.241 N 
BRANCH  13  14
HETATM   14  C   UNL     1       6.682  14.808  24.600  0.00  0.00     0.084 A 
HETATM   15  C   UNL     1       6.032  14.815  25.837  0.00  0.00     0.143 A 
HETATM   16  F   UNL     1       6.622  14.272  26.912  0.00  0.00    -0.204 F 
HETATM   17  C   UNL     1       4.777  15.401  25.987  0.00  0.00     0.044 A 
HETATM   18  C   UNL     1       4.147  15.973  24.883  0.00  0.00     0.003 A 
HETATM   19  C   UNL     1       4.783  15.973  23.641  0.00  0.00     0.002 A 
HETATM   20  C   UNL     1       6.055  15.413  23.502  0.00  0.00     0.033 A 
ENDBRANCH  13  14
ENDBRANCH   3   7
BRANCH   4  21
HETATM   21  O   UNL     1       7.970  12.800  21.129  0.00  0.00    -0.360 OA
HETATM   22  H   UNL     1       7.836  12.519  20.197  0.00  0.00     0.217 HD
ENDBRANCH   4  21
BRANCH   1  23
HETATM   23  S   UNL     1       4.241   9.632  24.471  0.00  0.00     0.349 S 
HETATM   24  O   UNL     1       2.954   9.727  23.808  0.00  0.00    -0.193 OA
HETATM   25  O   UNL     1       4.389  10.095  25.833  0.00  0.00    -0.193 OA
BRANCH  23  26
HETATM   26  N   UNL     1       4.766   7.976  24.371  0.00  0.00     0.028 N 
HETATM   27  C   UNL     1       6.817   6.542  23.877  0.00  0.00     0.178 A 
HETATM   28  C   UNL     1       6.628   5.203  24.577  0.00  0.00     0.036 C 
HETATM   29  C   UNL     1       6.234   7.774  24.573  0.00  0.00     0.366 A 
HETATM   30  C   UNL     1       3.906   7.064  25.157  0.00  0.00     0.293 C 
ENDBRANCH  23  26
ENDBRANCH   1  23
BRANCH   6  31
HETATM   31  O   UNL     1       4.325   9.829  21.377  0.00  0.00    -0.359 OA
HETATM   32  H   UNL     1       4.015   9.068  21.897  0.00  0.00     0.217 HD
ENDBRANCH   6  31
TORSDOF 6
ENDMDL
