REMARK  6 active torsions:
REMARK  status: ('A' for Active; 'I' for Inactive)
REMARK    1  A    between atoms: N_4  and  S_6 
REMARK    2  A    between atoms: S_6  and  C_9 
REMARK    3  A    between atoms: C_11  and  C_17 
REMARK    4  A    between atoms: C_12  and  O_13 
REMARK    5  A    between atoms: C_15  and  O_16 
REMARK    6  A    between atoms: N_23  and  C_24 
ROOT
HETATM    1  C   UNL     1       5.449   1.580   2.753  0.00  0.00     0.121 A 
HETATM    2  C   UNL     1       5.036   2.921   2.787  0.00  0.00     0.046 A 
HETATM    3  C   UNL     1       5.201   3.703   3.933  0.00  0.00     0.047 A 
HETATM    4  C   UNL     1       5.794   3.107   5.056  0.00  0.00     0.082 A 
HETATM    5  C   UNL     1       6.168   1.760   5.046  0.00  0.00     0.075 A 
HETATM    6  C   UNL     1       6.011   0.995   3.888  0.00  0.00     0.091 A 
ENDROOT
BRANCH   3   7
HETATM    7  C   UNL     1       4.965   5.169   3.889  0.00  0.00     0.172 A 
HETATM    8  N   UNL     1       5.657   5.976   4.656  0.00  0.00    -0.151 NA
HETATM    9  N   UNL     1       5.319   7.224   4.226  0.00  0.00    -0.226 N 
HETATM   10  H   UNL     1       5.712   8.073   4.610  0.00  0.00     0.194 HD
HETATM   11  C   UNL     1       4.404   7.163   3.181  0.00  0.00     0.349 A 
HETATM   12  O   UNL     1       3.931   8.129   2.602  0.00  0.00    -0.245 OA
HETATM   13  N   UNL     1       4.160   5.819   2.989  0.00  0.00    -0.241 N 
BRANCH  13  14
HETATM   14  C   UNL     1       3.145   5.336   2.144  0.00  0.00     0.084 A 
HETATM   15  C   UNL     1       2.178   4.435   2.600  0.00  0.00     0.143 A 
HETATM   16  F   UNL     1       2.163   4.055   3.886  0.00  0.00    -0.204 F 
HETATM   17  C   UNL     1       1.202   3.933   1.742  0.00  0.00     0.044 A 
HETATM   18  C   UNL     1       1.198   4.317   0.402  0.00  0.00     0.003 A 
HETATM   19  C   UNL     1       2.157   5.215  -0.068  0.00  0.00     0.002 A 
HETATM   20  C   UNL     1       3.114   5.741   0.803  0.00  0.00     0.033 A 
ENDBRANCH  13  14
ENDBRANCH   3   7
BRANCH   4  21
HETATM   21  O   UNL     1       6.102   3.798   6.198  0.00  0.00    -0.360 OA
HETATM   22  H   UNL     1       6.022   4.759   6.010  0.00  0.00     0.217 HD
ENDBRANCH   4  21
BRANCH   1  23
HETATM   23  S   UNL     1       5.335   0.748   1.176  0.00  0.00     0.349 S 
HETATM   24  O   UNL     1       4.287   1.412   0.424  0.00  0.00    -0.193 OA
HETATM   25  O   UNL     1       5.286  -0.683   1.376  0.00  0.00    -0.193 OA
BRANCH  23  26
HETATM   26  N   UNL     1       6.857   1.172   0.447  0.00  0.00     0.028 N 
HETATM   27  C   UNL     1       7.956   2.932  -1.037  0.00  0.00     0.178 A 
HETATM   28  C   UNL     1       9.447   2.933  -0.731  0.00  0.00     0.036 C 
HETATM   29  C   UNL     1       7.012   2.625   0.128  0.00  0.00     0.366 A 
HETATM   30  C   UNL     1       8.008   0.573   1.158  0.00  0.00     0.293 C 
ENDBRANCH  23  26
ENDBRANCH   1  23
BRANCH   6  31
HETATM   31  O   UNL     1       6.499  -0.272   3.864  0.00  0.00    -0.359 OA
HETATM   32  H   UNL     1       6.870  -0.508   4.732  0.00  0.00     0.217 HD
ENDBRANCH   6  31
TORSDOF 6
