MODEL 1
REMARK VINA RESULT:    -7.492      0.000      0.000
REMARK INTER + INTRA:          -9.904
REMARK INTER:                  -9.031
REMARK INTRA:                  -0.874
REMARK UNBOUND:                -1.098
REMARK  4 active torsions:
REMARK  status: ('A' for Active; 'I' for Inactive)
REMARK    1  A    between atoms: O_1  and  C_2 
REMARK    2  A    between atoms: C_4  and  O_5 
REMARK    3  A    between atoms: C_6  and  C_9 
REMARK    4  A    between atoms: N_15  and  C_16 
ROOT
HETATM    1  C   UNL     1       5.504   7.715  19.115  0.00  0.00     0.172 A 
HETATM    2  N   UNL     1       6.392   8.559  18.653  0.00  0.00    -0.151 NA
HETATM    3  N   UNL     1       7.477   8.414  19.462  0.00  0.00    -0.226 N 
HETATM    4  H   UNL     1       8.372   8.831  19.250  0.00  0.00     0.194 HD
HETATM    5  C   UNL     1       7.250   7.444  20.421  0.00  0.00     0.349 A 
HETATM    6  O   UNL     1       8.092   7.026  21.205  0.00  0.00    -0.245 OA
HETATM    7  N   UNL     1       5.945   7.023  20.221  0.00  0.00    -0.241 N 
ENDROOT
BRANCH   1   8
HETATM    8  C   UNL     1       4.141   7.597  18.517  0.00  0.00     0.045 A 
HETATM    9  C   UNL     1       3.857   6.608  17.556  0.00  0.00     0.082 A 
HETATM   10  C   UNL     1       2.562   6.431  17.059  0.00  0.00     0.074 A 
HETATM   11  C   UNL     1       1.542   7.255  17.515  0.00  0.00     0.068 A 
HETATM   12  C   UNL     1       1.812   8.296  18.390  0.00  0.00     0.037 A 
HETATM   13  C   UNL     1       3.113   8.487  18.866  0.00  0.00     0.021 A 
BRANCH   9  14
HETATM   14  O   UNL     1       4.832   5.765  17.095  0.00  0.00    -0.360 OA
HETATM   15  H   UNL     1       4.444   5.126  16.474  0.00  0.00     0.217 HD
ENDBRANCH   9  14
BRANCH  11  16
HETATM   16  O   UNL     1       0.250   7.069  17.124  0.00  0.00    -0.361 OA
HETATM   17  H   UNL     1      -0.057   7.867  16.661  0.00  0.00     0.217 HD
ENDBRANCH  11  16
ENDBRANCH   1   8
BRANCH   7  18
HETATM   18  C   UNL     1       5.423   5.925  20.933  0.00  0.00     0.084 A 
HETATM   19  C   UNL     1       4.921   6.033  22.232  0.00  0.00     0.143 A 
HETATM   20  F   UNL     1       4.905   7.219  22.861  0.00  0.00    -0.204 F 
HETATM   21  C   UNL     1       4.365   4.931  22.880  0.00  0.00     0.044 A 
HETATM   22  C   UNL     1       4.309   3.695  22.233  0.00  0.00     0.003 A 
HETATM   23  C   UNL     1       4.809   3.567  20.939  0.00  0.00     0.002 A 
HETATM   24  C   UNL     1       5.354   4.676  20.289  0.00  0.00     0.033 A 
ENDBRANCH   7  18
TORSDOF 4
ENDMDL
MODEL 2
REMARK VINA RESULT:    -7.165      1.086      1.516
REMARK INTER + INTRA:          -9.520
REMARK INTER:                  -8.534
REMARK INTRA:                  -0.986
REMARK UNBOUND:                -1.098
REMARK  4 active torsions:
REMARK  status: ('A' for Active; 'I' for Inactive)
REMARK    1  A    between atoms: O_1  and  C_2 
REMARK    2  A    between atoms: C_4  and  O_5 
REMARK    3  A    between atoms: C_6  and  C_9 
REMARK    4  A    between atoms: N_15  and  C_16 
ROOT
HETATM    1  C   UNL     1       5.184   7.543  19.121  0.00  0.00     0.172 A 
HETATM    2  N   UNL     1       6.151   8.226  18.560  0.00  0.00    -0.151 NA
HETATM    3  N   UNL     1       7.198   8.138  19.425  0.00  0.00    -0.226 N 
HETATM    4  H   UNL     1       8.131   8.442  19.184  0.00  0.00     0.194 HD
HETATM    5  C   UNL     1       6.866   7.365  20.524  0.00  0.00     0.349 A 
HETATM    6  O   UNL     1       7.649   7.023  21.400  0.00  0.00    -0.245 OA
HETATM    7  N   UNL     1       5.537   7.018  20.344  0.00  0.00    -0.241 N 
ENDROOT
BRANCH   1   8
HETATM    8  C   UNL     1       3.833   7.431  18.496  0.00  0.00     0.045 A 
HETATM    9  C   UNL     1       3.475   6.291  17.751  0.00  0.00     0.082 A 
HETATM   10  C   UNL     1       2.182   6.136  17.240  0.00  0.00     0.074 A 
HETATM   11  C   UNL     1       1.240   7.131  17.464  0.00  0.00     0.068 A 
HETATM   12  C   UNL     1       1.592   8.304  18.115  0.00  0.00     0.037 A 
HETATM   13  C   UNL     1       2.893   8.468  18.601  0.00  0.00     0.021 A 
BRANCH   9  14
HETATM   14  O   UNL     1       4.370   5.281  17.523  0.00  0.00    -0.360 OA
HETATM   15  H   UNL     1       5.099   5.341  18.162  0.00  0.00     0.217 HD
ENDBRANCH   9  14
BRANCH  11  16
HETATM   16  O   UNL     1      -0.053   6.990  17.059  0.00  0.00    -0.361 OA
HETATM   17  H   UNL     1      -0.439   7.872  16.925  0.00  0.00     0.217 HD
ENDBRANCH  11  16
ENDBRANCH   1   8
BRANCH   7  18
HETATM   18  C   UNL     1       4.907   6.100  21.208  0.00  0.00     0.084 A 
HETATM   19  C   UNL     1       4.983   4.718  21.030  0.00  0.00     0.143 A 
HETATM   20  F   UNL     1       5.686   4.198  20.011  0.00  0.00    -0.204 F 
HETATM   21  C   UNL     1       4.389   3.844  21.940  0.00  0.00     0.044 A 
HETATM   22  C   UNL     1       3.702   4.348  23.046  0.00  0.00     0.003 A 
HETATM   23  C   UNL     1       3.612   5.724  23.238  0.00  0.00     0.002 A 
HETATM   24  C   UNL     1       4.219   6.595  22.331  0.00  0.00     0.033 A 
ENDBRANCH   7  18
TORSDOF 4
ENDMDL
MODEL 3
REMARK VINA RESULT:    -7.094      2.519      4.849
REMARK INTER + INTRA:          -9.437
REMARK INTER:                  -8.557
REMARK INTRA:                  -0.880
REMARK UNBOUND:                -1.098
REMARK  4 active torsions:
REMARK  status: ('A' for Active; 'I' for Inactive)
REMARK    1  A    between atoms: O_1  and  C_2 
REMARK    2  A    between atoms: C_4  and  O_5 
REMARK    3  A    between atoms: C_6  and  C_9 
REMARK    4  A    between atoms: N_15  and  C_16 
ROOT
HETATM    1  C   UNL     1       5.541   6.444  20.654  0.00  0.00     0.172 A 
HETATM    2  N   UNL     1       6.706   6.683  21.202  0.00  0.00    -0.151 NA
HETATM    3  N   UNL     1       7.269   7.654  20.432  0.00  0.00    -0.226 N 
HETATM    4  H   UNL     1       8.108   8.146  20.705  0.00  0.00     0.194 HD
HETATM    5  C   UNL     1       6.416   8.027  19.408  0.00  0.00     0.349 A 
HETATM    6  O   UNL     1       6.616   8.956  18.637  0.00  0.00    -0.245 OA
HETATM    7  N   UNL     1       5.310   7.202  19.528  0.00  0.00    -0.241 N 
ENDROOT
BRANCH   1   8
HETATM    8  C   UNL     1       4.619   5.397  21.186  0.00  0.00     0.045 A 
HETATM    9  C   UNL     1       3.490   5.750  21.951  0.00  0.00     0.082 A 
HETATM   10  C   UNL     1       2.571   4.784  22.376  0.00  0.00     0.074 A 
HETATM   11  C   UNL     1       2.785   3.454  22.046  0.00  0.00     0.068 A 
HETATM   12  C   UNL     1       3.935   3.067  21.374  0.00  0.00     0.037 A 
HETATM   13  C   UNL     1       4.865   4.032  20.973  0.00  0.00     0.021 A 
BRANCH   9  14
HETATM   14  O   UNL     1       3.236   7.054  22.283  0.00  0.00    -0.360 OA
HETATM   15  H   UNL     1       2.327   7.135  22.614  0.00  0.00     0.217 HD
ENDBRANCH   9  14
BRANCH  11  16
HETATM   16  O   UNL     1       1.878   2.488  22.365  0.00  0.00    -0.361 OA
HETATM   17  H   UNL     1       1.861   1.824  21.654  0.00  0.00     0.217 HD
ENDBRANCH  11  16
ENDBRANCH   1   8
BRANCH   7  18
HETATM   18  C   UNL     1       4.166   7.408  18.731  0.00  0.00     0.084 A 
HETATM   19  C   UNL     1       3.722   6.479  17.789  0.00  0.00     0.143 A 
HETATM   20  F   UNL     1       4.378   5.320  17.611  0.00  0.00    -0.204 F 
HETATM   21  C   UNL     1       2.554   6.699  17.059  0.00  0.00     0.044 A 
HETATM   22  C   UNL     1       1.814   7.865  17.262  0.00  0.00     0.003 A 
HETATM   23  C   UNL     1       2.243   8.805  18.195  0.00  0.00     0.002 A 
HETATM   24  C   UNL     1       3.406   8.575  18.932  0.00  0.00     0.033 A 
ENDBRANCH   7  18
TORSDOF 4
ENDMDL
MODEL 4
REMARK VINA RESULT:    -7.087      7.783      8.944
REMARK INTER + INTRA:          -9.428
REMARK INTER:                  -8.500
REMARK INTRA:                  -0.928
REMARK UNBOUND:                -1.098
REMARK  4 active torsions:
REMARK  status: ('A' for Active; 'I' for Inactive)
REMARK    1  A    between atoms: O_1  and  C_2 
REMARK    2  A    between atoms: C_4  and  O_5 
REMARK    3  A    between atoms: C_6  and  C_9 
REMARK    4  A    between atoms: N_15  and  C_16 
ROOT
HETATM    1  C   UNL     1      -0.962  10.908  26.312  0.00  0.00     0.172 A 
HETATM    2  N   UNL     1      -1.546  11.426  27.364  0.00  0.00    -0.151 NA
HETATM    3  N   UNL     1      -1.162  10.641  28.407  0.00  0.00    -0.226 N 
HETATM    4  H   UNL     1      -1.337  10.892  29.370  0.00  0.00     0.194 HD
HETATM    5  C   UNL     1      -0.307   9.639  27.982  0.00  0.00     0.349 A 
HETATM    6  O   UNL     1       0.282   8.863  28.722  0.00  0.00    -0.245 OA
HETATM    7  N   UNL     1      -0.218   9.788  26.608  0.00  0.00    -0.241 N 
ENDROOT
BRANCH   1   8
HETATM    8  C   UNL     1      -1.168  11.464  24.942  0.00  0.00     0.045 A 
HETATM    9  C   UNL     1      -2.435  11.419  24.328  0.00  0.00     0.082 A 
HETATM   10  C   UNL     1      -2.658  12.019  23.084  0.00  0.00     0.074 A 
HETATM   11  C   UNL     1      -1.608  12.660  22.441  0.00  0.00     0.068 A 
HETATM   12  C   UNL     1      -0.330  12.638  22.980  0.00  0.00     0.037 A 
HETATM   13  C   UNL     1      -0.104  12.015  24.211  0.00  0.00     0.021 A 
BRANCH   9  14
HETATM   14  O   UNL     1      -3.499  10.812  24.938  0.00  0.00    -0.360 OA
HETATM   15  H   UNL     1      -3.353   9.853  24.970  0.00  0.00     0.217 HD
ENDBRANCH   9  14
BRANCH  11  16
HETATM   16  O   UNL     1      -1.794  13.329  21.269  0.00  0.00    -0.361 OA
HETATM   17  H   UNL     1      -2.367  12.798  20.690  0.00  0.00     0.217 HD
ENDBRANCH  11  16
ENDBRANCH   1   8
BRANCH   7  18
HETATM   18  C   UNL     1       0.695   9.020  25.857  0.00  0.00     0.084 A 
HETATM   19  C   UNL     1       0.382   7.760  25.344  0.00  0.00     0.143 A 
HETATM   20  F   UNL     1      -0.833   7.224  25.542  0.00  0.00    -0.204 F 
HETATM   21  C   UNL     1       1.298   7.058  24.560  0.00  0.00     0.044 A 
HETATM   22  C   UNL     1       2.549   7.611  24.283  0.00  0.00     0.003 A 
HETATM   23  C   UNL     1       2.880   8.865  24.789  0.00  0.00     0.002 A 
HETATM   24  C   UNL     1       1.956   9.570  25.563  0.00  0.00     0.033 A 
ENDBRANCH   7  18
TORSDOF 4
ENDMDL
MODEL 5
REMARK VINA RESULT:    -6.931      2.277      4.753
REMARK INTER + INTRA:          -9.245
REMARK INTER:                  -8.282
REMARK INTRA:                  -0.963
REMARK UNBOUND:                -1.098
REMARK  4 active torsions:
REMARK  status: ('A' for Active; 'I' for Inactive)
REMARK    1  A    between atoms: O_1  and  C_2 
REMARK    2  A    between atoms: C_4  and  O_5 
REMARK    3  A    between atoms: C_6  and  C_9 
REMARK    4  A    between atoms: N_15  and  C_16 
ROOT
HETATM    1  C   UNL     1       5.769   6.366  20.749  0.00  0.00     0.172 A 
HETATM    2  N   UNL     1       6.952   6.653  21.232  0.00  0.00    -0.151 NA
HETATM    3  N   UNL     1       7.462   7.594  20.391  0.00  0.00    -0.226 N 
HETATM    4  H   UNL     1       8.301   8.115  20.603  0.00  0.00     0.194 HD
HETATM    5  C   UNL     1       6.558   7.901  19.390  0.00  0.00     0.349 A 
HETATM    6  O   UNL     1       6.705   8.794  18.565  0.00  0.00    -0.245 OA
HETATM    7  N   UNL     1       5.475   7.063  19.599  0.00  0.00    -0.241 N 
ENDROOT
BRANCH   1   8
HETATM    8  C   UNL     1       4.892   5.330  21.372  0.00  0.00     0.045 A 
HETATM    9  C   UNL     1       4.182   5.604  22.557  0.00  0.00     0.082 A 
HETATM   10  C   UNL     1       3.288   4.674  23.097  0.00  0.00     0.074 A 
HETATM   11  C   UNL     1       3.109   3.455  22.458  0.00  0.00     0.068 A 
HETATM   12  C   UNL     1       3.864   3.123  21.343  0.00  0.00     0.037 A 
HETATM   13  C   UNL     1       4.776   4.045  20.820  0.00  0.00     0.021 A 
BRANCH   9  14
HETATM   14  O   UNL     1       4.319   6.801  23.207  0.00  0.00    -0.360 OA
HETATM   15  H   UNL     1       5.231   6.897  23.526  0.00  0.00     0.217 HD
ENDBRANCH   9  14
BRANCH  11  16
HETATM   16  O   UNL     1       2.190   2.550  22.898  0.00  0.00    -0.361 OA
HETATM   17  H   UNL     1       1.366   3.017  23.113  0.00  0.00     0.217 HD
ENDBRANCH  11  16
ENDBRANCH   1   8
BRANCH   7  18
HETATM   18  C   UNL     1       4.294   7.209  18.844  0.00  0.00     0.084 A 
HETATM   19  C   UNL     1       3.429   8.296  18.993  0.00  0.00     0.143 A 
HETATM   20  F   UNL     1       3.704   9.271  19.873  0.00  0.00    -0.204 F 
HETATM   21  C   UNL     1       2.298   8.427  18.187  0.00  0.00     0.044 A 
HETATM   22  C   UNL     1       2.014   7.463  17.219  0.00  0.00     0.003 A 
HETATM   23  C   UNL     1       2.863   6.371  17.059  0.00  0.00     0.002 A 
HETATM   24  C   UNL     1       4.000   6.249  17.859  0.00  0.00     0.033 A 
ENDBRANCH   7  18
TORSDOF 4
ENDMDL
MODEL 6
REMARK VINA RESULT:    -6.783      7.175      9.026
REMARK INTER + INTRA:          -9.071
REMARK INTER:                  -8.141
REMARK INTRA:                  -0.930
REMARK UNBOUND:                -1.098
REMARK  4 active torsions:
REMARK  status: ('A' for Active; 'I' for Inactive)
REMARK    1  A    between atoms: O_1  and  C_2 
REMARK    2  A    between atoms: C_4  and  O_5 
REMARK    3  A    between atoms: C_6  and  C_9 
REMARK    4  A    between atoms: N_15  and  C_16 
ROOT
HETATM    1  C   UNL     1       0.753   9.337  26.193  0.00  0.00     0.172 A 
HETATM    2  N   UNL     1       0.609   8.690  27.322  0.00  0.00    -0.151 NA
HETATM    3  N   UNL     1      -0.420   9.312  27.960  0.00  0.00    -0.226 N 
HETATM    4  H   UNL     1      -0.854   8.932  28.790  0.00  0.00     0.194 HD
HETATM    5  C   UNL     1      -0.925  10.344  27.190  0.00  0.00     0.349 A 
HETATM    6  O   UNL     1      -1.924  10.996  27.465  0.00  0.00    -0.245 OA
HETATM    7  N   UNL     1      -0.127  10.387  26.059  0.00  0.00    -0.241 N 
ENDROOT
BRANCH   1   8
HETATM    8  C   UNL     1       1.821   8.982  25.211  0.00  0.00     0.045 A 
HETATM    9  C   UNL     1       1.892   7.689  24.658  0.00  0.00     0.082 A 
HETATM   10  C   UNL     1       2.832   7.375  23.670  0.00  0.00     0.074 A 
HETATM   11  C   UNL     1       3.715   8.354  23.238  0.00  0.00     0.068 A 
HETATM   12  C   UNL     1       3.728   9.608  23.832  0.00  0.00     0.037 A 
HETATM   13  C   UNL     1       2.805   9.911  24.838  0.00  0.00     0.021 A 
BRANCH   9  14
HETATM   14  O   UNL     1       1.028   6.702  25.045  0.00  0.00    -0.360 OA
HETATM   15  H   UNL     1       0.991   6.014  24.361  0.00  0.00     0.217 HD
ENDBRANCH   9  14
BRANCH  11  16
HETATM   16  O   UNL     1       4.593   8.122  22.222  0.00  0.00    -0.361 OA
HETATM   17  H   UNL     1       4.483   7.207  21.914  0.00  0.00     0.217 HD
ENDBRANCH  11  16
ENDBRANCH   1   8
BRANCH   7  18
HETATM   18  C   UNL     1      -0.452  11.232  24.979  0.00  0.00     0.084 A 
HETATM   19  C   UNL     1      -1.511  10.973  24.106  0.00  0.00     0.143 A 
HETATM   20  F   UNL     1      -2.285   9.889  24.275  0.00  0.00    -0.204 F 
HETATM   21  C   UNL     1      -1.830  11.864  23.082  0.00  0.00     0.044 A 
HETATM   22  C   UNL     1      -1.084  13.032  22.915  0.00  0.00     0.003 A 
HETATM   23  C   UNL     1      -0.022  13.305  23.773  0.00  0.00     0.002 A 
HETATM   24  C   UNL     1       0.287  12.417  24.804  0.00  0.00     0.033 A 
ENDBRANCH   7  18
TORSDOF 4
ENDMDL
MODEL 7
REMARK VINA RESULT:    -6.573      7.843      8.891
REMARK INTER + INTRA:          -8.824
REMARK INTER:                  -7.852
REMARK INTRA:                  -0.972
REMARK UNBOUND:                -1.098
REMARK  4 active torsions:
REMARK  status: ('A' for Active; 'I' for Inactive)
REMARK    1  A    between atoms: O_1  and  C_2 
REMARK    2  A    between atoms: C_4  and  O_5 
REMARK    3  A    between atoms: C_6  and  C_9 
REMARK    4  A    between atoms: N_15  and  C_16 
ROOT
HETATM    1  C   UNL     1      -0.837  11.233  26.317  0.00  0.00     0.172 A 
HETATM    2  N   UNL     1      -1.277  11.869  27.374  0.00  0.00    -0.151 NA
HETATM    3  N   UNL     1      -0.996  11.051  28.425  0.00  0.00    -0.226 N 
HETATM    4  H   UNL     1      -1.085  11.351  29.386  0.00  0.00     0.194 HD
HETATM    5  C   UNL     1      -0.350   9.905  27.998  0.00  0.00     0.349 A 
HETATM    6  O   UNL     1       0.121   9.052  28.739  0.00  0.00    -0.245 OA
HETATM    7  N   UNL     1      -0.291  10.005  26.618  0.00  0.00    -0.241 N 
ENDROOT
BRANCH   1   8
HETATM    8  C   UNL     1      -0.996  11.787  24.940  0.00  0.00     0.045 A 
HETATM    9  C   UNL     1      -0.220  12.880  24.508  0.00  0.00     0.082 A 
HETATM   10  C   UNL     1      -0.295  13.347  23.191  0.00  0.00     0.074 A 
HETATM   11  C   UNL     1      -1.160  12.727  22.300  0.00  0.00     0.068 A 
HETATM   12  C   UNL     1      -2.002  11.709  22.724  0.00  0.00     0.037 A 
HETATM   13  C   UNL     1      -1.943  11.262  24.048  0.00  0.00     0.021 A 
BRANCH   9  14
HETATM   14  O   UNL     1       0.657  13.506  25.352  0.00  0.00    -0.360 OA
HETATM   15  H   UNL     1       0.219  14.262  25.775  0.00  0.00     0.217 HD
ENDBRANCH   9  14
BRANCH  11  16
HETATM   16  O   UNL     1      -1.210  13.090  20.988  0.00  0.00    -0.361 OA
HETATM   17  H   UNL     1      -0.316  13.034  20.611  0.00  0.00     0.217 HD
ENDBRANCH  11  16
ENDBRANCH   1   8
BRANCH   7  18
HETATM   18  C   UNL     1       0.441   9.071  25.857  0.00  0.00     0.084 A 
HETATM   19  C   UNL     1       1.648   9.385  25.230  0.00  0.00     0.143 A 
HETATM   20  F   UNL     1       2.176  10.614  25.341  0.00  0.00    -0.204 F 
HETATM   21  C   UNL     1       2.366   8.415  24.531  0.00  0.00     0.044 A 
HETATM   22  C   UNL     1       1.878   7.110  24.447  0.00  0.00     0.003 A 
HETATM   23  C   UNL     1       0.673   6.779  25.062  0.00  0.00     0.002 A 
HETATM   24  C   UNL     1      -0.036   7.750  25.771  0.00  0.00     0.033 A 
ENDBRANCH   7  18
TORSDOF 4
ENDMDL
MODEL 8
REMARK VINA RESULT:    -6.349      3.083      5.056
REMARK INTER + INTRA:          -8.561
REMARK INTER:                  -7.699
REMARK INTRA:                  -0.862
REMARK UNBOUND:                -1.098
REMARK  4 active torsions:
REMARK  status: ('A' for Active; 'I' for Inactive)
REMARK    1  A    between atoms: O_1  and  C_2 
REMARK    2  A    between atoms: C_4  and  O_5 
REMARK    3  A    between atoms: C_6  and  C_9 
REMARK    4  A    between atoms: N_15  and  C_16 
ROOT
HETATM    1  C   UNL     1       4.684   7.137  20.956  0.00  0.00     0.172 A 
HETATM    2  N   UNL     1       5.965   7.395  20.873  0.00  0.00    -0.151 NA
HETATM    3  N   UNL     1       6.303   7.113  19.584  0.00  0.00    -0.226 N 
HETATM    4  H   UNL     1       7.198   7.364  19.189  0.00  0.00     0.194 HD
HETATM    5  C   UNL     1       5.196   6.697  18.866  0.00  0.00     0.349 A 
HETATM    6  O   UNL     1       5.184   6.490  17.659  0.00  0.00    -0.245 OA
HETATM    7  N   UNL     1       4.152   6.668  19.776  0.00  0.00    -0.241 N 
ENDROOT
BRANCH   1   8
HETATM    8  C   UNL     1       3.932   7.281  22.238  0.00  0.00     0.045 A 
HETATM    9  C   UNL     1       3.681   8.554  22.787  0.00  0.00     0.082 A 
HETATM   10  C   UNL     1       2.899   8.704  23.938  0.00  0.00     0.074 A 
HETATM   11  C   UNL     1       2.373   7.577  24.553  0.00  0.00     0.068 A 
HETATM   12  C   UNL     1       2.681   6.307  24.086  0.00  0.00     0.037 A 
HETATM   13  C   UNL     1       3.485   6.159  22.951  0.00  0.00     0.021 A 
BRANCH   9  14
HETATM   14  O   UNL     1       4.168   9.690  22.200  0.00  0.00    -0.360 OA
HETATM   15  H   UNL     1       5.116   9.777  22.395  0.00  0.00     0.217 HD
ENDBRANCH   9  14
BRANCH  11  16
HETATM   16  O   UNL     1       1.539   7.676  25.626  0.00  0.00    -0.361 OA
HETATM   17  H   UNL     1       0.620   7.681  25.311  0.00  0.00     0.217 HD
ENDBRANCH  11  16
ENDBRANCH   1   8
BRANCH   7  18
HETATM   18  C   UNL     1       2.830   6.429  19.350  0.00  0.00     0.084 A 
HETATM   19  C   UNL     1       2.130   7.310  18.524  0.00  0.00     0.143 A 
HETATM   20  F   UNL     1       2.708   8.439  18.083  0.00  0.00    -0.204 F 
HETATM   21  C   UNL     1       0.842   7.008  18.083  0.00  0.00     0.044 A 
HETATM   22  C   UNL     1       0.232   5.814  18.472  0.00  0.00     0.003 A 
HETATM   23  C   UNL     1       0.914   4.925  19.299  0.00  0.00     0.002 A 
HETATM   24  C   UNL     1       2.208   5.225  19.728  0.00  0.00     0.033 A 
ENDBRANCH   7  18
TORSDOF 4
ENDMDL
MODEL 9
REMARK VINA RESULT:    -6.213      2.991      5.319
REMARK INTER + INTRA:          -8.401
REMARK INTER:                  -7.302
REMARK INTRA:                  -1.098
REMARK UNBOUND:                -1.098
REMARK  4 active torsions:
REMARK  status: ('A' for Active; 'I' for Inactive)
REMARK    1  A    between atoms: O_1  and  C_2 
REMARK    2  A    between atoms: C_4  and  O_5 
REMARK    3  A    between atoms: C_6  and  C_9 
REMARK    4  A    between atoms: N_15  and  C_16 
ROOT
HETATM    1  C   UNL     1       3.692   7.608  20.395  0.00  0.00     0.172 A 
HETATM    2  N   UNL     1       3.667   8.879  20.078  0.00  0.00    -0.151 NA
HETATM    3  N   UNL     1       3.022   8.935  18.880  0.00  0.00    -0.226 N 
HETATM    4  H   UNL     1       2.722   9.805  18.465  0.00  0.00     0.194 HD
HETATM    5  C   UNL     1       2.627   7.673  18.474  0.00  0.00     0.349 A 
HETATM    6  O   UNL     1       1.929   7.440  17.496  0.00  0.00    -0.245 OA
HETATM    7  N   UNL     1       3.107   6.805  19.441  0.00  0.00    -0.241 N 
ENDROOT
BRANCH   1   8
HETATM    8  C   UNL     1       4.358   7.118  21.638  0.00  0.00     0.045 A 
HETATM    9  C   UNL     1       3.923   7.547  22.907  0.00  0.00     0.082 A 
HETATM   10  C   UNL     1       4.480   7.023  24.078  0.00  0.00     0.074 A 
HETATM   11  C   UNL     1       5.487   6.073  23.985  0.00  0.00     0.068 A 
HETATM   12  C   UNL     1       5.998   5.702  22.749  0.00  0.00     0.037 A 
HETATM   13  C   UNL     1       5.457   6.247  21.581  0.00  0.00     0.021 A 
BRANCH   9  14
HETATM   14  O   UNL     1       2.921   8.469  23.040  0.00  0.00    -0.360 OA
HETATM   15  H   UNL     1       2.912   9.056  22.266  0.00  0.00     0.217 HD
ENDBRANCH   9  14
BRANCH  11  16
HETATM   16  O   UNL     1       6.004   5.473  25.094  0.00  0.00    -0.361 OA
HETATM   17  H   UNL     1       6.501   6.133  25.606  0.00  0.00     0.217 HD
ENDBRANCH  11  16
ENDBRANCH   1   8
BRANCH   7  18
HETATM   18  C   UNL     1       2.757   5.440  19.424  0.00  0.00     0.084 A 
HETATM   19  C   UNL     1       3.548   4.463  18.818  0.00  0.00     0.143 A 
HETATM   20  F   UNL     1       4.706   4.793  18.224  0.00  0.00    -0.204 F 
HETATM   21  C   UNL     1       3.190   3.116  18.871  0.00  0.00     0.044 A 
HETATM   22  C   UNL     1       2.023   2.729  19.533  0.00  0.00     0.003 A 
HETATM   23  C   UNL     1       1.220   3.690  20.140  0.00  0.00     0.002 A 
HETATM   24  C   UNL     1       1.588   5.036  20.095  0.00  0.00     0.033 A 
ENDBRANCH   7  18
TORSDOF 4
ENDMDL
