MODEL 1
REMARK VINA RESULT:    -8.123      0.000      0.000
REMARK INTER + INTRA:         -10.857
REMARK INTER:                  -9.830
REMARK INTRA:                  -1.028
REMARK UNBOUND:                -0.598
REMARK  5 active torsions:
REMARK  status: ('A' for Active; 'I' for Inactive)
REMARK       I    between atoms: N_5  and  C_6 
REMARK    1  A    between atoms: C_6  and  C_8 
REMARK    2  A    between atoms: C_15  and  C_19 
REMARK    3  A    between atoms: C_16  and  O_18 
REMARK       I    between atoms: C_19  and  N_21 
REMARK    4  A    between atoms: N_21  and  C_23 
REMARK    5  A    between atoms: C_26  and  N_29 
ROOT
HETATM    1  C   UNL     1       1.840   5.605  17.902  0.00  0.00     0.157 A 
HETATM    2  N   UNL     1       2.427   5.617  16.685  0.00  0.00    -0.168 NA
HETATM    3  N   UNL     1       3.656   6.093  16.901  0.00  0.00    -0.277 N 
HETATM    4  H   UNL     1       4.267   6.216  16.101  0.00  0.00     0.189 HD
HETATM    5  C   UNL     1       2.763   6.082  18.901  0.00  0.00     0.029 A 
HETATM    6  C   UNL     1       3.914   6.420  18.200  0.00  0.00     0.065 A 
HETATM    7  C   UNL     1       2.761   6.312  20.299  0.00  0.00     0.036 A 
HETATM    8  C   UNL     1       3.854   6.959  20.944  0.00  0.00     0.066 A 
HETATM    9  C   UNL     1       4.934   7.358  20.149  0.00  0.00     0.083 A 
HETATM   10  C   UNL     1       5.025   7.023  18.792  0.00  0.00     0.069 A 
ENDROOT
BRANCH   8  11
HETATM   11  C   UNL     1       3.619   7.333  22.380  0.00  0.00     0.260 C 
HETATM   12  O   UNL     1       3.638   8.554  22.561  0.00  0.00    -0.267 OA
HETATM   13  N   UNL     1       3.429   6.412  23.450  0.00  0.00    -0.318 N 
HETATM   14  C   UNL     1       3.615   4.966  23.341  0.00  0.00     0.159 C 
BRANCH  13  15
HETATM   15  C   UNL     1       3.080   6.915  24.772  0.00  0.00     0.037 A 
HETATM   16  C   UNL     1       1.855   7.538  25.009  0.00  0.00     0.032 A 
HETATM   17  C   UNL     1       1.533   8.084  26.261  0.00  0.00     0.031 A 
HETATM   18  C   UNL     1       2.409   8.037  27.351  0.00  0.00     0.030 A 
HETATM   19  C   UNL     1       3.598   7.331  27.140  0.00  0.00     0.031 A 
HETATM   20  C   UNL     1       3.932   6.779  25.880  0.00  0.00     0.032 A 
BRANCH  18  21
HETATM   21  N   UNL     1       2.102   8.673  28.535  0.00  0.00    -0.377 N 
HETATM   22  C   UNL     1       0.758   9.119  28.925  0.00  0.00     0.149 C 
HETATM   23  C   UNL     1       0.366   8.501  30.276  0.00  0.00     0.187 C 
HETATM   24  O   UNL     1       1.343   8.785  31.293  0.00  0.00    -0.388 OA
HETATM   25  C   UNL     1       2.623   8.255  30.910  0.00  0.00     0.187 C 
HETATM   26  C   UNL     1       3.120   8.861  29.586  0.00  0.00     0.149 C 
ENDBRANCH  18  21
ENDBRANCH  13  15
ENDBRANCH   8  11
BRANCH   9  27
HETATM   27  O   UNL     1       5.931   8.192  20.574  0.00  0.00    -0.360 OA
HETATM   28  H   UNL     1       5.748   9.072  20.200  0.00  0.00     0.217 HD
ENDBRANCH   9  27
BRANCH   1  29
HETATM   29  C   UNL     1       0.411   5.230  18.091  0.00  0.00     0.275 C 
HETATM   30  N   UNL     1       0.102   3.937  18.515  0.00  0.00    -0.347 N 
HETATM   31  C   UNL     1       1.029   2.925  18.996  0.00  0.00     0.126 C 
HETATM   32  C   UNL     1      -1.272   3.473  18.615  0.00  0.00     0.126 C 
HETATM   33  C   UNL     1       0.155   1.905  19.711  0.00  0.00     0.021 C 
HETATM   34  C   UNL     1      -1.162   1.991  18.954  0.00  0.00     0.021 C 
HETATM   35  O   UNL     1      -0.488   6.044  17.866  0.00  0.00    -0.266 OA
ENDBRANCH   1  29
TORSDOF 5
ENDMDL
MODEL 2
REMARK VINA RESULT:    -7.926      3.233     10.372
REMARK INTER + INTRA:         -10.609
REMARK INTER:                  -9.610
REMARK INTRA:                  -0.999
REMARK UNBOUND:                -0.598
REMARK  5 active torsions:
REMARK  status: ('A' for Active; 'I' for Inactive)
REMARK       I    between atoms: N_5  and  C_6 
REMARK    1  A    between atoms: C_6  and  C_8 
REMARK    2  A    between atoms: C_15  and  C_19 
REMARK    3  A    between atoms: C_16  and  O_18 
REMARK       I    between atoms: C_19  and  N_21 
REMARK    4  A    between atoms: N_21  and  C_23 
REMARK    5  A    between atoms: C_26  and  N_29 
ROOT
HETATM    1  C   UNL     1       4.105   6.383  22.660  0.00  0.00     0.157 A 
HETATM    2  N   UNL     1       5.346   6.794  23.003  0.00  0.00    -0.168 NA
HETATM    3  N   UNL     1       5.959   7.041  21.844  0.00  0.00    -0.277 N 
HETATM    4  H   UNL     1       6.929   7.338  21.871  0.00  0.00     0.189 HD
HETATM    5  C   UNL     1       3.959   6.397  21.225  0.00  0.00     0.029 A 
HETATM    6  C   UNL     1       5.197   6.796  20.739  0.00  0.00     0.065 A 
HETATM    7  C   UNL     1       2.956   6.084  20.276  0.00  0.00     0.036 A 
HETATM    8  C   UNL     1       3.236   6.078  18.879  0.00  0.00     0.066 A 
HETATM    9  C   UNL     1       4.537   6.397  18.475  0.00  0.00     0.083 A 
HETATM   10  C   UNL     1       5.510   6.842  19.379  0.00  0.00     0.069 A 
ENDROOT
BRANCH   8  11
HETATM   11  C   UNL     1       2.146   5.516  18.011  0.00  0.00     0.260 C 
HETATM   12  O   UNL     1       1.243   6.331  17.798  0.00  0.00    -0.267 OA
HETATM   13  N   UNL     1       2.102   4.187  17.503  0.00  0.00    -0.318 N 
HETATM   14  C   UNL     1       3.019   3.118  17.898  0.00  0.00     0.159 C 
BRANCH  13  15
HETATM   15  C   UNL     1       1.051   3.814  16.566  0.00  0.00     0.037 A 
HETATM   16  C   UNL     1       1.109   4.194  15.225  0.00  0.00     0.032 A 
HETATM   17  C   UNL     1       0.072   3.898  14.326  0.00  0.00     0.031 A 
HETATM   18  C   UNL     1      -1.079   3.201  14.708  0.00  0.00     0.030 A 
HETATM   19  C   UNL     1      -1.096   2.739  16.029  0.00  0.00     0.031 A 
HETATM   20  C   UNL     1      -0.056   3.036  16.943  0.00  0.00     0.032 A 
BRANCH  18  21
HETATM   21  N   UNL     1      -2.122   3.017  13.826  0.00  0.00    -0.377 N 
HETATM   22  C   UNL     1      -3.202   2.036  13.993  0.00  0.00     0.149 C 
HETATM   23  C   UNL     1      -4.567   2.740  13.958  0.00  0.00     0.187 C 
HETATM   24  O   UNL     1      -4.731   3.519  12.760  0.00  0.00    -0.388 OA
HETATM   25  C   UNL     1      -3.705   4.522  12.679  0.00  0.00     0.187 C 
HETATM   26  C   UNL     1      -2.298   3.901  12.657  0.00  0.00     0.149 C 
ENDBRANCH  18  21
ENDBRANCH  13  15
ENDBRANCH   8  11
BRANCH   9  27
HETATM   27  O   UNL     1       5.015   6.202  17.209  0.00  0.00    -0.360 OA
HETATM   28  H   UNL     1       5.422   7.041  16.924  0.00  0.00     0.217 HD
ENDBRANCH   9  27
BRANCH   1  29
HETATM   29  C   UNL     1       3.118   5.907  23.668  0.00  0.00     0.275 C 
HETATM   30  N   UNL     1       2.457   6.846  24.462  0.00  0.00    -0.347 N 
HETATM   31  C   UNL     1       2.464   8.292  24.302  0.00  0.00     0.126 C 
HETATM   32  C   UNL     1       1.564   6.446  25.537  0.00  0.00     0.126 C 
HETATM   33  C   UNL     1       1.279   8.780  25.124  0.00  0.00     0.021 C 
HETATM   34  C   UNL     1       1.186   7.747  26.237  0.00  0.00     0.021 C 
HETATM   35  O   UNL     1       2.895   4.703  23.812  0.00  0.00    -0.266 OA
ENDBRANCH   1  29
TORSDOF 5
ENDMDL
MODEL 3
REMARK VINA RESULT:    -7.817      2.768      9.947
REMARK INTER + INTRA:         -10.471
REMARK INTER:                  -9.474
REMARK INTRA:                  -0.997
REMARK UNBOUND:                -0.598
REMARK  5 active torsions:
REMARK  status: ('A' for Active; 'I' for Inactive)
REMARK       I    between atoms: N_5  and  C_6 
REMARK    1  A    between atoms: C_6  and  C_8 
REMARK    2  A    between atoms: C_15  and  C_19 
REMARK    3  A    between atoms: C_16  and  O_18 
REMARK       I    between atoms: C_19  and  N_21 
REMARK    4  A    between atoms: N_21  and  C_23 
REMARK    5  A    between atoms: C_26  and  N_29 
ROOT
HETATM    1  C   UNL     1       2.905   6.773  25.815  0.00  0.00     0.157 A 
HETATM    2  N   UNL     1       3.935   7.025  26.653  0.00  0.00    -0.168 NA
HETATM    3  N   UNL     1       5.015   7.057  25.870  0.00  0.00    -0.277 N 
HETATM    4  H   UNL     1       5.918   7.205  26.309  0.00  0.00     0.189 HD
HETATM    5  C   UNL     1       3.386   6.663  24.460  0.00  0.00     0.029 A 
HETATM    6  C   UNL     1       4.764   6.818  24.551  0.00  0.00     0.065 A 
HETATM    7  C   UNL     1       2.842   6.409  23.177  0.00  0.00     0.036 A 
HETATM    8  C   UNL     1       3.682   6.218  22.042  0.00  0.00     0.066 A 
HETATM    9  C   UNL     1       5.065   6.293  22.237  0.00  0.00     0.083 A 
HETATM   10  C   UNL     1       5.626   6.677  23.462  0.00  0.00     0.069 A 
ENDROOT
BRANCH   8  11
HETATM   11  C   UNL     1       2.981   5.740  20.802  0.00  0.00     0.260 C 
HETATM   12  O   UNL     1       2.632   4.558  20.881  0.00  0.00    -0.267 OA
HETATM   13  N   UNL     1       2.759   6.519  19.631  0.00  0.00    -0.318 N 
HETATM   14  C   UNL     1       3.337   7.840  19.392  0.00  0.00     0.159 C 
BRANCH  13  15
HETATM   15  C   UNL     1       1.950   5.970  18.551  0.00  0.00     0.037 A 
HETATM   16  C   UNL     1       0.557   5.968  18.619  0.00  0.00     0.032 A 
HETATM   17  C   UNL     1      -0.232   5.384  17.616  0.00  0.00     0.031 A 
HETATM   18  C   UNL     1       0.318   4.774  16.484  0.00  0.00     0.030 A 
HETATM   19  C   UNL     1       1.711   4.858  16.370  0.00  0.00     0.031 A 
HETATM   20  C   UNL     1       2.515   5.443  17.378  0.00  0.00     0.032 A 
BRANCH  18  21
HETATM   21  N   UNL     1      -0.481   4.121  15.571  0.00  0.00    -0.377 N 
HETATM   22  C   UNL     1      -0.825   4.633  14.238  0.00  0.00     0.149 C 
HETATM   23  C   UNL     1      -0.421   3.616  13.159  0.00  0.00     0.187 C 
HETATM   24  O   UNL     1      -1.003   2.324  13.404  0.00  0.00    -0.388 OA
HETATM   25  C   UNL     1      -0.572   1.822  14.682  0.00  0.00     0.187 C 
HETATM   26  C   UNL     1      -0.982   2.758  15.832  0.00  0.00     0.149 C 
ENDBRANCH  18  21
ENDBRANCH  13  15
ENDBRANCH   8  11
BRANCH   9  27
HETATM   27  O   UNL     1       5.992   5.900  21.311  0.00  0.00    -0.360 OA
HETATM   28  H   UNL     1       6.620   6.637  21.203  0.00  0.00     0.217 HD
ENDBRANCH   9  27
BRANCH   1  29
HETATM   29  C   UNL     1       1.516   6.558  26.306  0.00  0.00     0.275 C 
HETATM   30  N   UNL     1       0.759   7.663  26.699  0.00  0.00    -0.347 N 
HETATM   31  C   UNL     1       1.091   9.067  26.510  0.00  0.00     0.126 C 
HETATM   32  C   UNL     1      -0.562   7.515  27.287  0.00  0.00     0.126 C 
HETATM   33  C   UNL     1      -0.223   9.808  26.716  0.00  0.00     0.021 C 
HETATM   34  C   UNL     1      -0.963   8.924  27.709  0.00  0.00     0.021 C 
HETATM   35  O   UNL     1       1.042   5.422  26.376  0.00  0.00    -0.266 OA
ENDBRANCH   1  29
TORSDOF 5
ENDMDL
MODEL 4
REMARK VINA RESULT:    -7.813      2.576      9.720
REMARK INTER + INTRA:         -10.466
REMARK INTER:                  -9.489
REMARK INTRA:                  -0.977
REMARK UNBOUND:                -0.598
REMARK  5 active torsions:
REMARK  status: ('A' for Active; 'I' for Inactive)
REMARK       I    between atoms: N_5  and  C_6 
REMARK    1  A    between atoms: C_6  and  C_8 
REMARK    2  A    between atoms: C_15  and  C_19 
REMARK    3  A    between atoms: C_16  and  O_18 
REMARK       I    between atoms: C_19  and  N_21 
REMARK    4  A    between atoms: N_21  and  C_23 
REMARK    5  A    between atoms: C_26  and  N_29 
ROOT
HETATM    1  C   UNL     1       1.610   8.582  26.754  0.00  0.00     0.157 A 
HETATM    2  N   UNL     1       2.191   8.605  27.974  0.00  0.00    -0.168 NA
HETATM    3  N   UNL     1       3.362   7.986  27.809  0.00  0.00    -0.277 N 
HETATM    4  H   UNL     1       3.955   7.864  28.623  0.00  0.00     0.189 HD
HETATM    5  C   UNL     1       2.479   7.931  25.806  0.00  0.00     0.029 A 
HETATM    6  C   UNL     1       3.585   7.530  26.543  0.00  0.00     0.065 A 
HETATM    7  C   UNL     1       2.454   7.592  24.430  0.00  0.00     0.036 A 
HETATM    8  C   UNL     1       3.474   6.782  23.850  0.00  0.00     0.066 A 
HETATM    9  C   UNL     1       4.504   6.336  24.685  0.00  0.00     0.083 A 
HETATM   10  C   UNL     1       4.628   6.767  26.013  0.00  0.00     0.069 A 
ENDROOT
BRANCH   8  11
HETATM   11  C   UNL     1       3.202   6.322  22.446  0.00  0.00     0.260 C 
HETATM   12  O   UNL     1       2.345   5.434  22.397  0.00  0.00    -0.267 OA
HETATM   13  N   UNL     1       3.864   6.801  21.281  0.00  0.00    -0.318 N 
HETATM   14  C   UNL     1       5.030   7.682  21.293  0.00  0.00     0.159 C 
BRANCH  13  15
HETATM   15  C   UNL     1       3.409   6.361  19.969  0.00  0.00     0.037 A 
HETATM   16  C   UNL     1       2.661   7.200  19.143  0.00  0.00     0.032 A 
HETATM   17  C   UNL     1       2.161   6.767  17.904  0.00  0.00     0.031 A 
HETATM   18  C   UNL     1       2.382   5.476  17.414  0.00  0.00     0.030 A 
HETATM   19  C   UNL     1       3.210   4.665  18.198  0.00  0.00     0.031 A 
HETATM   20  C   UNL     1       3.716   5.093  19.450  0.00  0.00     0.032 A 
BRANCH  18  21
HETATM   21  N   UNL     1       1.791   5.052  16.243  0.00  0.00    -0.377 N 
HETATM   22  C   UNL     1       1.556   3.648  15.881  0.00  0.00     0.149 C 
HETATM   23  C   UNL     1       0.066   3.420  15.583  0.00  0.00     0.187 C 
HETATM   24  O   UNL     1      -0.417   4.323  14.573  0.00  0.00    -0.388 OA
HETATM   25  C   UNL     1      -0.246   5.684  15.004  0.00  0.00     0.187 C 
HETATM   26  C   UNL     1       1.231   6.017  15.278  0.00  0.00     0.149 C 
ENDBRANCH  18  21
ENDBRANCH  13  15
ENDBRANCH   8  11
BRANCH   9  27
HETATM   27  O   UNL     1       5.407   5.370  24.338  0.00  0.00    -0.360 OA
HETATM   28  H   UNL     1       5.166   5.059  23.447  0.00  0.00     0.217 HD
ENDBRANCH   9  27
BRANCH   1  29
HETATM   29  C   UNL     1       0.229   9.089  26.522  0.00  0.00     0.275 C 
HETATM   30  N   UNL     1       0.056  10.267  25.792  0.00  0.00    -0.347 N 
HETATM   31  C   UNL     1       1.069  10.992  25.041  0.00  0.00     0.126 C 
HETATM   32  C   UNL     1      -1.253  10.875  25.621  0.00  0.00     0.126 C 
HETATM   33  C   UNL     1       0.284  11.913  24.118  0.00  0.00     0.021 C 
HETATM   34  C   UNL     1      -0.982  12.198  24.913  0.00  0.00     0.021 C 
HETATM   35  O   UNL     1      -0.747   8.488  26.975  0.00  0.00    -0.266 OA
ENDBRANCH   1  29
TORSDOF 5
ENDMDL
MODEL 5
REMARK VINA RESULT:    -7.659      3.754      9.459
REMARK INTER + INTRA:         -10.271
REMARK INTER:                  -9.228
REMARK INTRA:                  -1.044
REMARK UNBOUND:                -0.598
REMARK  5 active torsions:
REMARK  status: ('A' for Active; 'I' for Inactive)
REMARK       I    between atoms: N_5  and  C_6 
REMARK    1  A    between atoms: C_6  and  C_8 
REMARK    2  A    between atoms: C_15  and  C_19 
REMARK    3  A    between atoms: C_16  and  O_18 
REMARK       I    between atoms: C_19  and  N_21 
REMARK    4  A    between atoms: N_21  and  C_23 
REMARK    5  A    between atoms: C_26  and  N_29 
ROOT
HETATM    1  C   UNL     1      -1.389  10.438  26.803  0.00  0.00     0.157 A 
HETATM    2  N   UNL     1      -1.876  10.843  27.996  0.00  0.00    -0.168 NA
HETATM    3  N   UNL     1      -1.211  10.120  28.901  0.00  0.00    -0.277 N 
HETATM    4  H   UNL     1      -1.448  10.247  29.879  0.00  0.00     0.189 HD
HETATM    5  C   UNL     1      -0.371   9.435  26.999  0.00  0.00     0.029 A 
HETATM    6  C   UNL     1      -0.317   9.237  28.372  0.00  0.00     0.065 A 
HETATM    7  C   UNL     1       0.479   8.640  26.191  0.00  0.00     0.036 A 
HETATM    8  C   UNL     1       1.281   7.607  26.756  0.00  0.00     0.066 A 
HETATM    9  C   UNL     1       1.204   7.406  28.139  0.00  0.00     0.083 A 
HETATM   10  C   UNL     1       0.480   8.263  28.977  0.00  0.00     0.069 A 
ENDROOT
BRANCH   8  11
HETATM   11  C   UNL     1       1.958   6.707  25.761  0.00  0.00     0.260 C 
HETATM   12  O   UNL     1       1.662   5.518  25.921  0.00  0.00    -0.267 OA
HETATM   13  N   UNL     1       2.873   7.131  24.757  0.00  0.00    -0.318 N 
HETATM   14  C   UNL     1       3.428   8.479  24.658  0.00  0.00     0.159 C 
BRANCH  13  15
HETATM   15  C   UNL     1       3.353   6.168  23.775  0.00  0.00     0.037 A 
HETATM   16  C   UNL     1       2.644   5.917  22.600  0.00  0.00     0.032 A 
HETATM   17  C   UNL     1       3.061   4.945  21.677  0.00  0.00     0.031 A 
HETATM   18  C   UNL     1       4.211   4.171  21.866  0.00  0.00     0.030 A 
HETATM   19  C   UNL     1       4.972   4.487  22.997  0.00  0.00     0.031 A 
HETATM   20  C   UNL     1       4.557   5.464  23.935  0.00  0.00     0.032 A 
BRANCH  18  21
HETATM   21  N   UNL     1       4.535   3.157  20.991  0.00  0.00    -0.377 N 
HETATM   22  C   UNL     1       4.347   1.725  21.259  0.00  0.00     0.149 C 
HETATM   23  C   UNL     1       3.481   1.089  20.160  0.00  0.00     0.187 C 
HETATM   24  O   UNL     1       4.030   1.323  18.851  0.00  0.00    -0.388 OA
HETATM   25  C   UNL     1       4.116   2.736  18.597  0.00  0.00     0.187 C 
HETATM   26  C   UNL     1       5.010   3.449  19.626  0.00  0.00     0.149 C 
ENDBRANCH  18  21
ENDBRANCH  13  15
ENDBRANCH   8  11
BRANCH   9  27
HETATM   27  O   UNL     1       1.719   6.316  28.784  0.00  0.00    -0.360 OA
HETATM   28  H   UNL     1       1.697   6.511  29.739  0.00  0.00     0.217 HD
ENDBRANCH   9  27
BRANCH   1  29
HETATM   29  C   UNL     1      -1.940  10.932  25.511  0.00  0.00     0.275 C 
HETATM   30  N   UNL     1      -1.182  11.822  24.749  0.00  0.00    -0.347 N 
HETATM   31  C   UNL     1       0.206  12.201  24.963  0.00  0.00     0.126 C 
HETATM   32  C   UNL     1      -1.704  12.426  23.534  0.00  0.00     0.126 C 
HETATM   33  C   UNL     1       0.646  12.827  23.647  0.00  0.00     0.021 C 
HETATM   34  C   UNL     1      -0.641  13.432  23.108  0.00  0.00     0.021 C 
HETATM   35  O   UNL     1      -3.054  10.571  25.122  0.00  0.00    -0.266 OA
ENDBRANCH   1  29
TORSDOF 5
ENDMDL
MODEL 6
REMARK VINA RESULT:    -7.646      3.029      9.644
REMARK INTER + INTRA:         -10.255
REMARK INTER:                  -9.191
REMARK INTRA:                  -1.065
REMARK UNBOUND:                -0.598
REMARK  5 active torsions:
REMARK  status: ('A' for Active; 'I' for Inactive)
REMARK       I    between atoms: N_5  and  C_6 
REMARK    1  A    between atoms: C_6  and  C_8 
REMARK    2  A    between atoms: C_15  and  C_19 
REMARK    3  A    between atoms: C_16  and  O_18 
REMARK       I    between atoms: C_19  and  N_21 
REMARK    4  A    between atoms: N_21  and  C_23 
REMARK    5  A    between atoms: C_26  and  N_29 
ROOT
HETATM    1  C   UNL     1       2.616   6.960  26.079  0.00  0.00     0.157 A 
HETATM    2  N   UNL     1       3.606   7.209  26.965  0.00  0.00    -0.168 NA
HETATM    3  N   UNL     1       4.728   7.185  26.242  0.00  0.00    -0.277 N 
HETATM    4  H   UNL     1       5.609   7.321  26.726  0.00  0.00     0.189 HD
HETATM    5  C   UNL     1       3.167   6.793  24.757  0.00  0.00     0.029 A 
HETATM    6  C   UNL     1       4.542   6.913  24.919  0.00  0.00     0.065 A 
HETATM    7  C   UNL     1       2.686   6.515  23.453  0.00  0.00     0.036 A 
HETATM    8  C   UNL     1       3.581   6.265  22.373  0.00  0.00     0.066 A 
HETATM    9  C   UNL     1       4.954   6.307  22.642  0.00  0.00     0.083 A 
HETATM   10  C   UNL     1       5.458   6.713  23.885  0.00  0.00     0.069 A 
ENDROOT
BRANCH   8  11
HETATM   11  C   UNL     1       2.935   5.769  21.110  0.00  0.00     0.260 C 
HETATM   12  O   UNL     1       2.516   4.612  21.216  0.00  0.00    -0.267 OA
HETATM   13  N   UNL     1       2.833   6.503  19.895  0.00  0.00    -0.318 N 
HETATM   14  C   UNL     1       3.499   7.779  19.640  0.00  0.00     0.159 C 
BRANCH  13  15
HETATM   15  C   UNL     1       2.065   5.949  18.788  0.00  0.00     0.037 A 
HETATM   16  C   UNL     1       0.680   6.101  18.721  0.00  0.00     0.032 A 
HETATM   17  C   UNL     1      -0.079   5.517  17.694  0.00  0.00     0.031 A 
HETATM   18  C   UNL     1       0.496   4.754  16.673  0.00  0.00     0.030 A 
HETATM   19  C   UNL     1       1.893   4.679  16.689  0.00  0.00     0.031 A 
HETATM   20  C   UNL     1       2.667   5.263  17.721  0.00  0.00     0.032 A 
BRANCH  18  21
HETATM   21  N   UNL     1      -0.289   4.111  15.741  0.00  0.00    -0.377 N 
HETATM   22  C   UNL     1      -0.626   4.644  14.415  0.00  0.00     0.149 C 
HETATM   23  C   UNL     1      -0.203   3.651  13.321  0.00  0.00     0.187 C 
HETATM   24  O   UNL     1      -0.775   2.349  13.537  0.00  0.00    -0.388 OA
HETATM   25  C   UNL     1      -0.350   1.828  14.808  0.00  0.00     0.187 C 
HETATM   26  C   UNL     1      -0.779   2.738  15.971  0.00  0.00     0.149 C 
ENDBRANCH  18  21
ENDBRANCH  13  15
ENDBRANCH   8  11
BRANCH   9  27
HETATM   27  O   UNL     1       5.917   5.859  21.781  0.00  0.00    -0.360 OA
HETATM   28  H   UNL     1       6.459   6.630  21.531  0.00  0.00     0.217 HD
ENDBRANCH   9  27
BRANCH   1  29
HETATM   29  C   UNL     1       1.197   6.799  26.498  0.00  0.00     0.275 C 
HETATM   30  N   UNL     1       0.684   5.512  26.668  0.00  0.00    -0.347 N 
HETATM   31  C   UNL     1       1.430   4.262  26.673  0.00  0.00     0.126 C 
HETATM   32  C   UNL     1      -0.719   5.281  26.969  0.00  0.00     0.126 C 
HETATM   33  C   UNL     1       0.488   3.251  27.312  0.00  0.00     0.021 C 
HETATM   34  C   UNL     1      -0.888   3.767  26.918  0.00  0.00     0.021 C 
HETATM   35  O   UNL     1       0.478   7.784  26.680  0.00  0.00    -0.266 OA
ENDBRANCH   1  29
TORSDOF 5
ENDMDL
MODEL 7
REMARK VINA RESULT:    -7.623      1.802      2.472
REMARK INTER + INTRA:         -10.226
REMARK INTER:                  -9.152
REMARK INTRA:                  -1.074
REMARK UNBOUND:                -0.598
REMARK  5 active torsions:
REMARK  status: ('A' for Active; 'I' for Inactive)
REMARK       I    between atoms: N_5  and  C_6 
REMARK    1  A    between atoms: C_6  and  C_8 
REMARK    2  A    between atoms: C_15  and  C_19 
REMARK    3  A    between atoms: C_16  and  O_18 
REMARK       I    between atoms: C_19  and  N_21 
REMARK    4  A    between atoms: N_21  and  C_23 
REMARK    5  A    between atoms: C_26  and  N_29 
ROOT
HETATM    1  C   UNL     1       3.618   5.424  19.469  0.00  0.00     0.157 A 
HETATM    2  N   UNL     1       4.159   5.847  18.305  0.00  0.00    -0.168 NA
HETATM    3  N   UNL     1       4.654   7.057  18.576  0.00  0.00    -0.277 N 
HETATM    4  H   UNL     1       5.086   7.576  17.819  0.00  0.00     0.189 HD
HETATM    5  C   UNL     1       3.810   6.420  20.494  0.00  0.00     0.029 A 
HETATM    6  C   UNL     1       4.454   7.474  19.859  0.00  0.00     0.065 A 
HETATM    7  C   UNL     1       3.486   6.583  21.863  0.00  0.00     0.036 A 
HETATM    8  C   UNL     1       3.717   7.818  22.535  0.00  0.00     0.066 A 
HETATM    9  C   UNL     1       4.280   8.865  21.797  0.00  0.00     0.083 A 
HETATM   10  C   UNL     1       4.736   8.691  20.484  0.00  0.00     0.069 A 
ENDROOT
BRANCH   8  11
HETATM   11  C   UNL     1       3.124   7.917  23.913  0.00  0.00     0.260 C 
HETATM   12  O   UNL     1       2.199   8.733  23.972  0.00  0.00    -0.267 OA
HETATM   13  N   UNL     1       3.574   7.198  25.056  0.00  0.00    -0.318 N 
HETATM   14  C   UNL     1       4.793   6.393  25.101  0.00  0.00     0.159 C 
BRANCH  13  15
HETATM   15  C   UNL     1       2.823   7.292  26.300  0.00  0.00     0.037 A 
HETATM   16  C   UNL     1       3.014   8.356  27.182  0.00  0.00     0.032 A 
HETATM   17  C   UNL     1       2.346   8.425  28.415  0.00  0.00     0.031 A 
HETATM   18  C   UNL     1       1.444   7.443  28.838  0.00  0.00     0.030 A 
HETATM   19  C   UNL     1       1.183   6.424  27.915  0.00  0.00     0.031 A 
HETATM   20  C   UNL     1       1.855   6.346  26.671  0.00  0.00     0.032 A 
BRANCH  18  21
HETATM   21  N   UNL     1       0.884   7.490  30.097  0.00  0.00    -0.377 N 
HETATM   22  C   UNL     1       0.498   6.315  30.889  0.00  0.00     0.149 C 
HETATM   23  C   UNL     1       1.202   6.343  32.255  0.00  0.00     0.187 C 
HETATM   24  O   UNL     1       0.948   7.571  32.958  0.00  0.00    -0.388 OA
HETATM   25  C   UNL     1       1.418   8.689  32.185  0.00  0.00     0.187 C 
HETATM   26  C   UNL     1       0.726   8.769  30.814  0.00  0.00     0.149 C 
ENDBRANCH  18  21
ENDBRANCH  13  15
ENDBRANCH   8  11
BRANCH   9  27
HETATM   27  O   UNL     1       4.338  10.162  22.228  0.00  0.00    -0.360 OA
HETATM   28  H   UNL     1       4.488  10.718  21.442  0.00  0.00     0.217 HD
ENDBRANCH   9  27
BRANCH   1  29
HETATM   29  C   UNL     1       2.864   4.145  19.576  0.00  0.00     0.275 C 
HETATM   30  N   UNL     1       1.506   4.132  19.254  0.00  0.00    -0.347 N 
HETATM   31  C   UNL     1       0.742   5.198  18.625  0.00  0.00     0.126 C 
HETATM   32  C   UNL     1       0.687   2.945  19.439  0.00  0.00     0.126 C 
HETATM   33  C   UNL     1      -0.527   4.524  18.123  0.00  0.00     0.021 C 
HETATM   34  C   UNL     1      -0.735   3.396  19.123  0.00  0.00     0.021 C 
HETATM   35  O   UNL     1       3.424   3.113  19.954  0.00  0.00    -0.266 OA
ENDBRANCH   1  29
TORSDOF 5
ENDMDL
MODEL 8
REMARK VINA RESULT:    -7.518      4.175      4.846
REMARK INTER + INTRA:         -10.094
REMARK INTER:                  -9.127
REMARK INTRA:                  -0.967
REMARK UNBOUND:                -0.598
REMARK  5 active torsions:
REMARK  status: ('A' for Active; 'I' for Inactive)
REMARK       I    between atoms: N_5  and  C_6 
REMARK    1  A    between atoms: C_6  and  C_8 
REMARK    2  A    between atoms: C_15  and  C_19 
REMARK    3  A    between atoms: C_16  and  O_18 
REMARK       I    between atoms: C_19  and  N_21 
REMARK    4  A    between atoms: N_21  and  C_23 
REMARK    5  A    between atoms: C_26  and  N_29 
ROOT
HETATM    1  C   UNL     1       0.627   5.841  17.005  0.00  0.00     0.157 A 
HETATM    2  N   UNL     1       0.377   6.843  16.133  0.00  0.00    -0.168 NA
HETATM    3  N   UNL     1       1.164   7.847  16.527  0.00  0.00    -0.277 N 
HETATM    4  H   UNL     1       1.110   8.722  16.019  0.00  0.00     0.189 HD
HETATM    5  C   UNL     1       1.624   6.256  17.961  0.00  0.00     0.029 A 
HETATM    6  C   UNL     1       1.915   7.574  17.633  0.00  0.00     0.065 A 
HETATM    7  C   UNL     1       2.286   5.702  19.085  0.00  0.00     0.036 A 
HETATM    8  C   UNL     1       3.136   6.497  19.907  0.00  0.00     0.066 A 
HETATM    9  C   UNL     1       3.299   7.844  19.565  0.00  0.00     0.083 A 
HETATM   10  C   UNL     1       2.769   8.383  18.386  0.00  0.00     0.069 A 
ENDROOT
BRANCH   8  11
HETATM   11  C   UNL     1       3.589   5.840  21.180  0.00  0.00     0.260 C 
HETATM   12  O   UNL     1       2.671   5.703  21.995  0.00  0.00    -0.267 OA
HETATM   13  N   UNL     1       4.924   5.441  21.470  0.00  0.00    -0.318 N 
HETATM   14  C   UNL     1       6.086   5.773  20.647  0.00  0.00     0.159 C 
BRANCH  13  15
HETATM   15  C   UNL     1       5.199   4.696  22.691  0.00  0.00     0.037 A 
HETATM   16  C   UNL     1       4.933   3.329  22.781  0.00  0.00     0.032 A 
HETATM   17  C   UNL     1       5.131   2.613  23.972  0.00  0.00     0.031 A 
HETATM   18  C   UNL     1       5.611   3.214  25.141  0.00  0.00     0.030 A 
HETATM   19  C   UNL     1       5.965   4.563  25.025  0.00  0.00     0.031 A 
HETATM   20  C   UNL     1       5.766   5.293  23.829  0.00  0.00     0.032 A 
BRANCH  18  21
HETATM   21  N   UNL     1       5.696   2.503  26.319  0.00  0.00    -0.377 N 
HETATM   22  C   UNL     1       6.177   1.121  26.434  0.00  0.00     0.149 C 
HETATM   23  C   UNL     1       7.344   1.047  27.430  0.00  0.00     0.187 C 
HETATM   24  O   UNL     1       6.985   1.598  28.709  0.00  0.00    -0.388 OA
HETATM   25  C   UNL     1       6.603   2.977  28.563  0.00  0.00     0.187 C 
HETATM   26  C   UNL     1       5.402   3.141  27.617  0.00  0.00     0.149 C 
ENDBRANCH  18  21
ENDBRANCH  13  15
ENDBRANCH   8  11
BRANCH   9  27
HETATM   27  O   UNL     1       3.879   8.776  20.380  0.00  0.00    -0.360 OA
HETATM   28  H   UNL     1       4.812   8.518  20.492  0.00  0.00     0.217 HD
ENDBRANCH   9  27
BRANCH   1  29
HETATM   29  C   UNL     1      -0.126   4.557  16.978  0.00  0.00     0.275 C 
HETATM   30  N   UNL     1       0.147   3.635  15.967  0.00  0.00    -0.347 N 
HETATM   31  C   UNL     1       1.241   3.679  15.009  0.00  0.00     0.126 C 
HETATM   32  C   UNL     1      -0.626   2.412  15.819  0.00  0.00     0.126 C 
HETATM   33  C   UNL     1       1.323   2.266  14.448  0.00  0.00     0.021 C 
HETATM   34  C   UNL     1      -0.117   1.781  14.527  0.00  0.00     0.021 C 
HETATM   35  O   UNL     1      -0.987   4.314  17.827  0.00  0.00    -0.266 OA
ENDBRANCH   1  29
TORSDOF 5
ENDMDL
MODEL 9
REMARK VINA RESULT:    -7.481      4.330     10.664
REMARK INTER + INTRA:         -10.047
REMARK INTER:                  -9.449
REMARK INTRA:                  -0.598
REMARK UNBOUND:                -0.598
REMARK  5 active torsions:
REMARK  status: ('A' for Active; 'I' for Inactive)
REMARK       I    between atoms: N_5  and  C_6 
REMARK    1  A    between atoms: C_6  and  C_8 
REMARK    2  A    between atoms: C_15  and  C_19 
REMARK    3  A    between atoms: C_16  and  O_18 
REMARK       I    between atoms: C_19  and  N_21 
REMARK    4  A    between atoms: N_21  and  C_23 
REMARK    5  A    between atoms: C_26  and  N_29 
ROOT
HETATM    1  C   UNL     1       4.588   6.261  20.803  0.00  0.00     0.157 A 
HETATM    2  N   UNL     1       5.360   7.321  21.130  0.00  0.00    -0.168 NA
HETATM    3  N   UNL     1       4.837   8.347  20.456  0.00  0.00    -0.277 N 
HETATM    4  H   UNL     1       5.291   9.251  20.536  0.00  0.00     0.189 HD
HETATM    5  C   UNL     1       3.541   6.672  19.901  0.00  0.00     0.029 A 
HETATM    6  C   UNL     1       3.765   8.024  19.678  0.00  0.00     0.065 A 
HETATM    7  C   UNL     1       2.460   6.067  19.212  0.00  0.00     0.036 A 
HETATM    8  C   UNL     1       1.698   6.791  18.250  0.00  0.00     0.066 A 
HETATM    9  C   UNL     1       2.052   8.124  18.011  0.00  0.00     0.083 A 
HETATM   10  C   UNL     1       3.023   8.786  18.773  0.00  0.00     0.069 A 
ENDROOT
BRANCH   8  11
HETATM   11  C   UNL     1       0.736   5.966  17.445  0.00  0.00     0.260 C 
HETATM   12  O   UNL     1      -0.404   6.440  17.439  0.00  0.00    -0.267 OA
HETATM   13  N   UNL     1       1.052   4.748  16.780  0.00  0.00    -0.318 N 
HETATM   14  C   UNL     1       2.314   4.025  16.931  0.00  0.00     0.159 C 
BRANCH  13  15
HETATM   15  C   UNL     1       0.054   4.119  15.925  0.00  0.00     0.037 A 
HETATM   16  C   UNL     1      -0.262   4.646  14.673  0.00  0.00     0.032 A 
HETATM   17  C   UNL     1      -1.268   4.089  13.868  0.00  0.00     0.031 A 
HETATM   18  C   UNL     1      -2.013   2.971  14.259  0.00  0.00     0.030 A 
HETATM   19  C   UNL     1      -1.633   2.387  15.473  0.00  0.00     0.031 A 
HETATM   20  C   UNL     1      -0.622   2.945  16.293  0.00  0.00     0.032 A 
BRANCH  18  21
HETATM   21  N   UNL     1      -3.061   2.513  13.490  0.00  0.00    -0.377 N 
HETATM   22  C   UNL     1      -3.938   1.392  13.848  0.00  0.00     0.149 C 
HETATM   23  C   UNL     1      -5.406   1.847  13.852  0.00  0.00     0.187 C 
HETATM   24  O   UNL     1      -5.780   2.442  12.597  0.00  0.00    -0.388 OA
HETATM   25  C   UNL     1      -4.953   3.587  12.327  0.00  0.00     0.187 C 
HETATM   26  C   UNL     1      -3.463   3.212  12.254  0.00  0.00     0.149 C 
ENDBRANCH  18  21
ENDBRANCH  13  15
ENDBRANCH   8  11
BRANCH   9  27
HETATM   27  O   UNL     1       1.581   8.865  16.963  0.00  0.00    -0.360 OA
HETATM   28  H   UNL     1       1.034   8.271  16.415  0.00  0.00     0.217 HD
ENDBRANCH   9  27
BRANCH   1  29
HETATM   29  C   UNL     1       4.894   4.880  21.270  0.00  0.00     0.275 C 
HETATM   30  N   UNL     1       4.669   4.554  22.609  0.00  0.00    -0.347 N 
HETATM   31  C   UNL     1       3.973   5.356  23.603  0.00  0.00     0.126 C 
HETATM   32  C   UNL     1       5.047   3.261  23.154  0.00  0.00     0.126 C 
HETATM   33  C   UNL     1       3.641   4.382  24.724  0.00  0.00     0.021 C 
HETATM   34  C   UNL     1       4.778   3.374  24.651  0.00  0.00     0.021 C 
HETATM   35  O   UNL     1       5.351   4.039  20.493  0.00  0.00    -0.266 OA
ENDBRANCH   1  29
TORSDOF 5
ENDMDL
