MODEL 1
REMARK VINA RESULT:    -7.345      0.000      0.000
REMARK INTER + INTRA:         -12.537
REMARK INTER:                 -10.670
REMARK INTRA:                  -1.867
REMARK UNBOUND:                -2.830
REMARK  6 active torsions:
REMARK  status: ('A' for Active; 'I' for Inactive)
REMARK    1  A    between atoms: C_7  and  C_8 
REMARK    2  A    between atoms: C_8  and  N_9 
REMARK       I    between atoms: N_9  and  C_11 
REMARK    3  A    between atoms: C_11  and  C_13 
REMARK    4  A    between atoms: C_15  and  O_16 
REMARK    5  A    between atoms: C_23  and  C_24 
REMARK    6  A    between atoms: C_24  and  C_25 
ROOT
HETATM    1  C   UNL     1       4.139   7.792  19.705  0.00  0.00     0.066 C 
HETATM    2  C   UNL     1       3.523   7.462  20.946  0.00  0.00     0.035 C 
HETATM    3  C   UNL     1       5.533   7.748  19.660  0.00  0.00     0.083 C 
HETATM    4  C   UNL     1       6.317   7.219  20.694  0.00  0.00     0.069 C 
HETATM    5  C   UNL     1       5.666   6.892  21.878  0.00  0.00     0.065 A 
HETATM    6  C   UNL     1       4.300   7.056  22.059  0.00  0.00     0.020 A 
HETATM    7  N   UNL     1       6.149   6.442  23.073  0.00  0.00    -0.277 N 
HETATM    8  H   UNL     1       7.107   6.197  23.298  0.00  0.00     0.189 HD
HETATM    9  N   UNL     1       5.246   6.441  24.059  0.00  0.00    -0.178 NA
HETATM   10  C   UNL     1       4.107   6.833  23.461  0.00  0.00     0.071 A 
ENDROOT
BRANCH   1  11
HETATM   11  C   UNL     1       3.209   8.257  18.613  0.00  0.00     0.256 C 
HETATM   12  N   UNL     1       2.728   7.456  17.562  0.00  0.00    -0.348 N 
HETATM   13  C   UNL     1       1.598   7.996  16.812  0.00  0.00     0.153 C 
HETATM   14  O   UNL     1       2.797   9.420  18.730  0.00  0.00    -0.267 OA
BRANCH  12  15
HETATM   15  C   UNL     1       3.134   6.100  17.196  0.00  0.00     0.164 C 
BRANCH  15  16
HETATM   16  C   UNL     1       3.042   5.053  18.308  0.00  0.00    -0.040 A 
HETATM   17  C   UNL     1       1.803   4.889  18.950  0.00  0.00     0.010 A 
HETATM   18  C   UNL     1       1.699   4.145  20.127  0.00  0.00     0.024 A 
HETATM   19  C   UNL     1       2.833   3.545  20.669  0.00  0.00     0.034 A 
HETATM   20 CL   UNL     1       2.729   2.743  22.189  0.00  0.00    -0.084 Cl
HETATM   21  C   UNL     1       4.057   3.626  20.011  0.00  0.00     0.024 A 
HETATM   22  C   UNL     1       4.162   4.368  18.828  0.00  0.00     0.010 A 
ENDBRANCH  15  16
ENDBRANCH  12  15
ENDBRANCH   1  11
BRANCH   3  23
HETATM   23  O   UNL     1       6.271   8.302  18.660  0.00  0.00    -0.360 OA
HETATM   24  H   UNL     1       5.843   9.150  18.438  0.00  0.00     0.217 HD
ENDBRANCH   3  23
BRANCH  10  25
HETATM   25  C   UNL     1       2.929   7.197  24.304  0.00  0.00     0.100 C 
BRANCH  25  26
HETATM   26  C   UNL     1       2.801   8.696  24.365  0.00  0.00    -0.052 A 
HETATM   27  C   UNL     1       3.829   9.525  23.887  0.00  0.00     0.007 A 
HETATM   28  C   UNL     1       3.652  10.908  23.816  0.00  0.00     0.001 A 
HETATM   29  C   UNL     1       2.452  11.478  24.233  0.00  0.00     0.000 A 
HETATM   30  C   UNL     1       1.436  10.670  24.742  0.00  0.00     0.001 A 
HETATM   31  C   UNL     1       1.609   9.287  24.811  0.00  0.00     0.007 A 
ENDBRANCH  25  26
ENDBRANCH  10  25
TORSDOF 6
ENDMDL
MODEL 2
REMARK VINA RESULT:    -6.959      3.258      5.648
REMARK INTER + INTRA:         -12.027
REMARK INTER:                  -9.605
REMARK INTRA:                  -2.422
REMARK UNBOUND:                -2.830
REMARK  6 active torsions:
REMARK  status: ('A' for Active; 'I' for Inactive)
REMARK    1  A    between atoms: C_7  and  C_8 
REMARK    2  A    between atoms: C_8  and  N_9 
REMARK       I    between atoms: N_9  and  C_11 
REMARK    3  A    between atoms: C_11  and  C_13 
REMARK    4  A    between atoms: C_15  and  O_16 
REMARK    5  A    between atoms: C_23  and  C_24 
REMARK    6  A    between atoms: C_24  and  C_25 
ROOT
HETATM    1  C   UNL     1       5.362   5.999  21.906  0.00  0.00     0.066 C 
HETATM    2  C   UNL     1       4.843   4.845  21.251  0.00  0.00     0.035 C 
HETATM    3  C   UNL     1       4.889   6.262  23.192  0.00  0.00     0.083 C 
HETATM    4  C   UNL     1       4.099   5.359  23.917  0.00  0.00     0.069 C 
HETATM    5  C   UNL     1       3.635   4.238  23.240  0.00  0.00     0.065 A 
HETATM    6  C   UNL     1       3.930   3.984  21.907  0.00  0.00     0.020 A 
HETATM    7  N   UNL     1       2.796   3.235  23.633  0.00  0.00    -0.277 N 
HETATM    8  H   UNL     1       2.395   3.093  24.553  0.00  0.00     0.189 HD
HETATM    9  N   UNL     1       2.399   2.435  22.638  0.00  0.00    -0.178 NA
HETATM   10  C   UNL     1       3.071   2.890  21.565  0.00  0.00     0.071 A 
ENDROOT
BRANCH   1  11
HETATM   11  C   UNL     1       6.286   6.861  21.083  0.00  0.00     0.256 C 
HETATM   12  N   UNL     1       5.905   8.018  20.380  0.00  0.00    -0.348 N 
HETATM   13  C   UNL     1       6.993   8.877  19.925  0.00  0.00     0.153 C 
HETATM   14  O   UNL     1       7.481   6.535  21.117  0.00  0.00    -0.267 OA
BRANCH  12  15
HETATM   15  C   UNL     1       4.557   8.534  20.147  0.00  0.00     0.164 C 
BRANCH  15  16
HETATM   16  C   UNL     1       3.862   8.037  18.878  0.00  0.00    -0.040 A 
HETATM   17  C   UNL     1       2.727   8.737  18.438  0.00  0.00     0.010 A 
HETATM   18  C   UNL     1       1.898   8.208  17.446  0.00  0.00     0.024 A 
HETATM   19  C   UNL     1       2.204   6.975  16.875  0.00  0.00     0.034 A 
HETATM   20 CL   UNL     1       1.111   6.261  15.752  0.00  0.00    -0.084 Cl
HETATM   21  C   UNL     1       3.366   6.298  17.236  0.00  0.00     0.024 A 
HETATM   22  C   UNL     1       4.200   6.831  18.227  0.00  0.00     0.010 A 
ENDBRANCH  15  16
ENDBRANCH  12  15
ENDBRANCH   1  11
BRANCH   3  23
HETATM   23  O   UNL     1       5.060   7.452  23.826  0.00  0.00    -0.360 OA
HETATM   24  H   UNL     1       4.678   7.349  24.718  0.00  0.00     0.217 HD
ENDBRANCH   3  23
BRANCH  10  25
HETATM   25  C   UNL     1       2.690   2.401  20.206  0.00  0.00     0.100 C 
BRANCH  25  26
HETATM   26  C   UNL     1       1.494   3.170  19.714  0.00  0.00    -0.052 A 
HETATM   27  C   UNL     1       1.383   4.552  19.946  0.00  0.00     0.007 A 
HETATM   28  C   UNL     1       0.346   5.288  19.372  0.00  0.00     0.001 A 
HETATM   29  C   UNL     1      -0.599   4.651  18.570  0.00  0.00     0.000 A 
HETATM   30  C   UNL     1      -0.520   3.275  18.359  0.00  0.00     0.001 A 
HETATM   31  C   UNL     1       0.518   2.537  18.930  0.00  0.00     0.007 A 
ENDBRANCH  25  26
ENDBRANCH  10  25
TORSDOF 6
ENDMDL
MODEL 3
REMARK VINA RESULT:    -6.953      4.440      6.021
REMARK INTER + INTRA:         -12.019
REMARK INTER:                  -9.839
REMARK INTRA:                  -2.180
REMARK UNBOUND:                -2.830
REMARK  6 active torsions:
REMARK  status: ('A' for Active; 'I' for Inactive)
REMARK    1  A    between atoms: C_7  and  C_8 
REMARK    2  A    between atoms: C_8  and  N_9 
REMARK       I    between atoms: N_9  and  C_11 
REMARK    3  A    between atoms: C_11  and  C_13 
REMARK    4  A    between atoms: C_15  and  O_16 
REMARK    5  A    between atoms: C_23  and  C_24 
REMARK    6  A    between atoms: C_24  and  C_25 
ROOT
HETATM    1  C   UNL     1       1.544   2.726  17.499  0.00  0.00     0.066 C 
HETATM    2  C   UNL     1       2.678   3.386  18.054  0.00  0.00     0.035 C 
HETATM    3  C   UNL     1       0.548   2.325  18.390  0.00  0.00     0.083 C 
HETATM    4  C   UNL     1       0.526   2.706  19.738  0.00  0.00     0.069 C 
HETATM    5  C   UNL     1       1.647   3.366  20.227  0.00  0.00     0.065 A 
HETATM    6  C   UNL     1       2.752   3.663  19.441  0.00  0.00     0.020 A 
HETATM    7  N   UNL     1       1.963   3.788  21.487  0.00  0.00    -0.277 N 
HETATM    8  H   UNL     1       1.379   3.745  22.314  0.00  0.00     0.189 HD
HETATM    9  N   UNL     1       3.229   4.195  21.623  0.00  0.00    -0.178 NA
HETATM   10  C   UNL     1       3.737   4.109  20.381  0.00  0.00     0.071 A 
ENDROOT
BRANCH   1  11
HETATM   11  C   UNL     1       1.607   2.445  16.018  0.00  0.00     0.256 C 
HETATM   12  N   UNL     1       0.899   3.149  15.028  0.00  0.00    -0.348 N 
HETATM   13  C   UNL     1       1.344   2.940  13.654  0.00  0.00     0.153 C 
HETATM   14  O   UNL     1       2.415   1.568  15.683  0.00  0.00    -0.267 OA
BRANCH  12  15
HETATM   15  C   UNL     1      -0.147   4.154  15.203  0.00  0.00     0.164 C 
BRANCH  15  16
HETATM   16  C   UNL     1       0.273   5.436  15.925  0.00  0.00    -0.040 A 
HETATM   17  C   UNL     1       1.257   6.235  15.319  0.00  0.00     0.010 A 
HETATM   18  C   UNL     1       1.870   7.275  16.022  0.00  0.00     0.024 A 
HETATM   19  C   UNL     1       1.495   7.534  17.338  0.00  0.00     0.034 A 
HETATM   20 CL   UNL     1       2.345   8.725  18.246  0.00  0.00    -0.084 Cl
HETATM   21  C   UNL     1       0.467   6.810  17.936  0.00  0.00     0.024 A 
HETATM   22  C   UNL     1      -0.151   5.770  17.230  0.00  0.00     0.010 A 
ENDBRANCH  15  16
ENDBRANCH  12  15
ENDBRANCH   1  11
BRANCH   3  23
HETATM   23  O   UNL     1      -0.440   1.447  18.066  0.00  0.00    -0.360 OA
HETATM   24  H   UNL     1      -0.208   0.600  18.490  0.00  0.00     0.217 HD
ENDBRANCH   3  23
BRANCH  10  25
HETATM   25  C   UNL     1       5.211   4.241  20.186  0.00  0.00     0.100 C 
BRANCH  25  26
HETATM   26  C   UNL     1       5.563   5.692  19.989  0.00  0.00    -0.052 A 
HETATM   27  C   UNL     1       6.496   6.324  20.827  0.00  0.00     0.007 A 
HETATM   28  C   UNL     1       6.924   7.626  20.559  0.00  0.00     0.001 A 
HETATM   29  C   UNL     1       6.416   8.313  19.460  0.00  0.00     0.000 A 
HETATM   30  C   UNL     1       5.464   7.709  18.639  0.00  0.00     0.001 A 
HETATM   31  C   UNL     1       5.037   6.407  18.903  0.00  0.00     0.007 A 
ENDBRANCH  25  26
ENDBRANCH  10  25
TORSDOF 6
ENDMDL
MODEL 4
REMARK VINA RESULT:    -6.934      3.130      7.096
REMARK INTER + INTRA:         -11.993
REMARK INTER:                 -10.829
REMARK INTRA:                  -1.164
REMARK UNBOUND:                -2.830
REMARK  6 active torsions:
REMARK  status: ('A' for Active; 'I' for Inactive)
REMARK    1  A    between atoms: C_7  and  C_8 
REMARK    2  A    between atoms: C_8  and  N_9 
REMARK       I    between atoms: N_9  and  C_11 
REMARK    3  A    between atoms: C_11  and  C_13 
REMARK    4  A    between atoms: C_15  and  O_16 
REMARK    5  A    between atoms: C_23  and  C_24 
REMARK    6  A    between atoms: C_24  and  C_25 
ROOT
HETATM    1  C   UNL     1       4.162   6.477  22.823  0.00  0.00     0.066 C 
HETATM    2  C   UNL     1       3.595   7.280  21.792  0.00  0.00     0.035 C 
HETATM    3  C   UNL     1       5.487   6.073  22.653  0.00  0.00     0.083 C 
HETATM    4  C   UNL     1       6.316   6.571  21.640  0.00  0.00     0.069 C 
HETATM    5  C   UNL     1       5.721   7.368  20.669  0.00  0.00     0.065 A 
HETATM    6  C   UNL     1       4.370   7.687  20.677  0.00  0.00     0.020 A 
HETATM    7  N   UNL     1       6.228   7.927  19.531  0.00  0.00    -0.277 N 
HETATM    8  H   UNL     1       7.190   7.910  19.213  0.00  0.00     0.189 HD
HETATM    9  N   UNL     1       5.301   8.453  18.723  0.00  0.00    -0.178 NA
HETATM   10  C   UNL     1       4.150   8.300  19.401  0.00  0.00     0.071 A 
ENDROOT
BRANCH   1  11
HETATM   11  C   UNL     1       3.222   6.069  23.929  0.00  0.00     0.256 C 
HETATM   12  N   UNL     1       2.821   6.891  24.997  0.00  0.00    -0.348 N 
HETATM   13  C   UNL     1       1.670   6.426  25.765  0.00  0.00     0.153 C 
HETATM   14  O   UNL     1       2.725   4.940  23.809  0.00  0.00    -0.267 OA
BRANCH  12  15
HETATM   15  C   UNL     1       3.331   8.210  25.367  0.00  0.00     0.164 C 
BRANCH  15  16
HETATM   16  C   UNL     1       2.511   9.405  24.877  0.00  0.00    -0.040 A 
HETATM   17  C   UNL     1       3.206  10.496  24.332  0.00  0.00     0.010 A 
HETATM   18  C   UNL     1       2.561  11.713  24.097  0.00  0.00     0.024 A 
HETATM   19  C   UNL     1       1.207  11.846  24.394  0.00  0.00     0.034 A 
HETATM   20 CL   UNL     1       0.447  13.382  24.231  0.00  0.00    -0.084 Cl
HETATM   21  C   UNL     1       0.476  10.757  24.861  0.00  0.00     0.024 A 
HETATM   22  C   UNL     1       1.121   9.536  25.093  0.00  0.00     0.010 A 
ENDBRANCH  15  16
ENDBRANCH  12  15
ENDBRANCH   1  11
BRANCH   3  23
HETATM   23  O   UNL     1       6.072   5.087  23.386  0.00  0.00    -0.360 OA
HETATM   24  H   UNL     1       6.536   4.509  22.753  0.00  0.00     0.217 HD
ENDBRANCH   3  23
BRANCH  10  25
HETATM   25  C   UNL     1       2.854   8.541  18.700  0.00  0.00     0.100 C 
BRANCH  25  26
HETATM   26  C   UNL     1       2.548   7.376  17.798  0.00  0.00    -0.052 A 
HETATM   27  C   UNL     1       2.693   6.055  18.256  0.00  0.00     0.007 A 
HETATM   28  C   UNL     1       2.278   4.980  17.468  0.00  0.00     0.001 A 
HETATM   29  C   UNL     1       1.725   5.212  16.210  0.00  0.00     0.000 A 
HETATM   30  C   UNL     1       1.607   6.515  15.730  0.00  0.00     0.001 A 
HETATM   31  C   UNL     1       2.018   7.592  16.517  0.00  0.00     0.007 A 
ENDBRANCH  25  26
ENDBRANCH  10  25
TORSDOF 6
ENDMDL
MODEL 5
REMARK VINA RESULT:    -6.899      5.411      8.212
REMARK INTER + INTRA:         -11.948
REMARK INTER:                 -10.272
REMARK INTRA:                  -1.676
REMARK UNBOUND:                -2.830
REMARK  6 active torsions:
REMARK  status: ('A' for Active; 'I' for Inactive)
REMARK    1  A    between atoms: C_7  and  C_8 
REMARK    2  A    between atoms: C_8  and  N_9 
REMARK       I    between atoms: N_9  and  C_11 
REMARK    3  A    between atoms: C_11  and  C_13 
REMARK    4  A    between atoms: C_15  and  O_16 
REMARK    5  A    between atoms: C_23  and  C_24 
REMARK    6  A    between atoms: C_24  and  C_25 
ROOT
HETATM    1  C   UNL     1       0.756   7.227  28.422  0.00  0.00     0.066 C 
HETATM    2  C   UNL     1       0.111   7.689  27.239  0.00  0.00     0.035 C 
HETATM    3  C   UNL     1       0.681   8.051  29.546  0.00  0.00     0.083 C 
HETATM    4  C   UNL     1      -0.141   9.184  29.612  0.00  0.00     0.069 C 
HETATM    5  C   UNL     1      -0.765   9.582  28.436  0.00  0.00     0.065 A 
HETATM    6  C   UNL     1      -0.614   8.906  27.233  0.00  0.00     0.020 A 
HETATM    7  N   UNL     1      -1.547  10.667  28.157  0.00  0.00    -0.277 N 
HETATM    8  H   UNL     1      -1.876  11.372  28.807  0.00  0.00     0.189 HD
HETATM    9  N   UNL     1      -1.795  10.839  26.855  0.00  0.00    -0.178 NA
HETATM   10  C   UNL     1      -1.215   9.777  26.267  0.00  0.00     0.071 A 
ENDROOT
BRANCH   1  11
HETATM   11  C   UNL     1       1.537   5.944  28.286  0.00  0.00     0.256 C 
HETATM   12  N   UNL     1       2.900   5.856  27.951  0.00  0.00    -0.348 N 
HETATM   13  C   UNL     1       3.535   4.564  28.190  0.00  0.00     0.153 C 
HETATM   14  O   UNL     1       0.913   4.914  28.576  0.00  0.00    -0.267 OA
BRANCH  12  15
HETATM   15  C   UNL     1       3.795   6.922  27.505  0.00  0.00     0.164 C 
BRANCH  15  16
HETATM   16  C   UNL     1       3.739   7.260  26.013  0.00  0.00    -0.040 A 
HETATM   17  C   UNL     1       4.727   6.709  25.181  0.00  0.00     0.010 A 
HETATM   18  C   UNL     1       4.895   7.162  23.870  0.00  0.00     0.024 A 
HETATM   19  C   UNL     1       4.066   8.165  23.374  0.00  0.00     0.034 A 
HETATM   20 CL   UNL     1       4.361   8.817  21.808  0.00  0.00    -0.084 Cl
HETATM   21  C   UNL     1       3.028   8.673  24.151  0.00  0.00     0.024 A 
HETATM   22  C   UNL     1       2.856   8.216  25.464  0.00  0.00     0.010 A 
ENDBRANCH  15  16
ENDBRANCH  12  15
ENDBRANCH   1  11
BRANCH   3  23
HETATM   23  O   UNL     1       1.469   7.897  30.644  0.00  0.00    -0.360 OA
HETATM   24  H   UNL     1       1.101   7.144  31.144  0.00  0.00     0.217 HD
ENDBRANCH   3  23
BRANCH  10  25
HETATM   25  C   UNL     1      -1.063   9.759  24.782  0.00  0.00     0.100 C 
BRANCH  25  26
HETATM   26  C   UNL     1      -0.609  11.113  24.307  0.00  0.00    -0.052 A 
HETATM   27  C   UNL     1      -1.437  11.903  23.492  0.00  0.00     0.007 A 
HETATM   28  C   UNL     1      -1.075  13.211  23.167  0.00  0.00     0.001 A 
HETATM   29  C   UNL     1       0.122  13.741  23.643  0.00  0.00     0.000 A 
HETATM   30  C   UNL     1       0.969  12.957  24.425  0.00  0.00     0.001 A 
HETATM   31  C   UNL     1       0.608  11.649  24.754  0.00  0.00     0.007 A 
ENDBRANCH  25  26
ENDBRANCH  10  25
TORSDOF 6
ENDMDL
MODEL 6
REMARK VINA RESULT:    -6.891      5.068      7.977
REMARK INTER + INTRA:         -11.938
REMARK INTER:                  -9.558
REMARK INTRA:                  -2.380
REMARK UNBOUND:                -2.830
REMARK  6 active torsions:
REMARK  status: ('A' for Active; 'I' for Inactive)
REMARK    1  A    between atoms: C_7  and  C_8 
REMARK    2  A    between atoms: C_8  and  N_9 
REMARK       I    between atoms: N_9  and  C_11 
REMARK    3  A    between atoms: C_11  and  C_13 
REMARK    4  A    between atoms: C_15  and  O_16 
REMARK    5  A    between atoms: C_23  and  C_24 
REMARK    6  A    between atoms: C_24  and  C_25 
ROOT
HETATM    1  C   UNL     1       0.800   7.062  28.708  0.00  0.00     0.066 C 
HETATM    2  C   UNL     1       0.158   7.592  27.552  0.00  0.00     0.035 C 
HETATM    3  C   UNL     1       0.793   7.857  29.855  0.00  0.00     0.083 C 
HETATM    4  C   UNL     1       0.035   9.029  29.970  0.00  0.00     0.069 C 
HETATM    5  C   UNL     1      -0.591   9.494  28.820  0.00  0.00     0.065 A 
HETATM    6  C   UNL     1      -0.501   8.846  27.596  0.00  0.00     0.020 A 
HETATM    7  N   UNL     1      -1.318  10.627  28.588  0.00  0.00    -0.277 N 
HETATM    8  H   UNL     1      -1.594  11.330  29.264  0.00  0.00     0.189 HD
HETATM    9  N   UNL     1      -1.582  10.849  27.296  0.00  0.00    -0.178 NA
HETATM   10  C   UNL     1      -1.072   9.775  26.668  0.00  0.00     0.071 A 
ENDROOT
BRANCH   1  11
HETATM   11  C   UNL     1       1.508   5.744  28.520  0.00  0.00     0.256 C 
HETATM   12  N   UNL     1       2.781   5.581  27.945  0.00  0.00    -0.348 N 
HETATM   13  C   UNL     1       3.414   4.283  28.152  0.00  0.00     0.153 C 
HETATM   14  O   UNL     1       0.922   4.759  28.991  0.00  0.00    -0.267 OA
BRANCH  12  15
HETATM   15  C   UNL     1       3.604   6.581  27.268  0.00  0.00     0.164 C 
BRANCH  15  16
HETATM   16  C   UNL     1       3.700   6.447  25.746  0.00  0.00    -0.040 A 
HETATM   17  C   UNL     1       4.870   6.907  25.122  0.00  0.00     0.010 A 
HETATM   18  C   UNL     1       4.934   7.051  23.734  0.00  0.00     0.024 A 
HETATM   19  C   UNL     1       3.828   6.723  22.954  0.00  0.00     0.034 A 
HETATM   20 CL   UNL     1       3.860   7.029  21.259  0.00  0.00    -0.084 Cl
HETATM   21  C   UNL     1       2.683   6.190  23.540  0.00  0.00     0.024 A 
HETATM   22  C   UNL     1       2.620   6.042  24.931  0.00  0.00     0.010 A 
ENDBRANCH  15  16
ENDBRANCH  12  15
ENDBRANCH   1  11
BRANCH   3  23
HETATM   23  O   UNL     1       1.593   7.629  30.932  0.00  0.00    -0.360 OA
HETATM   24  H   UNL     1       1.606   8.457  31.447  0.00  0.00     0.217 HD
ENDBRANCH   3  23
BRANCH  10  25
HETATM   25  C   UNL     1      -0.952   9.791  25.179  0.00  0.00     0.100 C 
BRANCH  25  26
HETATM   26  C   UNL     1       0.408  10.308  24.792  0.00  0.00    -0.052 A 
HETATM   27  C   UNL     1       0.605  11.672  24.516  0.00  0.00     0.007 A 
HETATM   28  C   UNL     1       1.889  12.172  24.293  0.00  0.00     0.001 A 
HETATM   29  C   UNL     1       2.987  11.316  24.331  0.00  0.00     0.000 A 
HETATM   30  C   UNL     1       2.801   9.955  24.570  0.00  0.00     0.001 A 
HETATM   31  C   UNL     1       1.519   9.452  24.796  0.00  0.00     0.007 A 
ENDBRANCH  25  26
ENDBRANCH  10  25
TORSDOF 6
ENDMDL
MODEL 7
REMARK VINA RESULT:    -6.864      3.022      5.106
REMARK INTER + INTRA:         -11.902
REMARK INTER:                  -9.549
REMARK INTRA:                  -2.353
REMARK UNBOUND:                -2.830
REMARK  6 active torsions:
REMARK  status: ('A' for Active; 'I' for Inactive)
REMARK    1  A    between atoms: C_7  and  C_8 
REMARK    2  A    between atoms: C_8  and  N_9 
REMARK       I    between atoms: N_9  and  C_11 
REMARK    3  A    between atoms: C_11  and  C_13 
REMARK    4  A    between atoms: C_15  and  O_16 
REMARK    5  A    between atoms: C_23  and  C_24 
REMARK    6  A    between atoms: C_24  and  C_25 
ROOT
HETATM    1  C   UNL     1       1.658   4.548  17.713  0.00  0.00     0.066 C 
HETATM    2  C   UNL     1       2.743   5.418  18.020  0.00  0.00     0.035 C 
HETATM    3  C   UNL     1       0.419   5.143  17.473  0.00  0.00     0.083 C 
HETATM    4  C   UNL     1       0.248   6.526  17.332  0.00  0.00     0.069 C 
HETATM    5  C   UNL     1       1.343   7.332  17.622  0.00  0.00     0.065 A 
HETATM    6  C   UNL     1       2.570   6.824  18.024  0.00  0.00     0.020 A 
HETATM    7  N   UNL     1       1.472   8.691  17.659  0.00  0.00    -0.277 N 
HETATM    8  H   UNL     1       0.775   9.383  17.410  0.00  0.00     0.189 HD
HETATM    9  N   UNL     1       2.624   9.113  18.193  0.00  0.00    -0.178 NA
HETATM   10  C   UNL     1       3.305   7.980  18.440  0.00  0.00     0.071 A 
ENDROOT
BRANCH   1  11
HETATM   11  C   UNL     1       1.957   3.072  17.790  0.00  0.00     0.256 C 
HETATM   12  N   UNL     1       1.817   2.275  18.940  0.00  0.00    -0.348 N 
HETATM   13  C   UNL     1       1.842   0.831  18.725  0.00  0.00     0.153 C 
HETATM   14  O   UNL     1       2.275   2.541  16.717  0.00  0.00    -0.267 OA
BRANCH  12  15
HETATM   15  C   UNL     1       1.530   2.700  20.309  0.00  0.00     0.164 C 
BRANCH  15  16
HETATM   16  C   UNL     1       2.750   2.958  21.197  0.00  0.00    -0.040 A 
HETATM   17  C   UNL     1       2.575   2.875  22.587  0.00  0.00     0.010 A 
HETATM   18  C   UNL     1       3.561   3.336  23.463  0.00  0.00     0.024 A 
HETATM   19  C   UNL     1       4.740   3.875  22.954  0.00  0.00     0.034 A 
HETATM   20 CL   UNL     1       5.894   4.566  24.029  0.00  0.00    -0.084 Cl
HETATM   21  C   UNL     1       4.972   3.896  21.581  0.00  0.00     0.024 A 
HETATM   22  C   UNL     1       3.986   3.430  20.703  0.00  0.00     0.010 A 
ENDBRANCH  15  16
ENDBRANCH  12  15
ENDBRANCH   1  11
BRANCH   3  23
HETATM   23  O   UNL     1      -0.754   4.454  17.451  0.00  0.00    -0.360 OA
HETATM   24  H   UNL     1      -1.360   4.957  16.875  0.00  0.00     0.217 HD
ENDBRANCH   3  23
BRANCH  10  25
HETATM   25  C   UNL     1       4.541   8.042  19.276  0.00  0.00     0.100 C 
BRANCH  25  26
HETATM   26  C   UNL     1       4.161   8.218  20.722  0.00  0.00    -0.052 A 
HETATM   27  C   UNL     1       3.641   7.144  21.464  0.00  0.00     0.007 A 
HETATM   28  C   UNL     1       3.419   7.270  22.836  0.00  0.00     0.001 A 
HETATM   29  C   UNL     1       3.702   8.473  23.480  0.00  0.00     0.000 A 
HETATM   30  C   UNL     1       4.185   9.557  22.749  0.00  0.00     0.001 A 
HETATM   31  C   UNL     1       4.411   9.433  21.377  0.00  0.00     0.007 A 
ENDBRANCH  25  26
ENDBRANCH  10  25
TORSDOF 6
ENDMDL
MODEL 8
REMARK VINA RESULT:    -6.795      2.739      4.201
REMARK INTER + INTRA:         -11.810
REMARK INTER:                 -10.831
REMARK INTRA:                  -0.979
REMARK UNBOUND:                -2.830
REMARK  6 active torsions:
REMARK  status: ('A' for Active; 'I' for Inactive)
REMARK    1  A    between atoms: C_7  and  C_8 
REMARK    2  A    between atoms: C_8  and  N_9 
REMARK       I    between atoms: N_9  and  C_11 
REMARK    3  A    between atoms: C_11  and  C_13 
REMARK    4  A    between atoms: C_15  and  O_16 
REMARK    5  A    between atoms: C_23  and  C_24 
REMARK    6  A    between atoms: C_24  and  C_25 
ROOT
HETATM    1  C   UNL     1       4.445   6.675  22.357  0.00  0.00     0.066 C 
HETATM    2  C   UNL     1       3.740   7.707  23.040  0.00  0.00     0.035 C 
HETATM    3  C   UNL     1       4.164   5.361  22.733  0.00  0.00     0.083 C 
HETATM    4  C   UNL     1       3.109   5.019  23.588  0.00  0.00     0.069 C 
HETATM    5  C   UNL     1       2.437   6.062  24.214  0.00  0.00     0.065 A 
HETATM    6  C   UNL     1       2.761   7.396  24.016  0.00  0.00     0.020 A 
HETATM    7  N   UNL     1       1.439   6.055  25.147  0.00  0.00    -0.277 N 
HETATM    8  H   UNL     1       0.947   5.250  25.517  0.00  0.00     0.189 HD
HETATM    9  N   UNL     1       1.188   7.254  25.683  0.00  0.00    -0.178 NA
HETATM   10  C   UNL     1       2.003   8.090  25.014  0.00  0.00     0.071 A 
ENDROOT
BRANCH   1  11
HETATM   11  C   UNL     1       5.496   7.136  21.377  0.00  0.00     0.256 C 
HETATM   12  N   UNL     1       5.295   8.084  20.359  0.00  0.00    -0.348 N 
HETATM   13  C   UNL     1       6.502   8.625  19.742  0.00  0.00     0.153 C 
HETATM   14  O   UNL     1       6.631   6.677  21.568  0.00  0.00    -0.267 OA
BRANCH  12  15
HETATM   15  C   UNL     1       4.040   8.687  19.916  0.00  0.00     0.164 C 
BRANCH  15  16
HETATM   16  C   UNL     1       3.450   8.126  18.621  0.00  0.00    -0.040 A 
HETATM   17  C   UNL     1       2.346   8.791  18.063  0.00  0.00     0.010 A 
HETATM   18  C   UNL     1       1.601   8.208  17.035  0.00  0.00     0.024 A 
HETATM   19  C   UNL     1       1.961   6.955  16.546  0.00  0.00     0.034 A 
HETATM   20 CL   UNL     1       0.964   6.179  15.376  0.00  0.00    -0.084 Cl
HETATM   21  C   UNL     1       3.097   6.309  17.026  0.00  0.00     0.024 A 
HETATM   22  C   UNL     1       3.847   6.896  18.054  0.00  0.00     0.010 A 
ENDBRANCH  15  16
ENDBRANCH  12  15
ENDBRANCH   1  11
BRANCH   3  23
HETATM   23  O   UNL     1       4.942   4.299  22.390  0.00  0.00    -0.360 OA
HETATM   24  H   UNL     1       5.839   4.495  22.721  0.00  0.00     0.217 HD
ENDBRANCH   3  23
BRANCH  10  25
HETATM   25  C   UNL     1       2.187   9.484  25.515  0.00  0.00     0.100 C 
BRANCH  25  26
HETATM   26  C   UNL     1       1.171  10.388  24.869  0.00  0.00    -0.052 A 
HETATM   27  C   UNL     1      -0.176  10.002  24.774  0.00  0.00     0.007 A 
HETATM   28  C   UNL     1      -1.139  10.895  24.302  0.00  0.00     0.001 A 
HETATM   29  C   UNL     1      -0.766  12.177  23.907  0.00  0.00     0.000 A 
HETATM   30  C   UNL     1       0.573  12.562  23.964  0.00  0.00     0.001 A 
HETATM   31  C   UNL     1       1.538  11.672  24.439  0.00  0.00     0.007 A 
ENDBRANCH  25  26
ENDBRANCH  10  25
TORSDOF 6
ENDMDL
MODEL 9
REMARK VINA RESULT:    -6.563      4.898      7.213
REMARK INTER + INTRA:         -11.504
REMARK INTER:                  -8.673
REMARK INTRA:                  -2.830
REMARK UNBOUND:                -2.830
REMARK  6 active torsions:
REMARK  status: ('A' for Active; 'I' for Inactive)
REMARK    1  A    between atoms: C_7  and  C_8 
REMARK    2  A    between atoms: C_8  and  N_9 
REMARK       I    between atoms: N_9  and  C_11 
REMARK    3  A    between atoms: C_11  and  C_13 
REMARK    4  A    between atoms: C_15  and  O_16 
REMARK    5  A    between atoms: C_23  and  C_24 
REMARK    6  A    between atoms: C_24  and  C_25 
ROOT
HETATM    1  C   UNL     1       2.503   8.789  25.223  0.00  0.00     0.066 C 
HETATM    2  C   UNL     1       2.830   8.607  26.598  0.00  0.00     0.035 C 
HETATM    3  C   UNL     1       2.891   7.779  24.342  0.00  0.00     0.083 C 
HETATM    4  C   UNL     1       3.398   6.544  24.768  0.00  0.00     0.069 C 
HETATM    5  C   UNL     1       3.681   6.409  26.122  0.00  0.00     0.065 A 
HETATM    6  C   UNL     1       3.472   7.426  27.043  0.00  0.00     0.020 A 
HETATM    7  N   UNL     1       4.248   5.382  26.822  0.00  0.00    -0.277 N 
HETATM    8  H   UNL     1       4.517   4.471  26.469  0.00  0.00     0.189 HD
HETATM    9  N   UNL     1       4.564   5.694  28.084  0.00  0.00    -0.178 NA
HETATM   10  C   UNL     1       4.111   6.952  28.234  0.00  0.00     0.071 A 
ENDROOT
BRANCH   1  11
HETATM   11  C   UNL     1       1.866  10.110  24.869  0.00  0.00     0.256 C 
HETATM   12  N   UNL     1       0.484  10.337  24.747  0.00  0.00    -0.348 N 
HETATM   13  C   UNL     1       0.066  11.735  24.723  0.00  0.00     0.153 C 
HETATM   14  O   UNL     1       2.652  11.061  24.761  0.00  0.00    -0.267 OA
BRANCH  12  15
HETATM   15  C   UNL     1      -0.601   9.357  24.761  0.00  0.00     0.164 C 
BRANCH  15  16
HETATM   16  C   UNL     1      -0.594   8.371  25.931  0.00  0.00    -0.040 A 
HETATM   17  C   UNL     1      -0.596   8.899  27.232  0.00  0.00     0.010 A 
HETATM   18  C   UNL     1      -0.340   8.085  28.337  0.00  0.00     0.024 A 
HETATM   19  C   UNL     1      -0.090   6.728  28.153  0.00  0.00     0.034 A 
HETATM   20 CL   UNL     1       0.359   5.753  29.500  0.00  0.00    -0.084 Cl
HETATM   21  C   UNL     1      -0.160   6.163  26.882  0.00  0.00     0.024 A 
HETATM   22  C   UNL     1      -0.422   6.978  25.774  0.00  0.00     0.010 A 
ENDBRANCH  15  16
ENDBRANCH  12  15
ENDBRANCH   1  11
BRANCH   3  23
HETATM   23  O   UNL     1       2.912   7.929  22.990  0.00  0.00    -0.360 OA
HETATM   24  H   UNL     1       3.630   7.358  22.659  0.00  0.00     0.217 HD
ENDBRANCH   3  23
BRANCH  10  25
HETATM   25  C   UNL     1       4.513   7.731  29.443  0.00  0.00     0.100 C 
BRANCH  25  26
HETATM   26  C   UNL     1       3.391   7.715  30.446  0.00  0.00    -0.052 A 
HETATM   27  C   UNL     1       3.282   6.676  31.385  0.00  0.00     0.007 A 
HETATM   28  C   UNL     1       2.325   6.735  32.400  0.00  0.00     0.001 A 
HETATM   29  C   UNL     1       1.460   7.823  32.480  0.00  0.00     0.000 A 
HETATM   30  C   UNL     1       1.535   8.844  31.534  0.00  0.00     0.001 A 
HETATM   31  C   UNL     1       2.493   8.790  30.520  0.00  0.00     0.007 A 
ENDBRANCH  25  26
ENDBRANCH  10  25
TORSDOF 6
ENDMDL
