MODEL 1
REMARK VINA RESULT:    -7.884      0.000      0.000
REMARK INTER + INTRA:         -12.591
REMARK INTER:                 -11.022
REMARK INTRA:                  -1.568
REMARK UNBOUND:                -1.480
REMARK  8 active torsions:
REMARK  status: ('A' for Active; 'I' for Inactive)
REMARK    1  A    between atoms: C_7  and  N_8 
REMARK    2  A    between atoms: C_14  and  C_15 
REMARK    3  A    between atoms: C_16  and  O_17 
REMARK    4  A    between atoms: C_19  and  O_20 
REMARK    5  A    between atoms: C_22  and  C_23 
REMARK       I    between atoms: C_23  and  N_25 
REMARK    6  A    between atoms: N_25  and  C_27 
REMARK    7  A    between atoms: C_27  and  C_28 
REMARK    8  A    between atoms: C_28  and  C_29 
ROOT
HETATM    1  C   UNL     1       4.700   7.455  22.395  0.00  0.00     0.046 C 
HETATM    2  C   UNL     1       5.388   6.652  23.329  0.00  0.00     0.082 C 
HETATM    3  C   UNL     1       5.092   6.704  24.689  0.00  0.00     0.075 C 
HETATM    4  C   UNL     1       4.072   7.535  25.149  0.00  0.00     0.084 C 
HETATM    5  C   UNL     1       3.752   8.366  22.901  0.00  0.00     0.038 C 
HETATM    6  C   UNL     1       3.358   8.363  24.266  0.00  0.00     0.066 C 
ENDROOT
BRANCH   1   7
HETATM    7  C   UNL     1       5.046   7.280  20.940  0.00  0.00     0.172 A 
HETATM    8  N   UNL     1       4.296   6.798  19.875  0.00  0.00    -0.241 N 
HETATM    9  C   UNL     1       5.165   6.846  18.781  0.00  0.00     0.349 A 
HETATM   10  O   UNL     1       5.027   6.481  17.628  0.00  0.00    -0.245 OA
HETATM   11  N   UNL     1       6.348   7.385  19.265  0.00  0.00    -0.226 N 
HETATM   12  H   UNL     1       7.193   7.498  18.722  0.00  0.00     0.194 HD
HETATM   13  N   UNL     1       6.265   7.629  20.587  0.00  0.00    -0.151 NA
BRANCH   8  14
HETATM   14  C   UNL     1       2.965   6.280  19.750  0.00  0.00     0.084 C 
HETATM   15  C   UNL     1       1.995   6.812  18.901  0.00  0.00     0.143 C 
HETATM   16  F   UNL     1       2.152   8.022  18.356  0.00  0.00    -0.204 F 
HETATM   17  C   UNL     1       0.782   6.166  18.644  0.00  0.00     0.044 C 
HETATM   18  C   UNL     1       0.425   5.040  19.372  0.00  0.00     0.003 C 
HETATM   19  C   UNL     1       1.290   4.575  20.352  0.00  0.00     0.002 C 
HETATM   20  C   UNL     1       2.551   5.168  20.514  0.00  0.00     0.033 C 
ENDBRANCH   8  14
ENDBRANCH   1   7
BRANCH   2  21
HETATM   21  O   UNL     1       6.380   5.763  22.999  0.00  0.00    -0.360 OA
HETATM   22  H   UNL     1       6.342   5.610  22.029  0.00  0.00     0.217 HD
ENDBRANCH   2  21
BRANCH   6  23
HETATM   23  C   UNL     1       2.032   8.947  24.721  0.00  0.00     0.256 C 
HETATM   24  O   UNL     1       1.134   8.140  24.975  0.00  0.00    -0.267 OA
HETATM   25  N   UNL     1       1.768  10.331  24.745  0.00  0.00    -0.352 N 
HETATM   26  C   UNL     1       2.760  11.344  24.438  0.00  0.00     0.152 C 
BRANCH  25  27
HETATM   27  C   UNL     1       0.367  10.786  24.641  0.00  0.00     0.125 C 
BRANCH  27  28
HETATM   28  C   UNL     1       0.043  12.285  24.523  0.00  0.00     0.020 C 
BRANCH  28  29
HETATM   29  C   UNL     1      -0.610  12.762  23.225  0.00  0.00    -0.003 C 
HETATM   30  C   UNL     1      -1.887  12.023  22.855  0.00  0.00     0.005 C 
ENDBRANCH  28  29
ENDBRANCH  27  28
ENDBRANCH  25  27
ENDBRANCH   6  23
BRANCH   4  31
HETATM   31  O   UNL     1       3.808   7.531  26.492  0.00  0.00    -0.360 OA
HETATM   32  H   UNL     1       4.239   6.763  26.903  0.00  0.00     0.217 HD
ENDBRANCH   4  31
TORSDOF 8
ENDMDL
MODEL 2
REMARK VINA RESULT:    -7.777      4.340      7.174
REMARK INTER + INTRA:         -12.439
REMARK INTER:                 -10.673
REMARK INTRA:                  -1.767
REMARK UNBOUND:                -1.480
REMARK  8 active torsions:
REMARK  status: ('A' for Active; 'I' for Inactive)
REMARK    1  A    between atoms: C_7  and  N_8 
REMARK    2  A    between atoms: C_14  and  C_15 
REMARK    3  A    between atoms: C_16  and  O_17 
REMARK    4  A    between atoms: C_19  and  O_20 
REMARK    5  A    between atoms: C_22  and  C_23 
REMARK       I    between atoms: C_23  and  N_25 
REMARK    6  A    between atoms: N_25  and  C_27 
REMARK    7  A    between atoms: C_27  and  C_28 
REMARK    8  A    between atoms: C_28  and  C_29 
ROOT
HETATM    1  C   UNL     1       3.746   7.084  18.275  0.00  0.00     0.046 C 
HETATM    2  C   UNL     1       2.837   8.162  18.319  0.00  0.00     0.082 C 
HETATM    3  C   UNL     1       1.583   8.079  17.719  0.00  0.00     0.075 C 
HETATM    4  C   UNL     1       1.187   6.901  17.090  0.00  0.00     0.084 C 
HETATM    5  C   UNL     1       3.363   5.946  17.538  0.00  0.00     0.038 C 
HETATM    6  C   UNL     1       2.053   5.796  17.010  0.00  0.00     0.066 C 
ENDROOT
BRANCH   1   7
HETATM    7  C   UNL     1       5.051   7.244  19.009  0.00  0.00     0.172 A 
HETATM    8  N   UNL     1       5.583   6.552  20.089  0.00  0.00    -0.241 N 
HETATM    9  C   UNL     1       6.807   7.177  20.341  0.00  0.00     0.349 A 
HETATM   10  O   UNL     1       7.637   6.999  21.215  0.00  0.00    -0.245 OA
HETATM   11  N   UNL     1       6.930   8.164  19.374  0.00  0.00    -0.226 N 
HETATM   12  H   UNL     1       7.690   8.828  19.324  0.00  0.00     0.194 HD
HETATM   13  N   UNL     1       5.843   8.204  18.580  0.00  0.00    -0.151 NA
BRANCH   8  14
HETATM   14  C   UNL     1       5.111   5.473  20.907  0.00  0.00     0.084 C 
HETATM   15  C   UNL     1       5.003   4.151  20.474  0.00  0.00     0.143 C 
HETATM   16  F   UNL     1       5.059   3.851  19.173  0.00  0.00    -0.204 F 
HETATM   17  C   UNL     1       4.742   3.092  21.348  0.00  0.00     0.044 C 
HETATM   18  C   UNL     1       4.406   3.346  22.670  0.00  0.00     0.003 C 
HETATM   19  C   UNL     1       4.334   4.662  23.101  0.00  0.00     0.002 C 
HETATM   20  C   UNL     1       4.712   5.703  22.241  0.00  0.00     0.033 C 
ENDBRANCH   8  14
ENDBRANCH   1   7
BRANCH   2  21
HETATM   21  O   UNL     1       3.089   9.358  18.943  0.00  0.00    -0.360 OA
HETATM   22  H   UNL     1       2.498   9.424  19.726  0.00  0.00     0.217 HD
ENDBRANCH   2  21
BRANCH   6  23
HETATM   23  C   UNL     1       1.473   4.433  16.675  0.00  0.00     0.256 C 
HETATM   24  O   UNL     1       1.163   4.242  15.497  0.00  0.00    -0.267 OA
HETATM   25  N   UNL     1       1.177   3.461  17.651  0.00  0.00    -0.352 N 
HETATM   26  C   UNL     1       1.487   3.616  19.060  0.00  0.00     0.152 C 
BRANCH  25  27
HETATM   27  C   UNL     1       0.140   2.452  17.354  0.00  0.00     0.125 C 
BRANCH  27  28
HETATM   28  C   UNL     1      -1.338   2.743  17.664  0.00  0.00     0.020 C 
BRANCH  28  29
HETATM   29  C   UNL     1      -1.890   2.233  18.996  0.00  0.00    -0.003 C 
HETATM   30  C   UNL     1      -3.385   2.447  19.179  0.00  0.00     0.005 C 
ENDBRANCH  28  29
ENDBRANCH  27  28
ENDBRANCH  25  27
ENDBRANCH   6  23
BRANCH   4  31
HETATM   31  O   UNL     1      -0.064   6.866  16.537  0.00  0.00    -0.360 OA
HETATM   32  H   UNL     1      -0.636   7.506  16.993  0.00  0.00     0.217 HD
ENDBRANCH   4  31
TORSDOF 8
ENDMDL
MODEL 3
REMARK VINA RESULT:    -7.743      4.312      7.664
REMARK INTER + INTRA:         -12.392
REMARK INTER:                 -10.377
REMARK INTRA:                  -2.015
REMARK UNBOUND:                -1.480
REMARK  8 active torsions:
REMARK  status: ('A' for Active; 'I' for Inactive)
REMARK    1  A    between atoms: C_7  and  N_8 
REMARK    2  A    between atoms: C_14  and  C_15 
REMARK    3  A    between atoms: C_16  and  O_17 
REMARK    4  A    between atoms: C_19  and  O_20 
REMARK    5  A    between atoms: C_22  and  C_23 
REMARK       I    between atoms: C_23  and  N_25 
REMARK    6  A    between atoms: N_25  and  C_27 
REMARK    7  A    between atoms: C_27  and  C_28 
REMARK    8  A    between atoms: C_28  and  C_29 
ROOT
HETATM    1  C   UNL     1       3.781   7.088  18.261  0.00  0.00     0.046 C 
HETATM    2  C   UNL     1       2.852   8.148  18.328  0.00  0.00     0.082 C 
HETATM    3  C   UNL     1       1.603   8.059  17.719  0.00  0.00     0.075 C 
HETATM    4  C   UNL     1       1.232   6.891  17.056  0.00  0.00     0.084 C 
HETATM    5  C   UNL     1       3.423   5.964  17.490  0.00  0.00     0.038 C 
HETATM    6  C   UNL     1       2.119   5.805  16.950  0.00  0.00     0.066 C 
ENDROOT
BRANCH   1   7
HETATM    7  C   UNL     1       5.079   7.252  19.006  0.00  0.00     0.172 A 
HETATM    8  N   UNL     1       5.591   6.580  20.108  0.00  0.00    -0.241 N 
HETATM    9  C   UNL     1       6.818   7.198  20.360  0.00  0.00     0.349 A 
HETATM   10  O   UNL     1       7.635   7.033  21.248  0.00  0.00    -0.245 OA
HETATM   11  N   UNL     1       6.963   8.161  19.372  0.00  0.00    -0.226 N 
HETATM   12  H   UNL     1       7.731   8.815  19.315  0.00  0.00     0.194 HD
HETATM   13  N   UNL     1       5.887   8.192  18.564  0.00  0.00    -0.151 NA
BRANCH   8  14
HETATM   14  C   UNL     1       5.097   5.527  20.947  0.00  0.00     0.084 C 
HETATM   15  C   UNL     1       5.014   4.190  20.557  0.00  0.00     0.143 C 
HETATM   16  F   UNL     1       5.121   3.845  19.270  0.00  0.00    -0.204 F 
HETATM   17  C   UNL     1       4.729   3.159  21.457  0.00  0.00     0.044 C 
HETATM   18  C   UNL     1       4.344   3.456  22.756  0.00  0.00     0.003 C 
HETATM   19  C   UNL     1       4.247   4.786  23.138  0.00  0.00     0.002 C 
HETATM   20  C   UNL     1       4.647   5.800  22.256  0.00  0.00     0.033 C 
ENDBRANCH   8  14
ENDBRANCH   1   7
BRANCH   2  21
HETATM   21  O   UNL     1       3.078   9.330  18.987  0.00  0.00    -0.360 OA
HETATM   22  H   UNL     1       3.696   9.152  19.730  0.00  0.00     0.217 HD
ENDBRANCH   2  21
BRANCH   6  23
HETATM   23  C   UNL     1       1.565   4.441  16.575  0.00  0.00     0.256 C 
HETATM   24  O   UNL     1       1.403   4.226  15.371  0.00  0.00    -0.267 OA
HETATM   25  N   UNL     1       1.136   3.495  17.527  0.00  0.00    -0.352 N 
HETATM   26  C   UNL     1       1.269   3.680  18.960  0.00  0.00     0.152 C 
BRANCH  25  27
HETATM   27  C   UNL     1       0.130   2.492  17.124  0.00  0.00     0.125 C 
BRANCH  27  28
HETATM   28  C   UNL     1       0.562   1.062  16.758  0.00  0.00     0.020 C 
BRANCH  28  29
HETATM   29  C   UNL     1       2.053   0.735  16.848  0.00  0.00    -0.003 C 
HETATM   30  C   UNL     1       2.813   0.904  15.540  0.00  0.00     0.005 C 
ENDBRANCH  28  29
ENDBRANCH  27  28
ENDBRANCH  25  27
ENDBRANCH   6  23
BRANCH   4  31
HETATM   31  O   UNL     1      -0.015   6.848  16.495  0.00  0.00    -0.360 OA
HETATM   32  H   UNL     1      -0.433   5.995  16.703  0.00  0.00     0.217 HD
ENDBRANCH   4  31
TORSDOF 8
ENDMDL
MODEL 4
REMARK VINA RESULT:    -7.675      1.067      1.532
REMARK INTER + INTRA:         -12.295
REMARK INTER:                 -10.623
REMARK INTRA:                  -1.672
REMARK UNBOUND:                -1.480
REMARK  8 active torsions:
REMARK  status: ('A' for Active; 'I' for Inactive)
REMARK    1  A    between atoms: C_7  and  N_8 
REMARK    2  A    between atoms: C_14  and  C_15 
REMARK    3  A    between atoms: C_16  and  O_17 
REMARK    4  A    between atoms: C_19  and  O_20 
REMARK    5  A    between atoms: C_22  and  C_23 
REMARK       I    between atoms: C_23  and  N_25 
REMARK    6  A    between atoms: N_25  and  C_27 
REMARK    7  A    between atoms: C_27  and  C_28 
REMARK    8  A    between atoms: C_28  and  C_29 
ROOT
HETATM    1  C   UNL     1       4.610   7.353  22.428  0.00  0.00     0.046 C 
HETATM    2  C   UNL     1       5.397   6.654  23.367  0.00  0.00     0.082 C 
HETATM    3  C   UNL     1       5.088   6.664  24.724  0.00  0.00     0.075 C 
HETATM    4  C   UNL     1       3.960   7.345  25.178  0.00  0.00     0.084 C 
HETATM    5  C   UNL     1       3.541   8.123  22.928  0.00  0.00     0.038 C 
HETATM    6  C   UNL     1       3.142   8.065  24.290  0.00  0.00     0.066 C 
ENDROOT
BRANCH   1   7
HETATM    7  C   UNL     1       4.985   7.229  20.975  0.00  0.00     0.172 A 
HETATM    8  N   UNL     1       4.251   6.805  19.875  0.00  0.00    -0.241 N 
HETATM    9  C   UNL     1       5.146   6.878  18.804  0.00  0.00     0.349 A 
HETATM   10  O   UNL     1       5.028   6.561  17.634  0.00  0.00    -0.245 OA
HETATM   11  N   UNL     1       6.328   7.373  19.336  0.00  0.00    -0.226 N 
HETATM   12  H   UNL     1       7.187   7.489  18.817  0.00  0.00     0.194 HD
HETATM   13  N   UNL     1       6.219   7.566  20.664  0.00  0.00    -0.151 NA
BRANCH   8  14
HETATM   14  C   UNL     1       2.913   6.320  19.700  0.00  0.00     0.084 C 
HETATM   15  C   UNL     1       1.970   6.912  18.858  0.00  0.00     0.143 C 
HETATM   16  F   UNL     1       2.162   8.143  18.375  0.00  0.00    -0.204 F 
HETATM   17  C   UNL     1       0.751   6.303  18.548  0.00  0.00     0.044 C 
HETATM   18  C   UNL     1       0.358   5.151  19.215  0.00  0.00     0.003 C 
HETATM   19  C   UNL     1       1.194   4.623  20.188  0.00  0.00     0.002 C 
HETATM   20  C   UNL     1       2.462   5.182  20.402  0.00  0.00     0.033 C 
ENDBRANCH   8  14
ENDBRANCH   1   7
BRANCH   2  21
HETATM   21  O   UNL     1       6.505   5.911  23.043  0.00  0.00    -0.360 OA
HETATM   22  H   UNL     1       6.678   5.284  23.780  0.00  0.00     0.217 HD
ENDBRANCH   2  21
BRANCH   6  23
HETATM   23  C   UNL     1       1.745   8.459  24.736  0.00  0.00     0.256 C 
HETATM   24  O   UNL     1       0.938   7.540  24.891  0.00  0.00    -0.267 OA
HETATM   25  N   UNL     1       1.324   9.798  24.858  0.00  0.00    -0.352 N 
HETATM   26  C   UNL     1       2.203  10.937  24.669  0.00  0.00     0.152 C 
BRANCH  25  27
HETATM   27  C   UNL     1      -0.116  10.101  24.733  0.00  0.00     0.125 C 
BRANCH  27  28
HETATM   28  C   UNL     1      -0.918  10.578  25.956  0.00  0.00     0.020 C 
BRANCH  28  29
HETATM   29  C   UNL     1      -0.634   9.891  27.293  0.00  0.00    -0.003 C 
HETATM   30  C   UNL     1      -1.309  10.545  28.490  0.00  0.00     0.005 C 
ENDBRANCH  28  29
ENDBRANCH  27  28
ENDBRANCH  25  27
ENDBRANCH   6  23
BRANCH   4  31
HETATM   31  O   UNL     1       3.690   7.303  26.519  0.00  0.00    -0.360 OA
HETATM   32  H   UNL     1       2.736   7.167  26.651  0.00  0.00     0.217 HD
ENDBRANCH   4  31
TORSDOF 8
ENDMDL
MODEL 5
REMARK VINA RESULT:    -7.503      5.477      7.636
REMARK INTER + INTRA:         -12.053
REMARK INTER:                 -10.161
REMARK INTRA:                  -1.892
REMARK UNBOUND:                -1.480
REMARK  8 active torsions:
REMARK  status: ('A' for Active; 'I' for Inactive)
REMARK    1  A    between atoms: C_7  and  N_8 
REMARK    2  A    between atoms: C_14  and  C_15 
REMARK    3  A    between atoms: C_16  and  O_17 
REMARK    4  A    between atoms: C_19  and  O_20 
REMARK    5  A    between atoms: C_22  and  C_23 
REMARK       I    between atoms: C_23  and  N_25 
REMARK    6  A    between atoms: N_25  and  C_27 
REMARK    7  A    between atoms: C_27  and  C_28 
REMARK    8  A    between atoms: C_28  and  C_29 
ROOT
HETATM    1  C   UNL     1       1.442   8.075  26.508  0.00  0.00     0.046 C 
HETATM    2  C   UNL     1       0.682   7.251  25.651  0.00  0.00     0.082 C 
HETATM    3  C   UNL     1      -0.426   7.741  24.966  0.00  0.00     0.075 C 
HETATM    4  C   UNL     1      -0.786   9.082  25.090  0.00  0.00     0.084 C 
HETATM    5  C   UNL     1       0.990   9.396  26.700  0.00  0.00     0.038 C 
HETATM    6  C   UNL     1      -0.070   9.949  25.935  0.00  0.00     0.066 C 
ENDROOT
BRANCH   1   7
HETATM    7  C   UNL     1       2.661   7.471  27.153  0.00  0.00     0.172 A 
HETATM    8  N   UNL     1       2.937   7.169  28.480  0.00  0.00    -0.241 N 
HETATM    9  C   UNL     1       4.238   6.660  28.463  0.00  0.00     0.349 A 
HETATM   10  O   UNL     1       4.975   6.305  29.366  0.00  0.00    -0.245 OA
HETATM   11  N   UNL     1       4.624   6.661  27.131  0.00  0.00    -0.226 N 
HETATM   12  H   UNL     1       5.541   6.397  26.798  0.00  0.00     0.194 HD
HETATM   13  N   UNL     1       3.657   7.174  26.347  0.00  0.00    -0.151 NA
BRANCH   8  14
HETATM   14  C   UNL     1       2.211   7.326  29.707  0.00  0.00     0.084 C 
HETATM   15  C   UNL     1       2.335   8.427  30.554  0.00  0.00     0.143 C 
HETATM   16  F   UNL     1       3.357   9.279  30.423  0.00  0.00    -0.204 F 
HETATM   17  C   UNL     1       1.469   8.653  31.628  0.00  0.00     0.044 C 
HETATM   18  C   UNL     1       0.548   7.682  31.995  0.00  0.00     0.003 C 
HETATM   19  C   UNL     1       0.508   6.493  31.282  0.00  0.00     0.002 C 
HETATM   20  C   UNL     1       1.305   6.334  30.139  0.00  0.00     0.033 C 
ENDBRANCH   8  14
ENDBRANCH   1   7
BRANCH   2  21
HETATM   21  O   UNL     1       0.958   5.928  25.410  0.00  0.00    -0.360 OA
HETATM   22  H   UNL     1       0.367   5.620  24.688  0.00  0.00     0.217 HD
ENDBRANCH   2  21
BRANCH   6  23
HETATM   23  C   UNL     1      -0.236  11.448  25.755  0.00  0.00     0.256 C 
HETATM   24  O   UNL     1      -1.256  11.949  26.233  0.00  0.00    -0.267 OA
HETATM   25  N   UNL     1       0.647  12.233  24.987  0.00  0.00    -0.352 N 
HETATM   26  C   UNL     1       1.855  11.718  24.372  0.00  0.00     0.152 C 
BRANCH  25  27
HETATM   27  C   UNL     1       0.144  13.493  24.402  0.00  0.00     0.125 C 
BRANCH  27  28
HETATM   28  C   UNL     1      -0.325  13.537  22.938  0.00  0.00     0.020 C 
BRANCH  28  29
HETATM   29  C   UNL     1      -1.311  12.459  22.484  0.00  0.00    -0.003 C 
HETATM   30  C   UNL     1      -2.718  12.622  23.041  0.00  0.00     0.005 C 
ENDBRANCH  28  29
ENDBRANCH  27  28
ENDBRANCH  25  27
ENDBRANCH   6  23
BRANCH   4  31
HETATM   31  O   UNL     1      -1.870   9.517  24.378  0.00  0.00    -0.360 OA
HETATM   32  H   UNL     1      -1.765  10.463  24.177  0.00  0.00     0.217 HD
ENDBRANCH   4  31
TORSDOF 8
ENDMDL
MODEL 6
REMARK VINA RESULT:    -7.499      4.721      6.747
REMARK INTER + INTRA:         -12.048
REMARK INTER:                 -10.429
REMARK INTRA:                  -1.619
REMARK UNBOUND:                -1.480
REMARK  8 active torsions:
REMARK  status: ('A' for Active; 'I' for Inactive)
REMARK    1  A    between atoms: C_7  and  N_8 
REMARK    2  A    between atoms: C_14  and  C_15 
REMARK    3  A    between atoms: C_16  and  O_17 
REMARK    4  A    between atoms: C_19  and  O_20 
REMARK    5  A    between atoms: C_22  and  C_23 
REMARK       I    between atoms: C_23  and  N_25 
REMARK    6  A    between atoms: N_25  and  C_27 
REMARK    7  A    between atoms: C_27  and  C_28 
REMARK    8  A    between atoms: C_28  and  C_29 
ROOT
HETATM    1  C   UNL     1      -0.068   8.111  27.301  0.00  0.00     0.046 C 
HETATM    2  C   UNL     1      -0.185   8.613  28.615  0.00  0.00     0.082 C 
HETATM    3  C   UNL     1      -0.627   9.910  28.860  0.00  0.00     0.075 C 
HETATM    4  C   UNL     1      -1.002  10.732  27.799  0.00  0.00     0.084 C 
HETATM    5  C   UNL     1      -0.348   9.000  26.244  0.00  0.00     0.038 C 
HETATM    6  C   UNL     1      -0.901  10.288  26.469  0.00  0.00     0.066 C 
ENDROOT
BRANCH   1   7
HETATM    7  C   UNL     1       0.356   6.676  27.140  0.00  0.00     0.172 A 
HETATM    8  N   UNL     1       1.423   6.110  26.454  0.00  0.00    -0.241 N 
HETATM    9  C   UNL     1       1.275   4.734  26.643  0.00  0.00     0.349 A 
HETATM   10  O   UNL     1       1.904   3.788  26.203  0.00  0.00    -0.245 OA
HETATM   11  N   UNL     1       0.160   4.584  27.454  0.00  0.00    -0.226 N 
HETATM   12  H   UNL     1      -0.238   3.696  27.727  0.00  0.00     0.194 HD
HETATM   13  N   UNL     1      -0.399   5.777  27.735  0.00  0.00    -0.151 NA
BRANCH   8  14
HETATM   14  C   UNL     1       2.481   6.645  25.646  0.00  0.00     0.084 C 
HETATM   15  C   UNL     1       3.812   6.726  26.055  0.00  0.00     0.143 C 
HETATM   16  F   UNL     1       4.143   6.575  27.341  0.00  0.00    -0.204 F 
HETATM   17  C   UNL     1       4.851   7.054  25.179  0.00  0.00     0.044 C 
HETATM   18  C   UNL     1       4.565   7.485  23.891  0.00  0.00     0.003 C 
HETATM   19  C   UNL     1       3.238   7.583  23.497  0.00  0.00     0.002 C 
HETATM   20  C   UNL     1       2.218   7.140  24.352  0.00  0.00     0.033 C 
ENDBRANCH   8  14
ENDBRANCH   1   7
BRANCH   2  21
HETATM   21  O   UNL     1       0.110   7.891  29.745  0.00  0.00    -0.360 OA
HETATM   22  H   UNL     1       1.088   7.822  29.816  0.00  0.00     0.217 HD
ENDBRANCH   2  21
BRANCH   6  23
HETATM   23  C   UNL     1      -1.661  11.037  25.388  0.00  0.00     0.256 C 
HETATM   24  O   UNL     1      -2.885  10.889  25.375  0.00  0.00    -0.267 OA
HETATM   25  N   UNL     1      -1.025  11.770  24.366  0.00  0.00    -0.352 N 
HETATM   26  C   UNL     1       0.409  11.971  24.294  0.00  0.00     0.152 C 
BRANCH  25  27
HETATM   27  C   UNL     1      -1.743  11.974  23.091  0.00  0.00     0.125 C 
BRANCH  27  28
HETATM   28  C   UNL     1      -1.197  12.956  22.041  0.00  0.00     0.020 C 
BRANCH  28  29
HETATM   29  C   UNL     1      -1.742  12.835  20.617  0.00  0.00    -0.003 C 
HETATM   30  C   UNL     1      -2.754  13.906  20.239  0.00  0.00     0.005 C 
ENDBRANCH  28  29
ENDBRANCH  27  28
ENDBRANCH  25  27
ENDBRANCH   6  23
BRANCH   4  31
HETATM   31  O   UNL     1      -1.451  11.989  28.098  0.00  0.00    -0.360 OA
HETATM   32  H   UNL     1      -1.941  11.965  28.937  0.00  0.00     0.217 HD
ENDBRANCH   4  31
TORSDOF 8
ENDMDL
MODEL 7
REMARK VINA RESULT:    -7.219      2.566      6.691
REMARK INTER + INTRA:         -11.652
REMARK INTER:                 -10.173
REMARK INTRA:                  -1.480
REMARK UNBOUND:                -1.480
REMARK  8 active torsions:
REMARK  status: ('A' for Active; 'I' for Inactive)
REMARK    1  A    between atoms: C_7  and  N_8 
REMARK    2  A    between atoms: C_14  and  C_15 
REMARK    3  A    between atoms: C_16  and  O_17 
REMARK    4  A    between atoms: C_19  and  O_20 
REMARK    5  A    between atoms: C_22  and  C_23 
REMARK       I    between atoms: C_23  and  N_25 
REMARK    6  A    between atoms: N_25  and  C_27 
REMARK    7  A    between atoms: C_27  and  C_28 
REMARK    8  A    between atoms: C_28  and  C_29 
ROOT
HETATM    1  C   UNL     1       3.181   8.049  24.421  0.00  0.00     0.046 C 
HETATM    2  C   UNL     1       3.960   7.487  25.455  0.00  0.00     0.082 C 
HETATM    3  C   UNL     1       4.990   6.590  25.183  0.00  0.00     0.075 C 
HETATM    4  C   UNL     1       5.295   6.257  23.865  0.00  0.00     0.084 C 
HETATM    5  C   UNL     1       3.439   7.609  23.107  0.00  0.00     0.038 C 
HETATM    6  C   UNL     1       4.548   6.780  22.794  0.00  0.00     0.066 C 
ENDROOT
BRANCH   1   7
HETATM    7  C   UNL     1       2.134   9.058  24.809  0.00  0.00     0.172 A 
HETATM    8  N   UNL     1       1.013   8.945  25.623  0.00  0.00    -0.241 N 
HETATM    9  C   UNL     1       0.414  10.207  25.575  0.00  0.00     0.349 A 
HETATM   10  O   UNL     1      -0.623  10.624  26.059  0.00  0.00    -0.245 OA
HETATM   11  N   UNL     1       1.237  10.983  24.772  0.00  0.00    -0.226 N 
HETATM   12  H   UNL     1       1.042  11.937  24.501  0.00  0.00     0.194 HD
HETATM   13  N   UNL     1       2.272  10.263  24.299  0.00  0.00    -0.151 NA
BRANCH   8  14
HETATM   14  C   UNL     1       0.427   7.866  26.363  0.00  0.00     0.084 C 
HETATM   15  C   UNL     1      -0.359   6.864  25.794  0.00  0.00     0.143 C 
HETATM   16  F   UNL     1      -0.859   7.002  24.563  0.00  0.00    -0.204 F 
HETATM   17  C   UNL     1      -0.741   5.716  26.496  0.00  0.00     0.044 C 
HETATM   18  C   UNL     1      -0.490   5.618  27.857  0.00  0.00     0.003 C 
HETATM   19  C   UNL     1       0.141   6.673  28.500  0.00  0.00     0.002 C 
HETATM   20  C   UNL     1       0.618   7.762  27.757  0.00  0.00     0.033 C 
ENDBRANCH   8  14
ENDBRANCH   1   7
BRANCH   2  21
HETATM   21  O   UNL     1       3.789   7.768  26.788  0.00  0.00    -0.360 OA
HETATM   22  H   UNL     1       2.972   8.306  26.884  0.00  0.00     0.217 HD
ENDBRANCH   2  21
BRANCH   6  23
HETATM   23  C   UNL     1       5.131   6.712  21.393  0.00  0.00     0.256 C 
HETATM   24  O   UNL     1       6.085   7.458  21.158  0.00  0.00    -0.267 OA
HETATM   25  N   UNL     1       4.563   5.941  20.359  0.00  0.00    -0.352 N 
HETATM   26  C   UNL     1       3.429   5.057  20.546  0.00  0.00     0.152 C 
BRANCH  25  27
HETATM   27  C   UNL     1       4.810   6.345  18.960  0.00  0.00     0.125 C 
BRANCH  27  28
HETATM   28  C   UNL     1       3.735   7.113  18.172  0.00  0.00     0.020 C 
BRANCH  28  29
HETATM   29  C   UNL     1       3.189   8.397  18.798  0.00  0.00    -0.003 C 
HETATM   30  C   UNL     1       2.067   9.053  18.007  0.00  0.00     0.005 C 
ENDBRANCH  28  29
ENDBRANCH  27  28
ENDBRANCH  25  27
ENDBRANCH   6  23
BRANCH   4  31
HETATM   31  O   UNL     1       6.331   5.389  23.653  0.00  0.00    -0.360 OA
HETATM   32  H   UNL     1       6.892   5.357  24.446  0.00  0.00     0.217 HD
ENDBRANCH   4  31
TORSDOF 8
ENDMDL
MODEL 8
REMARK VINA RESULT:    -7.209      2.415      6.900
REMARK INTER + INTRA:         -11.638
REMARK INTER:                 -10.313
REMARK INTRA:                  -1.325
REMARK UNBOUND:                -1.480
REMARK  8 active torsions:
REMARK  status: ('A' for Active; 'I' for Inactive)
REMARK    1  A    between atoms: C_7  and  N_8 
REMARK    2  A    between atoms: C_14  and  C_15 
REMARK    3  A    between atoms: C_16  and  O_17 
REMARK    4  A    between atoms: C_19  and  O_20 
REMARK    5  A    between atoms: C_22  and  C_23 
REMARK       I    between atoms: C_23  and  N_25 
REMARK    6  A    between atoms: N_25  and  C_27 
REMARK    7  A    between atoms: C_27  and  C_28 
REMARK    8  A    between atoms: C_28  and  C_29 
ROOT
HETATM    1  C   UNL     1       3.094   7.340  24.650  0.00  0.00     0.046 C 
HETATM    2  C   UNL     1       4.362   6.924  25.109  0.00  0.00     0.082 C 
HETATM    3  C   UNL     1       5.417   6.703  24.227  0.00  0.00     0.075 C 
HETATM    4  C   UNL     1       5.244   6.928  22.862  0.00  0.00     0.084 C 
HETATM    5  C   UNL     1       2.917   7.452  23.257  0.00  0.00     0.038 C 
HETATM    6  C   UNL     1       4.001   7.336  22.347  0.00  0.00     0.066 C 
ENDROOT
BRANCH   1   7
HETATM    7  C   UNL     1       2.036   7.616  25.685  0.00  0.00     0.172 A 
HETATM    8  N   UNL     1       1.183   8.699  25.853  0.00  0.00    -0.241 N 
HETATM    9  C   UNL     1       0.453   8.398  27.006  0.00  0.00     0.349 A 
HETATM   10  O   UNL     1      -0.380   9.040  27.621  0.00  0.00    -0.245 OA
HETATM   11  N   UNL     1       0.896   7.149  27.415  0.00  0.00    -0.226 N 
HETATM   12  H   UNL     1       0.594   6.679  28.257  0.00  0.00     0.194 HD
HETATM   13  N   UNL     1       1.874   6.693  26.609  0.00  0.00    -0.151 NA
BRANCH   8  14
HETATM   14  C   UNL     1       0.996   9.935  25.150  0.00  0.00     0.084 C 
HETATM   15  C   UNL     1      -0.241  10.405  24.710  0.00  0.00     0.143 C 
HETATM   16  F   UNL     1      -1.303   9.595  24.660  0.00  0.00    -0.204 F 
HETATM   17  C   UNL     1      -0.423  11.701  24.218  0.00  0.00     0.044 C 
HETATM   18  C   UNL     1       0.675  12.518  23.987  0.00  0.00     0.003 C 
HETATM   19  C   UNL     1       1.944  12.025  24.251  0.00  0.00     0.002 C 
HETATM   20  C   UNL     1       2.096  10.767  24.852  0.00  0.00     0.033 C 
ENDBRANCH   8  14
ENDBRANCH   1   7
BRANCH   2  21
HETATM   21  O   UNL     1       4.673   6.711  26.429  0.00  0.00    -0.360 OA
HETATM   22  H   UNL     1       3.897   6.289  26.860  0.00  0.00     0.217 HD
ENDBRANCH   2  21
BRANCH   6  23
HETATM   23  C   UNL     1       3.948   7.934  20.952  0.00  0.00     0.256 C 
HETATM   24  O   UNL     1       4.012   9.164  20.879  0.00  0.00    -0.267 OA
HETATM   25  N   UNL     1       3.715   7.167  19.793  0.00  0.00    -0.352 N 
HETATM   26  C   UNL     1       3.604   5.720  19.796  0.00  0.00     0.152 C 
BRANCH  25  27
HETATM   27  C   UNL     1       3.127   7.830  18.612  0.00  0.00     0.125 C 
BRANCH  27  28
HETATM   28  C   UNL     1       1.910   7.215  17.901  0.00  0.00     0.020 C 
BRANCH  28  29
HETATM   29  C   UNL     1       1.693   7.586  16.433  0.00  0.00    -0.003 C 
HETATM   30  C   UNL     1       1.342   6.410  15.534  0.00  0.00     0.005 C 
ENDBRANCH  28  29
ENDBRANCH  27  28
ENDBRANCH  25  27
ENDBRANCH   6  23
BRANCH   4  31
HETATM   31  O   UNL     1       6.319   6.717  22.043  0.00  0.00    -0.360 OA
HETATM   32  H   UNL     1       6.375   5.773  21.821  0.00  0.00     0.217 HD
ENDBRANCH   4  31
TORSDOF 8
ENDMDL
MODEL 9
REMARK VINA RESULT:    -7.176      2.575      7.169
REMARK INTER + INTRA:         -11.592
REMARK INTER:                 -10.470
REMARK INTRA:                  -1.122
REMARK UNBOUND:                -1.480
REMARK  8 active torsions:
REMARK  status: ('A' for Active; 'I' for Inactive)
REMARK    1  A    between atoms: C_7  and  N_8 
REMARK    2  A    between atoms: C_14  and  C_15 
REMARK    3  A    between atoms: C_16  and  O_17 
REMARK    4  A    between atoms: C_19  and  O_20 
REMARK    5  A    between atoms: C_22  and  C_23 
REMARK       I    between atoms: C_23  and  N_25 
REMARK    6  A    between atoms: N_25  and  C_27 
REMARK    7  A    between atoms: C_27  and  C_28 
REMARK    8  A    between atoms: C_28  and  C_29 
ROOT
HETATM    1  C   UNL     1       1.782   8.328  25.764  0.00  0.00     0.046 C 
HETATM    2  C   UNL     1       2.713   7.610  26.544  0.00  0.00     0.082 C 
HETATM    3  C   UNL     1       3.895   7.120  25.995  0.00  0.00     0.075 C 
HETATM    4  C   UNL     1       4.198   7.366  24.657  0.00  0.00     0.084 C 
HETATM    5  C   UNL     1       2.062   8.466  24.389  0.00  0.00     0.038 C 
HETATM    6  C   UNL     1       3.305   8.069  23.830  0.00  0.00     0.066 C 
ENDROOT
BRANCH   1   7
HETATM    7  C   UNL     1       0.565   8.874  26.461  0.00  0.00     0.172 A 
HETATM    8  N   UNL     1      -0.251   9.957  26.160  0.00  0.00    -0.241 N 
HETATM    9  C   UNL     1      -1.197   9.983  27.189  0.00  0.00     0.349 A 
HETATM   10  O   UNL     1      -2.097  10.766  27.434  0.00  0.00    -0.245 OA
HETATM   11  N   UNL     1      -0.899   8.898  28.000  0.00  0.00    -0.226 N 
HETATM   12  H   UNL     1      -1.375   8.678  28.863  0.00  0.00     0.194 HD
HETATM   13  N   UNL     1       0.188   8.242  27.552  0.00  0.00    -0.151 NA
BRANCH   8  14
HETATM   14  C   UNL     1      -0.244  10.950  25.126  0.00  0.00     0.084 C 
HETATM   15  C   UNL     1      -1.279  11.131  24.207  0.00  0.00     0.143 C 
HETATM   16  F   UNL     1      -2.223  10.199  24.049  0.00  0.00    -0.204 F 
HETATM   17  C   UNL     1      -1.340  12.233  23.349  0.00  0.00     0.044 C 
HETATM   18  C   UNL     1      -0.267  13.108  23.262  0.00  0.00     0.003 C 
HETATM   19  C   UNL     1       0.859  12.866  24.036  0.00  0.00     0.002 C 
HETATM   20  C   UNL     1       0.854  11.823  24.973  0.00  0.00     0.033 C 
ENDBRANCH   8  14
ENDBRANCH   1   7
BRANCH   2  21
HETATM   21  O   UNL     1       2.553   7.340  27.880  0.00  0.00    -0.360 OA
HETATM   22  H   UNL     1       3.211   7.872  28.379  0.00  0.00     0.217 HD
ENDBRANCH   2  21
BRANCH   6  23
HETATM   23  C   UNL     1       3.819   8.646  22.522  0.00  0.00     0.256 C 
HETATM   24  O   UNL     1       4.106   9.845  22.525  0.00  0.00    -0.267 OA
HETATM   25  N   UNL     1       3.863   7.911  21.321  0.00  0.00    -0.352 N 
HETATM   26  C   UNL     1       3.521   6.504  21.226  0.00  0.00     0.152 C 
BRANCH  25  27
HETATM   27  C   UNL     1       3.820   8.645  20.040  0.00  0.00     0.125 C 
BRANCH  27  28
HETATM   28  C   UNL     1       3.539   7.899  18.725  0.00  0.00     0.020 C 
BRANCH  28  29
HETATM   29  C   UNL     1       2.231   8.221  18.001  0.00  0.00    -0.003 C 
HETATM   30  C   UNL     1       1.214   7.089  18.010  0.00  0.00     0.005 C 
ENDBRANCH  28  29
ENDBRANCH  27  28
ENDBRANCH  25  27
ENDBRANCH   6  23
BRANCH   4  31
HETATM   31  O   UNL     1       5.383   6.881  24.175  0.00  0.00    -0.360 OA
HETATM   32  H   UNL     1       5.423   5.921  24.324  0.00  0.00     0.217 HD
ENDBRANCH   4  31
TORSDOF 8
ENDMDL
