MODEL 1
REMARK VINA RESULT:    -8.035      0.000      0.000
REMARK INTER + INTRA:         -11.383
REMARK INTER:                 -10.559
REMARK INTRA:                  -0.824
REMARK UNBOUND:                -0.764
REMARK  6 active torsions:
REMARK  status: ('A' for Active; 'I' for Inactive)
REMARK    1  A    between atoms: C_2  and  C_3 
REMARK    2  A    between atoms: C_3  and  C_5 
REMARK    3  A    between atoms: C_12  and  C_16 
REMARK    4  A    between atoms: C_13  and  O_15 
REMARK       I    between atoms: C_16  and  N_18 
REMARK    5  A    between atoms: N_18  and  C_20 
REMARK    6  A    between atoms: C_23  and  N_26 
ROOT
HETATM    1  C   UNL     1      -1.282  16.740  20.539  0.00  0.00     0.135 A 
HETATM    2  N   UNL     1      -1.939  17.553  19.689  0.00  0.00    -0.170 NA
HETATM    3  N   UNL     1      -3.216  17.149  19.764  0.00  0.00    -0.277 N 
HETATM    4  H   UNL     1      -3.902  17.614  19.179  0.00  0.00     0.189 HD
HETATM    5  C   UNL     1      -2.184  15.837  21.186  0.00  0.00     0.027 A 
HETATM    6  C   UNL     1      -3.423  16.099  20.615  0.00  0.00     0.065 A 
HETATM    7  C   UNL     1      -2.100  14.808  22.149  0.00  0.00     0.036 C 
HETATM    8  C   UNL     1      -3.234  14.018  22.463  0.00  0.00     0.066 C 
HETATM    9  C   UNL     1      -4.420  14.253  21.757  0.00  0.00     0.083 C 
HETATM   10  C   UNL     1      -4.565  15.341  20.888  0.00  0.00     0.069 C 
ENDROOT
BRANCH   8  11
HETATM   11  C   UNL     1      -2.986  12.897  23.420  0.00  0.00     0.260 C 
HETATM   12  O   UNL     1      -3.286  11.786  22.969  0.00  0.00    -0.267 OA
HETATM   13  N   UNL     1      -2.461  13.079  24.722  0.00  0.00    -0.318 N 
HETATM   14  C   UNL     1      -2.290  14.372  25.383  0.00  0.00     0.159 C 
BRANCH  13  15
HETATM   15  C   UNL     1      -2.087  11.919  25.501  0.00  0.00     0.037 A 
HETATM   16  C   UNL     1      -2.892  11.472  26.551  0.00  0.00     0.032 A 
HETATM   17  C   UNL     1      -2.516  10.380  27.345  0.00  0.00     0.031 A 
HETATM   18  C   UNL     1      -1.320   9.683  27.143  0.00  0.00     0.030 A 
HETATM   19  C   UNL     1      -0.554  10.091  26.043  0.00  0.00     0.031 A 
HETATM   20  C   UNL     1      -0.931  11.183  25.227  0.00  0.00     0.032 A 
BRANCH  18  21
HETATM   21  N   UNL     1      -0.938   8.670  27.996  0.00  0.00    -0.377 N 
HETATM   22  C   UNL     1      -0.653   7.290  27.578  0.00  0.00     0.149 C 
HETATM   23  C   UNL     1       0.792   6.908  27.934  0.00  0.00     0.187 C 
HETATM   24  O   UNL     1       1.070   7.122  29.329  0.00  0.00    -0.388 OA
HETATM   25  C   UNL     1       0.876   8.506  29.663  0.00  0.00     0.187 C 
HETATM   26  C   UNL     1      -0.570   8.961  29.394  0.00  0.00     0.149 C 
ENDBRANCH  18  21
ENDBRANCH  13  15
ENDBRANCH   8  11
BRANCH   9  27
HETATM   27  O   UNL     1      -5.495  13.404  21.776  0.00  0.00    -0.360 OA
HETATM   28  H   UNL     1      -5.720  13.241  22.708  0.00  0.00     0.217 HD
ENDBRANCH   9  27
BRANCH   1  29
HETATM   29  C   UNL     1       0.182  16.814  20.689  0.00  0.00     0.180 C 
HETATM   30  O   UNL     1       0.936  16.647  19.730  0.00  0.00    -0.291 OA
BRANCH  29  31
HETATM   31  C   UNL     1       0.720  17.120  22.083  0.00  0.00     0.081 C 
HETATM   32  C   UNL     1       2.239  17.125  22.145  0.00  0.00     0.013 C 
ENDBRANCH  29  31
ENDBRANCH   1  29
TORSDOF 6
ENDMDL
MODEL 2
REMARK VINA RESULT:    -7.979      2.199      2.726
REMARK INTER + INTRA:         -11.308
REMARK INTER:                 -10.428
REMARK INTRA:                  -0.880
REMARK UNBOUND:                -0.764
REMARK  6 active torsions:
REMARK  status: ('A' for Active; 'I' for Inactive)
REMARK    1  A    between atoms: C_2  and  C_3 
REMARK    2  A    between atoms: C_3  and  C_5 
REMARK    3  A    between atoms: C_12  and  C_16 
REMARK    4  A    between atoms: C_13  and  O_15 
REMARK       I    between atoms: C_16  and  N_18 
REMARK    5  A    between atoms: N_18  and  C_20 
REMARK    6  A    between atoms: C_23  and  N_26 
ROOT
HETATM    1  C   UNL     1      -0.158  17.089  20.765  0.00  0.00     0.135 A 
HETATM    2  N   UNL     1      -0.840  18.019  20.068  0.00  0.00    -0.170 NA
HETATM    3  N   UNL     1      -2.013  17.431  19.790  0.00  0.00    -0.277 N 
HETATM    4  H   UNL     1      -2.691  17.949  19.240  0.00  0.00     0.189 HD
HETATM    5  C   UNL     1      -0.948  15.911  20.956  0.00  0.00     0.027 A 
HETATM    6  C   UNL     1      -2.126  16.154  20.261  0.00  0.00     0.065 A 
HETATM    7  C   UNL     1      -0.798  14.660  21.594  0.00  0.00     0.036 C 
HETATM    8  C   UNL     1      -1.790  13.657  21.460  0.00  0.00     0.066 C 
HETATM    9  C   UNL     1      -2.893  13.923  20.640  0.00  0.00     0.083 C 
HETATM   10  C   UNL     1      -3.126  15.192  20.096  0.00  0.00     0.069 C 
ENDROOT
BRANCH   8  11
HETATM   11  C   UNL     1      -1.462  12.345  22.096  0.00  0.00     0.260 C 
HETATM   12  O   UNL     1      -1.519  11.388  21.316  0.00  0.00    -0.267 OA
HETATM   13  N   UNL     1      -1.120  12.200  23.463  0.00  0.00    -0.318 N 
HETATM   14  C   UNL     1      -1.243  13.250  24.473  0.00  0.00     0.159 C 
BRANCH  13  15
HETATM   15  C   UNL     1      -0.643  10.920  23.939  0.00  0.00     0.037 A 
HETATM   16  C   UNL     1       0.661  10.498  23.671  0.00  0.00     0.032 A 
HETATM   17  C   UNL     1       1.120   9.240  24.082  0.00  0.00     0.031 A 
HETATM   18  C   UNL     1       0.307   8.334  24.772  0.00  0.00     0.030 A 
HETATM   19  C   UNL     1      -0.976   8.793  25.102  0.00  0.00     0.031 A 
HETATM   20  C   UNL     1      -1.444  10.066  24.702  0.00  0.00     0.032 A 
BRANCH  18  21
HETATM   21  N   UNL     1       0.761   7.072  25.086  0.00  0.00    -0.377 N 
HETATM   22  C   UNL     1       2.045   6.783  25.741  0.00  0.00     0.149 C 
HETATM   23  C   UNL     1       1.817   6.050  27.072  0.00  0.00     0.187 C 
HETATM   24  O   UNL     1       1.020   4.865  26.895  0.00  0.00    -0.388 OA
HETATM   25  C   UNL     1      -0.263   5.212  26.349  0.00  0.00     0.187 C 
HETATM   26  C   UNL     1      -0.132   5.902  24.979  0.00  0.00     0.149 C 
ENDBRANCH  18  21
ENDBRANCH  13  15
ENDBRANCH   8  11
BRANCH   9  27
HETATM   27  O   UNL     1      -3.777  12.964  20.222  0.00  0.00    -0.360 OA
HETATM   28  H   UNL     1      -4.630  13.147  20.653  0.00  0.00     0.217 HD
ENDBRANCH   9  27
BRANCH   1  29
HETATM   29  C   UNL     1       1.231  17.324  21.198  0.00  0.00     0.180 C 
HETATM   30  O   UNL     1       1.516  17.482  22.385  0.00  0.00    -0.291 OA
BRANCH  29  31
HETATM   31  C   UNL     1       2.301  17.348  20.110  0.00  0.00     0.081 C 
HETATM   32  C   UNL     1       3.155  16.091  20.090  0.00  0.00     0.013 C 
ENDBRANCH  29  31
ENDBRANCH   1  29
TORSDOF 6
ENDMDL
MODEL 3
REMARK VINA RESULT:    -7.862      2.071      4.052
REMARK INTER + INTRA:         -11.154
REMARK INTER:                 -10.237
REMARK INTRA:                  -0.918
REMARK UNBOUND:                -0.764
REMARK  6 active torsions:
REMARK  status: ('A' for Active; 'I' for Inactive)
REMARK    1  A    between atoms: C_2  and  C_3 
REMARK    2  A    between atoms: C_3  and  C_5 
REMARK    3  A    between atoms: C_12  and  C_16 
REMARK    4  A    between atoms: C_13  and  O_15 
REMARK       I    between atoms: C_16  and  N_18 
REMARK    5  A    between atoms: N_18  and  C_20 
REMARK    6  A    between atoms: C_23  and  N_26 
ROOT
HETATM    1  C   UNL     1      -3.801  15.219  19.949  0.00  0.00     0.135 A 
HETATM    2  N   UNL     1      -3.813  16.419  19.335  0.00  0.00    -0.170 NA
HETATM    3  N   UNL     1      -2.735  17.052  19.822  0.00  0.00    -0.277 N 
HETATM    4  H   UNL     1      -2.554  18.000  19.511  0.00  0.00     0.189 HD
HETATM    5  C   UNL     1      -2.662  15.094  20.807  0.00  0.00     0.027 A 
HETATM    6  C   UNL     1      -2.024  16.327  20.737  0.00  0.00     0.065 A 
HETATM    7  C   UNL     1      -2.116  14.111  21.660  0.00  0.00     0.036 C 
HETATM    8  C   UNL     1      -0.997  14.404  22.478  0.00  0.00     0.066 C 
HETATM    9  C   UNL     1      -0.482  15.706  22.453  0.00  0.00     0.083 C 
HETATM   10  C   UNL     1      -0.924  16.662  21.530  0.00  0.00     0.069 C 
ENDROOT
BRANCH   8  11
HETATM   11  C   UNL     1      -0.583  13.312  23.411  0.00  0.00     0.260 C 
HETATM   12  O   UNL     1      -0.720  13.601  24.604  0.00  0.00    -0.267 OA
HETATM   13  N   UNL     1      -0.076  12.062  22.979  0.00  0.00    -0.318 N 
HETATM   14  C   UNL     1       0.307  11.743  21.604  0.00  0.00     0.159 C 
BRANCH  13  15
HETATM   15  C   UNL     1       0.123  11.008  23.949  0.00  0.00     0.037 A 
HETATM   16  C   UNL     1      -0.883  10.075  24.208  0.00  0.00     0.032 A 
HETATM   17  C   UNL     1      -0.722   9.080  25.182  0.00  0.00     0.031 A 
HETATM   18  C   UNL     1       0.440   8.965  25.952  0.00  0.00     0.030 A 
HETATM   19  C   UNL     1       1.473   9.859  25.635  0.00  0.00     0.031 A 
HETATM   20  C   UNL     1       1.325  10.858  24.646  0.00  0.00     0.032 A 
BRANCH  18  21
HETATM   21  N   UNL     1       0.533   8.031  26.960  0.00  0.00    -0.377 N 
HETATM   22  C   UNL     1       0.959   8.325  28.336  0.00  0.00     0.149 C 
HETATM   23  C   UNL     1      -0.152   7.962  29.333  0.00  0.00     0.187 C 
HETATM   24  O   UNL     1      -0.580   6.597  29.177  0.00  0.00    -0.388 OA
HETATM   25  C   UNL     1      -1.083   6.388  27.848  0.00  0.00     0.187 C 
HETATM   26  C   UNL     1      -0.011   6.671  26.780  0.00  0.00     0.149 C 
ENDBRANCH  18  21
ENDBRANCH  13  15
ENDBRANCH   8  11
BRANCH   9  27
HETATM   27  O   UNL     1       0.415  16.185  23.370  0.00  0.00    -0.360 OA
HETATM   28  H   UNL     1       1.148  15.547  23.420  0.00  0.00     0.217 HD
ENDBRANCH   9  27
BRANCH   1  29
HETATM   29  C   UNL     1      -4.881  14.241  19.736  0.00  0.00     0.180 C 
HETATM   30  O   UNL     1      -5.438  13.681  20.681  0.00  0.00    -0.291 OA
BRANCH  29  31
HETATM   31  C   UNL     1      -5.290  13.963  18.292  0.00  0.00     0.081 C 
HETATM   32  C   UNL     1      -6.373  12.903  18.176  0.00  0.00     0.013 C 
ENDBRANCH  29  31
ENDBRANCH   1  29
TORSDOF 6
ENDMDL
MODEL 4
REMARK VINA RESULT:    -7.837      1.731      2.375
REMARK INTER + INTRA:         -11.121
REMARK INTER:                 -10.010
REMARK INTRA:                  -1.111
REMARK UNBOUND:                -0.764
REMARK  6 active torsions:
REMARK  status: ('A' for Active; 'I' for Inactive)
REMARK    1  A    between atoms: C_2  and  C_3 
REMARK    2  A    between atoms: C_3  and  C_5 
REMARK    3  A    between atoms: C_12  and  C_16 
REMARK    4  A    between atoms: C_13  and  O_15 
REMARK       I    between atoms: C_16  and  N_18 
REMARK    5  A    between atoms: N_18  and  C_20 
REMARK    6  A    between atoms: C_23  and  N_26 
ROOT
HETATM    1  C   UNL     1       0.425  16.760  20.492  0.00  0.00     0.135 A 
HETATM    2  N   UNL     1      -0.216  17.717  19.791  0.00  0.00    -0.170 NA
HETATM    3  N   UNL     1      -1.516  17.418  19.933  0.00  0.00    -0.277 N 
HETATM    4  H   UNL     1      -2.197  18.003  19.461  0.00  0.00     0.189 HD
HETATM    5  C   UNL     1      -0.507  15.871  21.116  0.00  0.00     0.027 A 
HETATM    6  C   UNL     1      -1.756  16.301  20.683  0.00  0.00     0.065 A 
HETATM    7  C   UNL     1      -0.448  14.737  21.955  0.00  0.00     0.036 C 
HETATM    8  C   UNL     1      -1.624  14.017  22.281  0.00  0.00     0.066 C 
HETATM    9  C   UNL     1      -2.833  14.431  21.707  0.00  0.00     0.083 C 
HETATM   10  C   UNL     1      -2.940  15.618  20.973  0.00  0.00     0.069 C 
ENDROOT
BRANCH   8  11
HETATM   11  C   UNL     1      -1.412  12.779  23.090  0.00  0.00     0.260 C 
HETATM   12  O   UNL     1      -1.648  11.736  22.470  0.00  0.00    -0.267 OA
HETATM   13  N   UNL     1      -0.985  12.788  24.439  0.00  0.00    -0.318 N 
HETATM   14  C   UNL     1      -0.897  13.980  25.283  0.00  0.00     0.159 C 
BRANCH  13  15
HETATM   15  C   UNL     1      -0.633  11.538  25.077  0.00  0.00     0.037 A 
HETATM   16  C   UNL     1       0.586  10.915  24.806  0.00  0.00     0.032 A 
HETATM   17  C   UNL     1       0.917   9.678  25.377  0.00  0.00     0.031 A 
HETATM   18  C   UNL     1       0.053   8.996  26.239  0.00  0.00     0.030 A 
HETATM   19  C   UNL     1      -1.137   9.662  26.565  0.00  0.00     0.031 A 
HETATM   20  C   UNL     1      -1.475  10.915  26.004  0.00  0.00     0.032 A 
BRANCH  18  21
HETATM   21  N   UNL     1       0.371   7.743  26.716  0.00  0.00    -0.377 N 
HETATM   22  C   UNL     1      -0.609   6.757  27.196  0.00  0.00     0.149 C 
HETATM   23  C   UNL     1      -0.530   5.470  26.362  0.00  0.00     0.187 C 
HETATM   24  O   UNL     1       0.807   4.937  26.333  0.00  0.00    -0.388 OA
HETATM   25  C   UNL     1       1.707   5.899  25.760  0.00  0.00     0.187 C 
HETATM   26  C   UNL     1       1.738   7.207  26.572  0.00  0.00     0.149 C 
ENDBRANCH  18  21
ENDBRANCH  13  15
ENDBRANCH   8  11
BRANCH   9  27
HETATM   27  O   UNL     1      -3.979  13.681  21.729  0.00  0.00    -0.360 OA
HETATM   28  H   UNL     1      -4.045  13.277  22.612  0.00  0.00     0.217 HD
ENDBRANCH   9  27
BRANCH   1  29
HETATM   29  C   UNL     1       1.896  16.691  20.522  0.00  0.00     0.180 C 
HETATM   30  O   UNL     1       2.570  17.556  21.083  0.00  0.00    -0.291 OA
BRANCH  29  31
HETATM   31  C   UNL     1       2.547  15.491  19.839  0.00  0.00     0.081 C 
HETATM   32  C   UNL     1       3.081  14.465  20.826  0.00  0.00     0.013 C 
ENDBRANCH  29  31
ENDBRANCH   1  29
TORSDOF 6
ENDMDL
MODEL 5
REMARK VINA RESULT:    -7.758      1.320      1.666
REMARK INTER + INTRA:         -11.016
REMARK INTER:                 -10.245
REMARK INTRA:                  -0.771
REMARK UNBOUND:                -0.764
REMARK  6 active torsions:
REMARK  status: ('A' for Active; 'I' for Inactive)
REMARK    1  A    between atoms: C_2  and  C_3 
REMARK    2  A    between atoms: C_3  and  C_5 
REMARK    3  A    between atoms: C_12  and  C_16 
REMARK    4  A    between atoms: C_13  and  O_15 
REMARK       I    between atoms: C_16  and  N_18 
REMARK    5  A    between atoms: N_18  and  C_20 
REMARK    6  A    between atoms: C_23  and  N_26 
ROOT
HETATM    1  C   UNL     1      -1.561  16.607  20.830  0.00  0.00     0.135 A 
HETATM    2  N   UNL     1      -2.508  17.115  20.017  0.00  0.00    -0.170 NA
HETATM    3  N   UNL     1      -3.622  16.444  20.345  0.00  0.00    -0.277 N 
HETATM    4  H   UNL     1      -4.474  16.649  19.834  0.00  0.00     0.189 HD
HETATM    5  C   UNL     1      -2.115  15.624  21.710  0.00  0.00     0.027 A 
HETATM    6  C   UNL     1      -3.446  15.509  21.326  0.00  0.00     0.065 A 
HETATM    7  C   UNL     1      -1.650  14.793  22.752  0.00  0.00     0.036 C 
HETATM    8  C   UNL     1      -2.498  13.818  23.332  0.00  0.00     0.066 C 
HETATM    9  C   UNL     1      -3.789  13.668  22.810  0.00  0.00     0.083 C 
HETATM   10  C   UNL     1      -4.315  14.557  21.863  0.00  0.00     0.069 C 
ENDROOT
BRANCH   8  11
HETATM   11  C   UNL     1      -1.853  12.934  24.351  0.00  0.00     0.260 C 
HETATM   12  O   UNL     1      -1.687  13.481  25.446  0.00  0.00    -0.267 OA
HETATM   13  N   UNL     1      -1.463  11.598  24.094  0.00  0.00    -0.318 N 
HETATM   14  C   UNL     1      -1.436  10.971  22.773  0.00  0.00     0.159 C 
BRANCH  13  15
HETATM   15  C   UNL     1      -1.017  10.770  25.194  0.00  0.00     0.037 A 
HETATM   16  C   UNL     1      -1.894  10.405  26.216  0.00  0.00     0.032 A 
HETATM   17  C   UNL     1      -1.462   9.647  27.313  0.00  0.00     0.031 A 
HETATM   18  C   UNL     1      -0.138   9.218  27.452  0.00  0.00     0.030 A 
HETATM   19  C   UNL     1       0.719   9.524  26.386  0.00  0.00     0.031 A 
HETATM   20  C   UNL     1       0.290  10.278  25.270  0.00  0.00     0.032 A 
BRANCH  18  21
HETATM   21  N   UNL     1       0.274   8.547  28.583  0.00  0.00    -0.377 N 
HETATM   22  C   UNL     1       1.427   7.638  28.643  0.00  0.00     0.149 C 
HETATM   23  C   UNL     1       2.458   8.143  29.664  0.00  0.00     0.187 C 
HETATM   24  O   UNL     1       1.865   8.353  30.958  0.00  0.00    -0.388 OA
HETATM   25  C   UNL     1       0.812   9.325  30.865  0.00  0.00     0.187 C 
HETATM   26  C   UNL     1      -0.301   8.871  29.903  0.00  0.00     0.149 C 
ENDBRANCH  18  21
ENDBRANCH  13  15
ENDBRANCH   8  11
BRANCH   9  27
HETATM   27  O   UNL     1      -4.605  12.607  23.097  0.00  0.00    -0.360 OA
HETATM   28  H   UNL     1      -5.393  12.685  22.531  0.00  0.00     0.217 HD
ENDBRANCH   9  27
BRANCH   1  29
HETATM   29  C   UNL     1      -0.156  17.037  20.728  0.00  0.00     0.180 C 
HETATM   30  O   UNL     1       0.413  17.125  19.639  0.00  0.00    -0.291 OA
BRANCH  29  31
HETATM   31  C   UNL     1       0.560  17.380  22.031  0.00  0.00     0.081 C 
HETATM   32  C   UNL     1       2.056  17.118  21.974  0.00  0.00     0.013 C 
ENDBRANCH  29  31
ENDBRANCH   1  29
TORSDOF 6
ENDMDL
MODEL 6
REMARK VINA RESULT:    -7.489      1.809      2.422
REMARK INTER + INTRA:         -10.660
REMARK INTER:                  -9.600
REMARK INTRA:                  -1.060
REMARK UNBOUND:                -0.764
REMARK  6 active torsions:
REMARK  status: ('A' for Active; 'I' for Inactive)
REMARK    1  A    between atoms: C_2  and  C_3 
REMARK    2  A    between atoms: C_3  and  C_5 
REMARK    3  A    between atoms: C_12  and  C_16 
REMARK    4  A    between atoms: C_13  and  O_15 
REMARK       I    between atoms: C_16  and  N_18 
REMARK    5  A    between atoms: N_18  and  C_20 
REMARK    6  A    between atoms: C_23  and  N_26 
ROOT
HETATM    1  C   UNL     1       0.466  16.819  20.381  0.00  0.00     0.135 A 
HETATM    2  N   UNL     1      -0.345  17.569  19.610  0.00  0.00    -0.170 NA
HETATM    3  N   UNL     1      -1.583  17.214  19.987  0.00  0.00    -0.277 N 
HETATM    4  H   UNL     1      -2.371  17.643  19.513  0.00  0.00     0.189 HD
HETATM    5  C   UNL     1      -0.291  16.009  21.286  0.00  0.00     0.027 A 
HETATM    6  C   UNL     1      -1.619  16.255  20.960  0.00  0.00     0.065 A 
HETATM    7  C   UNL     1      -0.019  15.073  22.307  0.00  0.00     0.036 C 
HETATM    8  C   UNL     1      -1.071  14.351  22.924  0.00  0.00     0.066 C 
HETATM    9  C   UNL     1      -2.376  14.555  22.459  0.00  0.00     0.083 C 
HETATM   10  C   UNL     1      -2.686  15.562  21.536  0.00  0.00     0.069 C 
ENDROOT
BRANCH   8  11
HETATM   11  C   UNL     1      -0.641  13.317  23.914  0.00  0.00     0.260 C 
HETATM   12  O   UNL     1      -0.401  13.775  25.036  0.00  0.00    -0.267 OA
HETATM   13  N   UNL     1      -0.514  11.941  23.605  0.00  0.00    -0.318 N 
HETATM   14  C   UNL     1      -0.576  11.375  22.258  0.00  0.00     0.159 C 
BRANCH  13  15
HETATM   15  C   UNL     1      -0.271  10.997  24.674  0.00  0.00     0.037 A 
HETATM   16  C   UNL     1      -1.312  10.565  25.497  0.00  0.00     0.032 A 
HETATM   17  C   UNL     1      -1.081   9.691  26.568  0.00  0.00     0.031 A 
HETATM   18  C   UNL     1       0.194   9.208  26.880  0.00  0.00     0.030 A 
HETATM   19  C   UNL     1       1.222   9.588  26.005  0.00  0.00     0.031 A 
HETATM   20  C   UNL     1       0.997  10.459  24.915  0.00  0.00     0.032 A 
BRANCH  18  21
HETATM   21  N   UNL     1       0.402   8.420  27.991  0.00  0.00    -0.377 N 
HETATM   22  C   UNL     1       0.537   8.927  29.364  0.00  0.00     0.149 C 
HETATM   23  C   UNL     1      -0.556   8.337  30.266  0.00  0.00     0.187 C 
HETATM   24  O   UNL     1      -0.566   6.899  30.218  0.00  0.00    -0.388 OA
HETATM   25  C   UNL     1      -0.805   6.453  28.873  0.00  0.00     0.187 C 
HETATM   26  C   UNL     1       0.284   6.951  27.905  0.00  0.00     0.149 C 
ENDBRANCH  18  21
ENDBRANCH  13  15
ENDBRANCH   8  11
BRANCH   9  27
HETATM   27  O   UNL     1      -3.432  13.746  22.782  0.00  0.00    -0.360 OA
HETATM   28  H   UNL     1      -3.920  13.563  21.961  0.00  0.00     0.217 HD
ENDBRANCH   9  27
BRANCH   1  29
HETATM   29  C   UNL     1       1.930  16.862  20.217  0.00  0.00     0.180 C 
HETATM   30  O   UNL     1       2.574  17.886  20.444  0.00  0.00    -0.291 OA
BRANCH  29  31
HETATM   31  C   UNL     1       2.613  15.574  19.766  0.00  0.00     0.081 C 
HETATM   32  C   UNL     1       3.362  14.874  20.889  0.00  0.00     0.013 C 
ENDBRANCH  29  31
ENDBRANCH   1  29
TORSDOF 6
ENDMDL
MODEL 7
REMARK VINA RESULT:    -7.399      1.273      1.748
REMARK INTER + INTRA:         -10.543
REMARK INTER:                  -9.779
REMARK INTRA:                  -0.764
REMARK UNBOUND:                -0.764
REMARK  6 active torsions:
REMARK  status: ('A' for Active; 'I' for Inactive)
REMARK    1  A    between atoms: C_2  and  C_3 
REMARK    2  A    between atoms: C_3  and  C_5 
REMARK    3  A    between atoms: C_12  and  C_16 
REMARK    4  A    between atoms: C_13  and  O_15 
REMARK       I    between atoms: C_16  and  N_18 
REMARK    5  A    between atoms: N_18  and  C_20 
REMARK    6  A    between atoms: C_23  and  N_26 
ROOT
HETATM    1  C   UNL     1      -1.777  16.569  20.491  0.00  0.00     0.135 A 
HETATM    2  N   UNL     1      -2.741  17.335  19.943  0.00  0.00    -0.170 NA
HETATM    3  N   UNL     1      -3.886  16.785  20.374  0.00  0.00    -0.277 N 
HETATM    4  H   UNL     1      -4.762  17.192  20.062  0.00  0.00     0.189 HD
HETATM    5  C   UNL     1      -2.342  15.544  21.314  0.00  0.00     0.027 A 
HETATM    6  C   UNL     1      -3.717  15.686  21.168  0.00  0.00     0.065 A 
HETATM    7  C   UNL     1      -1.865  14.494  22.128  0.00  0.00     0.036 C 
HETATM    8  C   UNL     1      -2.763  13.568  22.714  0.00  0.00     0.066 C 
HETATM    9  C   UNL     1      -4.128  13.694  22.422  0.00  0.00     0.083 C 
HETATM   10  C   UNL     1      -4.639  14.793  21.720  0.00  0.00     0.069 C 
ENDROOT
BRANCH   8  11
HETATM   11  C   UNL     1      -2.124  12.445  23.466  0.00  0.00     0.260 C 
HETATM   12  O   UNL     1      -2.199  11.356  22.886  0.00  0.00    -0.267 OA
HETATM   13  N   UNL     1      -1.494  12.602  24.723  0.00  0.00    -0.318 N 
HETATM   14  C   UNL     1      -1.560  13.807  25.549  0.00  0.00     0.159 C 
BRANCH  13  15
HETATM   15  C   UNL     1      -0.748  11.496  25.282  0.00  0.00     0.037 A 
HETATM   16  C   UNL     1      -1.287  10.712  26.303  0.00  0.00     0.032 A 
HETATM   17  C   UNL     1      -0.554   9.670  26.888  0.00  0.00     0.031 A 
HETATM   18  C   UNL     1       0.751   9.359  26.493  0.00  0.00     0.030 A 
HETATM   19  C   UNL     1       1.259  10.101  25.418  0.00  0.00     0.031 A 
HETATM   20  C   UNL     1       0.522  11.146  24.813  0.00  0.00     0.032 A 
BRANCH  18  21
HETATM   21  N   UNL     1       1.476   8.385  27.146  0.00  0.00    -0.377 N 
HETATM   22  C   UNL     1       1.127   7.822  28.458  0.00  0.00     0.149 C 
HETATM   23  C   UNL     1       0.901   6.306  28.350  0.00  0.00     0.187 C 
HETATM   24  O   UNL     1       2.031   5.642  27.757  0.00  0.00    -0.388 OA
HETATM   25  C   UNL     1       2.267   6.156  26.437  0.00  0.00     0.187 C 
HETATM   26  C   UNL     1       2.564   7.666  26.457  0.00  0.00     0.149 C 
ENDBRANCH  18  21
ENDBRANCH  13  15
ENDBRANCH   8  11
BRANCH   9  27
HETATM   27  O   UNL     1      -5.056  12.728  22.705  0.00  0.00    -0.360 OA
HETATM   28  H   UNL     1      -4.705  11.882  22.377  0.00  0.00     0.217 HD
ENDBRANCH   9  27
BRANCH   1  29
HETATM   29  C   UNL     1      -0.353  16.803  20.192  0.00  0.00     0.180 C 
HETATM   30  O   UNL     1      -0.001  17.508  19.247  0.00  0.00    -0.291 OA
BRANCH  29  31
HETATM   31  C   UNL     1       0.665  16.143  21.117  0.00  0.00     0.081 C 
HETATM   32  C   UNL     1       1.352  17.131  22.046  0.00  0.00     0.013 C 
ENDBRANCH  29  31
ENDBRANCH   1  29
TORSDOF 6
ENDMDL
MODEL 8
REMARK VINA RESULT:    -7.387      6.260      9.825
REMARK INTER + INTRA:         -10.526
REMARK INTER:                  -9.506
REMARK INTRA:                  -1.020
REMARK UNBOUND:                -0.764
REMARK  6 active torsions:
REMARK  status: ('A' for Active; 'I' for Inactive)
REMARK    1  A    between atoms: C_2  and  C_3 
REMARK    2  A    between atoms: C_3  and  C_5 
REMARK    3  A    between atoms: C_12  and  C_16 
REMARK    4  A    between atoms: C_13  and  O_15 
REMARK       I    between atoms: C_16  and  N_18 
REMARK    5  A    between atoms: N_18  and  C_20 
REMARK    6  A    between atoms: C_23  and  N_26 
ROOT
HETATM    1  C   UNL     1       5.520   6.035  20.219  0.00  0.00     0.135 A 
HETATM    2  N   UNL     1       6.654   5.316  20.106  0.00  0.00    -0.170 NA
HETATM    3  N   UNL     1       7.032   5.092  21.374  0.00  0.00    -0.277 N 
HETATM    4  H   UNL     1       7.892   4.578  21.535  0.00  0.00     0.189 HD
HETATM    5  C   UNL     1       5.168   6.225  21.593  0.00  0.00     0.027 A 
HETATM    6  C   UNL     1       6.205   5.643  22.312  0.00  0.00     0.065 A 
HETATM    7  C   UNL     1       4.127   6.849  22.314  0.00  0.00     0.036 C 
HETATM    8  C   UNL     1       4.183   6.944  23.727  0.00  0.00     0.066 C 
HETATM    9  C   UNL     1       5.319   6.449  24.379  0.00  0.00     0.083 C 
HETATM   10  C   UNL     1       6.306   5.720  23.703  0.00  0.00     0.069 C 
ENDROOT
BRANCH   8  11
HETATM   11  C   UNL     1       3.072   7.718  24.360  0.00  0.00     0.260 C 
HETATM   12  O   UNL     1       3.452   8.734  24.952  0.00  0.00    -0.267 OA
HETATM   13  N   UNL     1       1.712   7.331  24.297  0.00  0.00    -0.318 N 
HETATM   14  C   UNL     1       1.229   6.042  23.802  0.00  0.00     0.159 C 
BRANCH  13  15
HETATM   15  C   UNL     1       0.697   8.241  24.783  0.00  0.00     0.037 A 
HETATM   16  C   UNL     1       0.154   9.219  23.947  0.00  0.00     0.032 A 
HETATM   17  C   UNL     1      -0.792  10.139  24.420  0.00  0.00     0.031 A 
HETATM   18  C   UNL     1      -1.242  10.138  25.744  0.00  0.00     0.030 A 
HETATM   19  C   UNL     1      -0.749   9.107  26.556  0.00  0.00     0.031 A 
HETATM   20  C   UNL     1       0.196   8.167  26.086  0.00  0.00     0.032 A 
BRANCH  18  21
HETATM   21  N   UNL     1      -2.108  11.108  26.198  0.00  0.00    -0.377 N 
HETATM   22  C   UNL     1      -2.115  12.505  25.739  0.00  0.00     0.149 C 
HETATM   23  C   UNL     1      -3.475  12.861  25.119  0.00  0.00     0.187 C 
HETATM   24  O   UNL     1      -4.560  12.581  26.023  0.00  0.00    -0.388 OA
HETATM   25  C   UNL     1      -4.572  11.185  26.360  0.00  0.00     0.187 C 
HETATM   26  C   UNL     1      -3.263  10.752  27.045  0.00  0.00     0.149 C 
ENDBRANCH  18  21
ENDBRANCH  13  15
ENDBRANCH   8  11
BRANCH   9  27
HETATM   27  O   UNL     1       5.614   6.708  25.691  0.00  0.00    -0.360 OA
HETATM   28  H   UNL     1       5.448   5.891  26.193  0.00  0.00     0.217 HD
ENDBRANCH   9  27
BRANCH   1  29
HETATM   29  C   UNL     1       4.822   6.552  19.029  0.00  0.00     0.180 C 
HETATM   30  O   UNL     1       4.540   7.745  18.916  0.00  0.00    -0.291 OA
BRANCH  29  31
HETATM   31  C   UNL     1       4.475   5.544  17.937  0.00  0.00     0.081 C 
HETATM   32  C   UNL     1       3.587   4.414  18.433  0.00  0.00     0.013 C 
ENDBRANCH  29  31
ENDBRANCH   1  29
TORSDOF 6
ENDMDL
