MODEL 1
REMARK VINA RESULT:    -8.014      0.000      0.000
REMARK INTER + INTRA:         -13.086
REMARK INTER:                 -11.198
REMARK INTRA:                  -1.888
REMARK UNBOUND:                -2.261
REMARK  7 active torsions:
REMARK  status: ('A' for Active; 'I' for Inactive)
REMARK    1  A    between atoms: C_7  and  C_8 
REMARK    2  A    between atoms: C_8  and  C_9 
REMARK    3  A    between atoms: C_16  and  C_20 
REMARK    4  A    between atoms: C_17  and  O_19 
REMARK       I    between atoms: C_20  and  N_22 
REMARK    5  A    between atoms: N_22  and  C_24 
REMARK    6  A    between atoms: C_27  and  N_30 
REMARK    7  A    between atoms: C_35  and  O_36 
ROOT
HETATM    1  C   UNL     1       1.576   8.356  24.718  0.00  0.00     0.071 A 
HETATM    2  N   UNL     1       2.137   9.577  24.714  0.00  0.00    -0.178 NA
HETATM    3  N   UNL     1       3.448   9.333  24.551  0.00  0.00    -0.277 N 
HETATM    4  H   UNL     1       4.087  10.120  24.556  0.00  0.00     0.189 HD
HETATM    5  C   UNL     1       2.547   7.333  24.498  0.00  0.00     0.020 A 
HETATM    6  C   UNL     1       3.766   8.003  24.493  0.00  0.00     0.065 A 
HETATM    7  C   UNL     1       2.546   5.925  24.400  0.00  0.00     0.035 C 
HETATM    8  C   UNL     1       3.773   5.240  24.324  0.00  0.00     0.066 C 
HETATM    9  C   UNL     1       4.972   5.951  24.473  0.00  0.00     0.083 C 
HETATM   10  C   UNL     1       5.000   7.348  24.497  0.00  0.00     0.069 C 
ENDROOT
BRANCH   8  11
HETATM   11  C   UNL     1       3.802   3.758  24.142  0.00  0.00     0.260 C 
HETATM   12  O   UNL     1       4.205   3.112  25.116  0.00  0.00    -0.267 OA
HETATM   13  N   UNL     1       3.331   3.161  22.948  0.00  0.00    -0.318 N 
HETATM   14  C   UNL     1       3.071   1.729  22.964  0.00  0.00     0.159 C 
BRANCH  13  15
HETATM   15  C   UNL     1       3.196   3.836  21.693  0.00  0.00     0.037 C 
HETATM   16  C   UNL     1       4.317   4.277  20.997  0.00  0.00     0.032 C 
HETATM   17  C   UNL     1       4.186   5.090  19.871  0.00  0.00     0.031 C 
HETATM   18  C   UNL     1       2.951   5.513  19.377  0.00  0.00     0.032 C 
HETATM   19  C   UNL     1       1.832   4.930  19.994  0.00  0.00     0.031 C 
HETATM   20  C   UNL     1       1.946   4.099  21.124  0.00  0.00     0.032 C 
BRANCH  18  21
HETATM   21  N   UNL     1       2.832   6.481  18.402  0.00  0.00    -0.351 N 
HETATM   22  C   UNL     1       2.701   6.123  16.975  0.00  0.00     0.152 C 
HETATM   23  C   UNL     1       1.554   6.933  16.350  0.00  0.00     0.187 C 
HETATM   24  O   UNL     1       1.786   8.346  16.474  0.00  0.00    -0.385 OA
HETATM   25  C   UNL     1       1.943   8.708  17.854  0.00  0.00     0.221 C 
HETATM   26  C   UNL     1       3.075   7.930  18.570  0.00  0.00     0.244 C 
BRANCH  26  27
HETATM   27  O   UNL     1       3.094   8.346  19.924  0.00  0.00    -0.374 OA
HETATM   28  H   UNL     1       2.160   8.473  20.166  0.00  0.00     0.212 HD
ENDBRANCH  26  27
ENDBRANCH  18  21
ENDBRANCH  13  15
ENDBRANCH   8  11
BRANCH   9  29
HETATM   29  O   UNL     1       6.183   5.334  24.650  0.00  0.00    -0.360 OA
HETATM   30  H   UNL     1       6.039   4.602  25.290  0.00  0.00     0.217 HD
ENDBRANCH   9  29
BRANCH   1  31
HETATM   31  C   UNL     1       0.182   8.178  25.205  0.00  0.00     0.100 C 
BRANCH  31  32
HETATM   32  C   UNL     1      -0.071   8.969  26.463  0.00  0.00    -0.052 A 
HETATM   33  C   UNL     1       0.441   8.510  27.689  0.00  0.00     0.014 A 
HETATM   34  C   UNL     1      -0.047   9.008  28.904  0.00  0.00    -0.061 A 
HETATM   35  C   UNL     1       0.343   8.376  30.208  0.00  0.00     0.048 C 
HETATM   36  C   UNL     1      -1.004  10.030  28.885  0.00  0.00     0.007 A 
HETATM   37  C   UNL     1      -1.460  10.546  27.671  0.00  0.00     0.001 A 
HETATM   38  C   UNL     1      -0.994  10.023  26.465  0.00  0.00     0.007 A 
ENDBRANCH  31  32
ENDBRANCH   1  31
TORSDOF 7
ENDMDL
MODEL 2
REMARK VINA RESULT:    -8.008      2.776      7.042
REMARK INTER + INTRA:         -13.078
REMARK INTER:                 -11.004
REMARK INTRA:                  -2.074
REMARK UNBOUND:                -2.261
REMARK  7 active torsions:
REMARK  status: ('A' for Active; 'I' for Inactive)
REMARK    1  A    between atoms: C_7  and  C_8 
REMARK    2  A    between atoms: C_8  and  C_9 
REMARK    3  A    between atoms: C_16  and  C_20 
REMARK    4  A    between atoms: C_17  and  O_19 
REMARK       I    between atoms: C_20  and  N_22 
REMARK    5  A    between atoms: N_22  and  C_24 
REMARK    6  A    between atoms: C_27  and  N_30 
REMARK    7  A    between atoms: C_35  and  O_36 
ROOT
HETATM    1  C   UNL     1       2.100   6.826  18.573  0.00  0.00     0.071 A 
HETATM    2  N   UNL     1       0.878   7.025  18.053  0.00  0.00    -0.178 NA
HETATM    3  N   UNL     1       0.143   6.015  18.548  0.00  0.00    -0.277 N 
HETATM    4  H   UNL     1      -0.824   5.937  18.256  0.00  0.00     0.189 HD
HETATM    5  C   UNL     1       2.118   5.702  19.454  0.00  0.00     0.020 A 
HETATM    6  C   UNL     1       0.849   5.143  19.332  0.00  0.00     0.065 A 
HETATM    7  C   UNL     1       3.075   5.045  20.254  0.00  0.00     0.035 C 
HETATM    8  C   UNL     1       2.731   3.836  20.887  0.00  0.00     0.066 C 
HETATM    9  C   UNL     1       1.491   3.242  20.611  0.00  0.00     0.083 C 
HETATM   10  C   UNL     1       0.502   3.909  19.884  0.00  0.00     0.069 C 
ENDROOT
BRANCH   8  11
HETATM   11  C   UNL     1       3.697   3.157  21.801  0.00  0.00     0.260 C 
HETATM   12  O   UNL     1       4.065   2.033  21.445  0.00  0.00    -0.267 OA
HETATM   13  N   UNL     1       4.189   3.812  22.956  0.00  0.00    -0.318 N 
HETATM   14  C   UNL     1       5.361   3.247  23.607  0.00  0.00     0.159 C 
BRANCH  13  15
HETATM   15  C   UNL     1       3.557   4.924  23.600  0.00  0.00     0.037 C 
HETATM   16  C   UNL     1       2.760   4.737  24.724  0.00  0.00     0.032 C 
HETATM   17  C   UNL     1       2.000   5.786  25.244  0.00  0.00     0.031 C 
HETATM   18  C   UNL     1       1.982   7.064  24.683  0.00  0.00     0.032 C 
HETATM   19  C   UNL     1       2.911   7.274  23.651  0.00  0.00     0.031 C 
HETATM   20  C   UNL     1       3.693   6.232  23.121  0.00  0.00     0.032 C 
BRANCH  18  21
HETATM   21  N   UNL     1       1.076   8.031  25.065  0.00  0.00    -0.351 N 
HETATM   22  C   UNL     1       1.505   9.243  25.793  0.00  0.00     0.152 C 
HETATM   23  C   UNL     1       0.864  10.480  25.145  0.00  0.00     0.187 C 
HETATM   24  O   UNL     1      -0.571  10.391  25.158  0.00  0.00    -0.385 OA
HETATM   25  C   UNL     1      -1.005   9.204  24.478  0.00  0.00     0.221 C 
HETATM   26  C   UNL     1      -0.397   7.903  25.061  0.00  0.00     0.244 C 
BRANCH  26  27
HETATM   27  O   UNL     1      -0.868   6.821  24.278  0.00  0.00    -0.374 OA
HETATM   28  H   UNL     1      -1.384   7.228  23.560  0.00  0.00     0.212 HD
ENDBRANCH  26  27
ENDBRANCH  18  21
ENDBRANCH  13  15
ENDBRANCH   8  11
BRANCH   9  29
HETATM   29  O   UNL     1       1.180   1.962  20.994  0.00  0.00    -0.360 OA
HETATM   30  H   UNL     1       1.329   1.911  21.964  0.00  0.00     0.217 HD
ENDBRANCH   9  29
BRANCH   1  31
HETATM   31  C   UNL     1       3.277   7.538  18.006  0.00  0.00     0.100 C 
BRANCH  31  32
HETATM   32  C   UNL     1       4.292   7.865  19.072  0.00  0.00    -0.052 A 
HETATM   33  C   UNL     1       3.895   8.575  20.218  0.00  0.00     0.014 A 
HETATM   34  C   UNL     1       4.842   9.190  21.048  0.00  0.00    -0.061 A 
HETATM   35  C   UNL     1       4.415  10.118  22.147  0.00  0.00     0.048 C 
HETATM   36  C   UNL     1       6.203   9.026  20.764  0.00  0.00     0.007 A 
HETATM   37  C   UNL     1       6.607   8.257  19.671  0.00  0.00     0.001 A 
HETATM   38  C   UNL     1       5.659   7.675  18.831  0.00  0.00     0.007 A 
ENDBRANCH  31  32
ENDBRANCH   1  31
TORSDOF 7
ENDMDL
MODEL 3
REMARK VINA RESULT:    -7.947      2.738      8.092
REMARK INTER + INTRA:         -12.996
REMARK INTER:                 -10.787
REMARK INTRA:                  -2.209
REMARK UNBOUND:                -2.261
REMARK  7 active torsions:
REMARK  status: ('A' for Active; 'I' for Inactive)
REMARK    1  A    between atoms: C_7  and  C_8 
REMARK    2  A    between atoms: C_8  and  C_9 
REMARK    3  A    between atoms: C_16  and  C_20 
REMARK    4  A    between atoms: C_17  and  O_19 
REMARK       I    between atoms: C_20  and  N_22 
REMARK    5  A    between atoms: N_22  and  C_24 
REMARK    6  A    between atoms: C_27  and  N_30 
REMARK    7  A    between atoms: C_35  and  O_36 
ROOT
HETATM    1  C   UNL     1       0.584   5.946  18.307  0.00  0.00     0.071 A 
HETATM    2  N   UNL     1       0.119   6.832  17.412  0.00  0.00    -0.178 NA
HETATM    3  N   UNL     1       1.039   7.811  17.412  0.00  0.00    -0.277 N 
HETATM    4  H   UNL     1       0.877   8.623  16.828  0.00  0.00     0.189 HD
HETATM    5  C   UNL     1       1.846   6.351  18.838  0.00  0.00     0.020 A 
HETATM    6  C   UNL     1       2.059   7.618  18.304  0.00  0.00     0.065 A 
HETATM    7  C   UNL     1       2.775   5.842  19.770  0.00  0.00     0.035 C 
HETATM    8  C   UNL     1       3.874   6.635  20.151  0.00  0.00     0.066 C 
HETATM    9  C   UNL     1       3.959   7.959  19.696  0.00  0.00     0.083 C 
HETATM   10  C   UNL     1       3.095   8.458  18.718  0.00  0.00     0.069 C 
ENDROOT
BRANCH   8  11
HETATM   11  C   UNL     1       4.914   6.095  21.076  0.00  0.00     0.260 C 
HETATM   12  O   UNL     1       5.800   5.419  20.542  0.00  0.00    -0.267 OA
HETATM   13  N   UNL     1       4.894   6.409  22.457  0.00  0.00    -0.318 N 
HETATM   14  C   UNL     1       6.098   6.142  23.228  0.00  0.00     0.159 C 
BRANCH  13  15
HETATM   15  C   UNL     1       3.743   6.866  23.177  0.00  0.00     0.037 C 
HETATM   16  C   UNL     1       3.605   8.207  23.520  0.00  0.00     0.032 C 
HETATM   17  C   UNL     1       2.582   8.624  24.373  0.00  0.00     0.031 C 
HETATM   18  C   UNL     1       1.651   7.746  24.932  0.00  0.00     0.032 C 
HETATM   19  C   UNL     1       1.710   6.430  24.448  0.00  0.00     0.031 C 
HETATM   20  C   UNL     1       2.728   5.993  23.580  0.00  0.00     0.032 C 
BRANCH  18  21
HETATM   21  N   UNL     1       0.781   8.124  25.933  0.00  0.00    -0.351 N 
HETATM   22  C   UNL     1       1.076   7.846  27.353  0.00  0.00     0.152 C 
HETATM   23  C   UNL     1       0.823   9.114  28.183  0.00  0.00     0.187 C 
HETATM   24  O   UNL     1      -0.536   9.562  28.051  0.00  0.00    -0.385 OA
HETATM   25  C   UNL     1      -0.849   9.811  26.672  0.00  0.00     0.221 C 
HETATM   26  C   UNL     1      -0.613   8.584  25.756  0.00  0.00     0.244 C 
BRANCH  26  27
HETATM   27  O   UNL     1      -0.915   8.975  24.428  0.00  0.00    -0.374 OA
HETATM   28  H   UNL     1      -0.799   8.171  23.892  0.00  0.00     0.212 HD
ENDBRANCH  26  27
ENDBRANCH  18  21
ENDBRANCH  13  15
ENDBRANCH   8  11
BRANCH   9  29
HETATM   29  O   UNL     1       4.857   8.861  20.206  0.00  0.00    -0.360 OA
HETATM   30  H   UNL     1       4.705   8.897  21.176  0.00  0.00     0.217 HD
ENDBRANCH   9  29
BRANCH   1  31
HETATM   31  C   UNL     1      -0.310   4.882  18.837  0.00  0.00     0.100 C 
BRANCH  31  32
HETATM   32  C   UNL     1       0.320   3.517  18.716  0.00  0.00    -0.052 A 
HETATM   33  C   UNL     1       0.640   2.793  19.877  0.00  0.00     0.014 A 
HETATM   34  C   UNL     1       1.520   1.703  19.825  0.00  0.00    -0.061 A 
HETATM   35  C   UNL     1       2.025   1.062  21.085  0.00  0.00     0.048 C 
HETATM   36  C   UNL     1       2.023   1.294  18.585  0.00  0.00     0.007 A 
HETATM   37  C   UNL     1       1.648   1.961  17.418  0.00  0.00     0.001 A 
HETATM   38  C   UNL     1       0.798   3.064  17.480  0.00  0.00     0.007 A 
ENDBRANCH  31  32
ENDBRANCH   1  31
TORSDOF 7
ENDMDL
MODEL 4
REMARK VINA RESULT:    -7.878      3.530      7.470
REMARK INTER + INTRA:         -12.902
REMARK INTER:                 -10.326
REMARK INTRA:                  -2.576
REMARK UNBOUND:                -2.261
REMARK  7 active torsions:
REMARK  status: ('A' for Active; 'I' for Inactive)
REMARK    1  A    between atoms: C_7  and  C_8 
REMARK    2  A    between atoms: C_8  and  C_9 
REMARK    3  A    between atoms: C_16  and  C_20 
REMARK    4  A    between atoms: C_17  and  O_19 
REMARK       I    between atoms: C_20  and  N_22 
REMARK    5  A    between atoms: N_22  and  C_24 
REMARK    6  A    between atoms: C_27  and  N_30 
REMARK    7  A    between atoms: C_35  and  O_36 
ROOT
HETATM    1  C   UNL     1       1.624   6.503  18.044  0.00  0.00     0.071 A 
HETATM    2  N   UNL     1       0.329   6.842  18.156  0.00  0.00    -0.178 NA
HETATM    3  N   UNL     1      -0.317   5.665  18.171  0.00  0.00    -0.277 N 
HETATM    4  H   UNL     1      -1.330   5.673  18.211  0.00  0.00     0.189 HD
HETATM    5  C   UNL     1       1.796   5.085  18.044  0.00  0.00     0.020 A 
HETATM    6  C   UNL     1       0.501   4.577  18.028  0.00  0.00     0.065 A 
HETATM    7  C   UNL     1       2.879   4.186  17.959  0.00  0.00     0.035 C 
HETATM    8  C   UNL     1       2.622   2.808  17.838  0.00  0.00     0.066 C 
HETATM    9  C   UNL     1       1.302   2.363  17.677  0.00  0.00     0.083 C 
HETATM   10  C   UNL     1       0.213   3.225  17.832  0.00  0.00     0.069 C 
ENDROOT
BRANCH   8  11
HETATM   11  C   UNL     1       3.748   1.826  17.823  0.00  0.00     0.260 C 
HETATM   12  O   UNL     1       3.679   0.953  16.952  0.00  0.00    -0.267 OA
HETATM   13  N   UNL     1       4.838   1.954  18.718  0.00  0.00    -0.318 N 
HETATM   14  C   UNL     1       6.040   1.187  18.433  0.00  0.00     0.159 C 
BRANCH  13  15
HETATM   15  C   UNL     1       4.809   2.695  19.944  0.00  0.00     0.037 C 
HETATM   16  C   UNL     1       4.232   2.154  21.088  0.00  0.00     0.032 C 
HETATM   17  C   UNL     1       4.040   2.936  22.229  0.00  0.00     0.031 C 
HETATM   18  C   UNL     1       4.399   4.283  22.298  0.00  0.00     0.032 C 
HETATM   19  C   UNL     1       5.121   4.763  21.194  0.00  0.00     0.031 C 
HETATM   20  C   UNL     1       5.334   3.987  20.040  0.00  0.00     0.032 C 
BRANCH  18  21
HETATM   21  N   UNL     1       4.017   5.101  23.340  0.00  0.00    -0.351 N 
HETATM   22  C   UNL     1       4.871   5.276  24.533  0.00  0.00     0.152 C 
HETATM   23  C   UNL     1       4.980   6.773  24.865  0.00  0.00     0.187 C 
HETATM   24  O   UNL     1       3.685   7.349  25.109  0.00  0.00    -0.385 OA
HETATM   25  C   UNL     1       2.833   7.163  23.969  0.00  0.00     0.221 C 
HETATM   26  C   UNL     1       2.673   5.679  23.554  0.00  0.00     0.244 C 
BRANCH  26  27
HETATM   27  O   UNL     1       1.851   5.641  22.401  0.00  0.00    -0.374 OA
HETATM   28  H   UNL     1       0.947   5.504  22.735  0.00  0.00     0.212 HD
ENDBRANCH  26  27
ENDBRANCH  18  21
ENDBRANCH  13  15
ENDBRANCH   8  11
BRANCH   9  29
HETATM   29  O   UNL     1       0.992   1.077  17.316  0.00  0.00    -0.360 OA
HETATM   30  H   UNL     1       1.406   0.487  17.983  0.00  0.00     0.217 HD
ENDBRANCH   9  29
BRANCH   1  31
HETATM   31  C   UNL     1       2.633   7.527  17.663  0.00  0.00     0.100 C 
BRANCH  31  32
HETATM   32  C   UNL     1       3.732   7.631  18.690  0.00  0.00    -0.052 A 
HETATM   33  C   UNL     1       3.504   8.333  19.886  0.00  0.00     0.014 A 
HETATM   34  C   UNL     1       4.573   8.743  20.695  0.00  0.00    -0.061 A 
HETATM   35  C   UNL     1       4.349   9.668  21.855  0.00  0.00     0.048 C 
HETATM   36  C   UNL     1       5.875   8.379  20.336  0.00  0.00     0.007 A 
HETATM   37  C   UNL     1       6.103   7.614  19.190  0.00  0.00     0.001 A 
HETATM   38  C   UNL     1       5.039   7.238  18.373  0.00  0.00     0.007 A 
ENDBRANCH  31  32
ENDBRANCH   1  31
TORSDOF 7
ENDMDL
MODEL 5
REMARK VINA RESULT:    -7.701      3.518      5.853
REMARK INTER + INTRA:         -12.663
REMARK INTER:                 -10.409
REMARK INTRA:                  -2.254
REMARK UNBOUND:                -2.261
REMARK  7 active torsions:
REMARK  status: ('A' for Active; 'I' for Inactive)
REMARK    1  A    between atoms: C_7  and  C_8 
REMARK    2  A    between atoms: C_8  and  C_9 
REMARK    3  A    between atoms: C_16  and  C_20 
REMARK    4  A    between atoms: C_17  and  O_19 
REMARK       I    between atoms: C_20  and  N_22 
REMARK    5  A    between atoms: N_22  and  C_24 
REMARK    6  A    between atoms: C_27  and  N_30 
REMARK    7  A    between atoms: C_35  and  O_36 
ROOT
HETATM    1  C   UNL     1       4.752   7.966  21.941  0.00  0.00     0.071 A 
HETATM    2  N   UNL     1       3.907   8.922  22.360  0.00  0.00    -0.178 NA
HETATM    3  N   UNL     1       3.080   8.280  23.202  0.00  0.00    -0.277 N 
HETATM    4  H   UNL     1       2.319   8.803  23.620  0.00  0.00     0.189 HD
HETATM    5  C   UNL     1       4.483   6.714  22.573  0.00  0.00     0.020 A 
HETATM    6  C   UNL     1       3.325   6.937  23.311  0.00  0.00     0.065 A 
HETATM    7  C   UNL     1       5.021   5.411  22.532  0.00  0.00     0.035 C 
HETATM    8  C   UNL     1       4.362   4.372  23.216  0.00  0.00     0.066 C 
HETATM    9  C   UNL     1       3.121   4.621  23.819  0.00  0.00     0.083 C 
HETATM   10  C   UNL     1       2.607   5.916  23.936  0.00  0.00     0.069 C 
ENDROOT
BRANCH   8  11
HETATM   11  C   UNL     1       4.949   2.999  23.254  0.00  0.00     0.260 C 
HETATM   12  O   UNL     1       5.884   2.843  24.047  0.00  0.00    -0.267 OA
HETATM   13  N   UNL     1       4.403   1.952  22.472  0.00  0.00    -0.318 N 
HETATM   14  C   UNL     1       4.790   0.589  22.802  0.00  0.00     0.159 C 
BRANCH  13  15
HETATM   15  C   UNL     1       3.588   2.138  21.309  0.00  0.00     0.037 C 
HETATM   16  C   UNL     1       4.131   2.647  20.133  0.00  0.00     0.032 C 
HETATM   17  C   UNL     1       3.309   2.998  19.061  0.00  0.00     0.031 C 
HETATM   18  C   UNL     1       1.920   2.871  19.093  0.00  0.00     0.032 C 
HETATM   19  C   UNL     1       1.408   2.210  20.221  0.00  0.00     0.031 C 
HETATM   20  C   UNL     1       2.222   1.839  21.307  0.00  0.00     0.032 C 
BRANCH  18  21
HETATM   21  N   UNL     1       1.101   3.413  18.124  0.00  0.00    -0.351 N 
HETATM   22  C   UNL     1      -0.133   4.143  18.480  0.00  0.00     0.152 C 
HETATM   23  C   UNL     1      -0.192   5.458  17.686  0.00  0.00     0.187 C 
HETATM   24  O   UNL     1      -0.166   5.215  16.270  0.00  0.00    -0.385 OA
HETATM   25  C   UNL     1       1.014   4.481  15.910  0.00  0.00     0.221 C 
HETATM   26  C   UNL     1       1.162   3.140  16.672  0.00  0.00     0.244 C 
BRANCH  26  27
HETATM   27  O   UNL     1       2.378   2.543  16.260  0.00  0.00    -0.374 OA
HETATM   28  H   UNL     1       2.525   1.806  16.878  0.00  0.00     0.212 HD
ENDBRANCH  26  27
ENDBRANCH  18  21
ENDBRANCH  13  15
ENDBRANCH   8  11
BRANCH   9  29
HETATM   29  O   UNL     1       2.312   3.620  24.291  0.00  0.00    -0.360 OA
HETATM   30  H   UNL     1       2.794   2.775  24.150  0.00  0.00     0.217 HD
ENDBRANCH   9  29
BRANCH   1  31
HETATM   31  C   UNL     1       5.611   8.201  20.749  0.00  0.00     0.100 C 
BRANCH  31  32
HETATM   32  C   UNL     1       4.942   7.729  19.482  0.00  0.00    -0.052 A 
HETATM   33  C   UNL     1       3.833   8.430  18.978  0.00  0.00     0.014 A 
HETATM   34  C   UNL     1       2.986   7.847  18.026  0.00  0.00    -0.061 A 
HETATM   35  C   UNL     1       1.692   8.503  17.642  0.00  0.00     0.048 C 
HETATM   36  C   UNL     1       3.300   6.579  17.523  0.00  0.00     0.007 A 
HETATM   37  C   UNL     1       4.443   5.910  17.962  0.00  0.00     0.001 A 
HETATM   38  C   UNL     1       5.264   6.481  18.933  0.00  0.00     0.007 A 
ENDBRANCH  31  32
ENDBRANCH   1  31
TORSDOF 7
ENDMDL
MODEL 6
REMARK VINA RESULT:    -7.603      2.603      7.761
REMARK INTER + INTRA:         -12.531
REMARK INTER:                 -10.755
REMARK INTRA:                  -1.776
REMARK UNBOUND:                -2.261
REMARK  7 active torsions:
REMARK  status: ('A' for Active; 'I' for Inactive)
REMARK    1  A    between atoms: C_7  and  C_8 
REMARK    2  A    between atoms: C_8  and  C_9 
REMARK    3  A    between atoms: C_16  and  C_20 
REMARK    4  A    between atoms: C_17  and  O_19 
REMARK       I    between atoms: C_20  and  N_22 
REMARK    5  A    between atoms: N_22  and  C_24 
REMARK    6  A    between atoms: C_27  and  N_30 
REMARK    7  A    between atoms: C_35  and  O_36 
ROOT
HETATM    1  C   UNL     1       3.936   7.628  19.288  0.00  0.00     0.071 A 
HETATM    2  N   UNL     1       4.961   8.305  18.746  0.00  0.00    -0.178 NA
HETATM    3  N   UNL     1       6.012   7.975  19.515  0.00  0.00    -0.277 N 
HETATM    4  H   UNL     1       6.907   8.406  19.314  0.00  0.00     0.189 HD
HETATM    5  C   UNL     1       4.363   6.816  20.381  0.00  0.00     0.020 A 
HETATM    6  C   UNL     1       5.703   7.147  20.559  0.00  0.00     0.065 A 
HETATM    7  C   UNL     1       3.758   5.923  21.291  0.00  0.00     0.035 C 
HETATM    8  C   UNL     1       4.515   5.413  22.362  0.00  0.00     0.066 C 
HETATM    9  C   UNL     1       5.815   5.894  22.579  0.00  0.00     0.083 C 
HETATM   10  C   UNL     1       6.458   6.718  21.653  0.00  0.00     0.069 C 
ENDROOT
BRANCH   8  11
HETATM   11  C   UNL     1       3.925   4.408  23.296  0.00  0.00     0.260 C 
HETATM   12  O   UNL     1       4.170   3.226  23.027  0.00  0.00    -0.267 OA
HETATM   13  N   UNL     1       3.197   4.816  24.439  0.00  0.00    -0.318 N 
HETATM   14  C   UNL     1       2.946   3.822  25.472  0.00  0.00     0.159 C 
BRANCH  13  15
HETATM   15  C   UNL     1       2.590   6.102  24.608  0.00  0.00     0.037 C 
HETATM   16  C   UNL     1       3.317   7.169  25.125  0.00  0.00     0.032 C 
HETATM   17  C   UNL     1       2.685   8.368  25.459  0.00  0.00     0.031 C 
HETATM   18  C   UNL     1       1.313   8.575  25.306  0.00  0.00     0.032 C 
HETATM   19  C   UNL     1       0.628   7.549  24.637  0.00  0.00     0.031 C 
HETATM   20  C   UNL     1       1.250   6.337  24.283  0.00  0.00     0.032 C 
BRANCH  18  21
HETATM   21  N   UNL     1       0.664   9.673  25.831  0.00  0.00    -0.351 N 
HETATM   22  C   UNL     1       0.626  10.961  25.110  0.00  0.00     0.152 C 
HETATM   23  C   UNL     1      -0.812  11.503  25.111  0.00  0.00     0.187 C 
HETATM   24  O   UNL     1      -1.299  11.685  26.450  0.00  0.00    -0.385 OA
HETATM   25  C   UNL     1      -1.244  10.447  27.175  0.00  0.00     0.221 C 
HETATM   26  C   UNL     1       0.172   9.821  27.217  0.00  0.00     0.244 C 
BRANCH  26  27
HETATM   27  O   UNL     1       0.078   8.593  27.917  0.00  0.00    -0.374 OA
HETATM   28  H   UNL     1      -0.030   7.913  27.229  0.00  0.00     0.212 HD
ENDBRANCH  26  27
ENDBRANCH  18  21
ENDBRANCH  13  15
ENDBRANCH   8  11
BRANCH   9  29
HETATM   29  O   UNL     1       6.521   5.629  23.725  0.00  0.00    -0.360 OA
HETATM   30  H   UNL     1       6.183   6.242  24.415  0.00  0.00     0.217 HD
ENDBRANCH   9  29
BRANCH   1  31
HETATM   31  C   UNL     1       2.536   7.982  18.929  0.00  0.00     0.100 C 
BRANCH  31  32
HETATM   32  C   UNL     1       1.997   7.082  17.846  0.00  0.00    -0.052 A 
HETATM   33  C   UNL     1       1.897   5.699  18.075  0.00  0.00     0.014 A 
HETATM   34  C   UNL     1       1.736   4.802  17.010  0.00  0.00    -0.061 A 
HETATM   35  C   UNL     1       1.840   3.321  17.229  0.00  0.00     0.048 C 
HETATM   36  C   UNL     1       1.600   5.307  15.712  0.00  0.00     0.007 A 
HETATM   37  C   UNL     1       1.619   6.684  15.485  0.00  0.00     0.001 A 
HETATM   38  C   UNL     1       1.813   7.569  16.545  0.00  0.00     0.007 A 
ENDBRANCH  31  32
ENDBRANCH   1  31
TORSDOF 7
ENDMDL
MODEL 7
REMARK VINA RESULT:    -7.602      4.665      8.558
REMARK INTER + INTRA:         -12.529
REMARK INTER:                 -10.268
REMARK INTRA:                  -2.261
REMARK UNBOUND:                -2.261
REMARK  7 active torsions:
REMARK  status: ('A' for Active; 'I' for Inactive)
REMARK    1  A    between atoms: C_7  and  C_8 
REMARK    2  A    between atoms: C_8  and  C_9 
REMARK    3  A    between atoms: C_16  and  C_20 
REMARK    4  A    between atoms: C_17  and  O_19 
REMARK       I    between atoms: C_20  and  N_22 
REMARK    5  A    between atoms: N_22  and  C_24 
REMARK    6  A    between atoms: C_27  and  N_30 
REMARK    7  A    between atoms: C_35  and  O_36 
ROOT
HETATM    1  C   UNL     1       1.455   5.062  16.126  0.00  0.00     0.071 A 
HETATM    2  N   UNL     1       0.337   5.603  15.616  0.00  0.00    -0.178 NA
HETATM    3  N   UNL     1       0.373   6.880  16.032  0.00  0.00    -0.277 N 
HETATM    4  H   UNL     1      -0.405   7.484  15.794  0.00  0.00     0.189 HD
HETATM    5  C   UNL     1       2.233   6.031  16.828  0.00  0.00     0.020 A 
HETATM    6  C   UNL     1       1.446   7.178  16.828  0.00  0.00     0.065 A 
HETATM    7  C   UNL     1       3.453   6.045  17.538  0.00  0.00     0.035 C 
HETATM    8  C   UNL     1       3.826   7.205  18.242  0.00  0.00     0.066 C 
HETATM    9  C   UNL     1       2.927   8.278  18.331  0.00  0.00     0.083 C 
HETATM   10  C   UNL     1       1.751   8.316  17.578  0.00  0.00     0.069 C 
ENDROOT
BRANCH   8  11
HETATM   11  C   UNL     1       5.145   7.277  18.939  0.00  0.00     0.260 C 
HETATM   12  O   UNL     1       5.979   8.027  18.420  0.00  0.00    -0.267 OA
HETATM   13  N   UNL     1       5.371   6.571  20.146  0.00  0.00    -0.318 N 
HETATM   14  C   UNL     1       6.531   6.944  20.940  0.00  0.00     0.159 C 
BRANCH  13  15
HETATM   15  C   UNL     1       4.608   5.444  20.590  0.00  0.00     0.037 C 
HETATM   16  C   UNL     1       3.421   5.620  21.293  0.00  0.00     0.032 C 
HETATM   17  C   UNL     1       2.771   4.535  21.882  0.00  0.00     0.031 C 
HETATM   18  C   UNL     1       3.257   3.228  21.815  0.00  0.00     0.032 C 
HETATM   19  C   UNL     1       4.365   3.049  20.971  0.00  0.00     0.031 C 
HETATM   20  C   UNL     1       5.027   4.129  20.359  0.00  0.00     0.032 C 
BRANCH  18  21
HETATM   21  N   UNL     1       2.734   2.200  22.571  0.00  0.00    -0.351 N 
HETATM   22  C   UNL     1       2.021   1.069  21.942  0.00  0.00     0.152 C 
HETATM   23  C   UNL     1       2.542  -0.251  22.531  0.00  0.00     0.187 C 
HETATM   24  O   UNL     1       2.358  -0.296  23.955  0.00  0.00    -0.385 OA
HETATM   25  C   UNL     1       3.022   0.813  24.581  0.00  0.00     0.221 C 
HETATM   26  C   UNL     1       2.565   2.190  24.039  0.00  0.00     0.244 C 
BRANCH  26  27
HETATM   27  O   UNL     1       3.322   3.186  24.702  0.00  0.00    -0.374 OA
HETATM   28  H   UNL     1       2.680   3.874  24.951  0.00  0.00     0.212 HD
ENDBRANCH  26  27
ENDBRANCH  18  21
ENDBRANCH  13  15
ENDBRANCH   8  11
BRANCH   9  29
HETATM   29  O   UNL     1       3.115   9.333  19.187  0.00  0.00    -0.360 OA
HETATM   30  H   UNL     1       3.206   8.954  20.089  0.00  0.00     0.217 HD
ENDBRANCH   9  29
BRANCH   1  31
HETATM   31  C   UNL     1       1.615   3.583  16.168  0.00  0.00     0.100 C 
BRANCH  31  32
HETATM   32  C   UNL     1       0.778   2.966  17.260  0.00  0.00    -0.052 A 
HETATM   33  C   UNL     1      -0.449   2.361  16.939  0.00  0.00     0.014 A 
HETATM   34  C   UNL     1      -1.401   2.091  17.932  0.00  0.00    -0.061 A 
HETATM   35  C   UNL     1      -2.786   1.641  17.569  0.00  0.00     0.048 C 
HETATM   36  C   UNL     1      -1.085   2.364  19.267  0.00  0.00     0.007 A 
HETATM   37  C   UNL     1       0.163   2.892  19.603  0.00  0.00     0.001 A 
HETATM   38  C   UNL     1       1.092   3.189  18.607  0.00  0.00     0.007 A 
ENDBRANCH  31  32
ENDBRANCH   1  31
TORSDOF 7
ENDMDL
MODEL 8
REMARK VINA RESULT:    -7.568      3.077      8.951
REMARK INTER + INTRA:         -12.484
REMARK INTER:                 -10.480
REMARK INTRA:                  -2.005
REMARK UNBOUND:                -2.261
REMARK  7 active torsions:
REMARK  status: ('A' for Active; 'I' for Inactive)
REMARK    1  A    between atoms: C_7  and  C_8 
REMARK    2  A    between atoms: C_8  and  C_9 
REMARK    3  A    between atoms: C_16  and  C_20 
REMARK    4  A    between atoms: C_17  and  O_19 
REMARK       I    between atoms: C_20  and  N_22 
REMARK    5  A    between atoms: N_22  and  C_24 
REMARK    6  A    between atoms: C_27  and  N_30 
REMARK    7  A    between atoms: C_35  and  O_36 
ROOT
HETATM    1  C   UNL     1       0.546   4.194  18.012  0.00  0.00     0.071 A 
HETATM    2  N   UNL     1      -0.626   4.599  17.497  0.00  0.00    -0.178 NA
HETATM    3  N   UNL     1      -0.452   5.914  17.284  0.00  0.00    -0.277 N 
HETATM    4  H   UNL     1      -1.234   6.450  16.926  0.00  0.00     0.189 HD
HETATM    5  C   UNL     1       1.490   5.263  18.072  0.00  0.00     0.020 A 
HETATM    6  C   UNL     1       0.769   6.387  17.682  0.00  0.00     0.065 A 
HETATM    7  C   UNL     1       2.825   5.427  18.498  0.00  0.00     0.035 C 
HETATM    8  C   UNL     1       3.382   6.719  18.538  0.00  0.00     0.066 C 
HETATM    9  C   UNL     1       2.567   7.830  18.276  0.00  0.00     0.083 C 
HETATM   10  C   UNL     1       1.267   7.688  17.782  0.00  0.00     0.069 C 
ENDROOT
BRANCH   8  11
HETATM   11  C   UNL     1       4.814   6.915  18.910  0.00  0.00     0.260 C 
HETATM   12  O   UNL     1       5.627   6.759  17.993  0.00  0.00    -0.267 OA
HETATM   13  N   UNL     1       5.178   7.318  20.218  0.00  0.00    -0.318 N 
HETATM   14  C   UNL     1       6.530   7.815  20.421  0.00  0.00     0.159 C 
BRANCH  13  15
HETATM   15  C   UNL     1       4.354   7.170  21.380  0.00  0.00     0.037 C 
HETATM   16  C   UNL     1       3.965   8.280  22.123  0.00  0.00     0.032 C 
HETATM   17  C   UNL     1       3.318   8.127  23.350  0.00  0.00     0.031 C 
HETATM   18  C   UNL     1       3.026   6.881  23.907  0.00  0.00     0.032 C 
HETATM   19  C   UNL     1       3.281   5.781  23.071  0.00  0.00     0.031 C 
HETATM   20  C   UNL     1       3.923   5.917  21.827  0.00  0.00     0.032 C 
BRANCH  18  21
HETATM   21  N   UNL     1       2.584   6.731  25.204  0.00  0.00    -0.351 N 
HETATM   22  C   UNL     1       3.523   6.453  26.310  0.00  0.00     0.152 C 
HETATM   23  C   UNL     1       3.211   7.387  27.490  0.00  0.00     0.187 C 
HETATM   24  O   UNL     1       1.860   7.214  27.949  0.00  0.00    -0.385 OA
HETATM   25  C   UNL     1       0.933   7.454  26.879  0.00  0.00     0.221 C 
HETATM   26  C   UNL     1       1.181   6.560  25.638  0.00  0.00     0.244 C 
BRANCH  26  27
HETATM   27  O   UNL     1       0.235   6.925  24.650  0.00  0.00    -0.374 OA
HETATM   28  H   UNL     1      -0.424   6.209  24.647  0.00  0.00     0.212 HD
ENDBRANCH  26  27
ENDBRANCH  18  21
ENDBRANCH  13  15
ENDBRANCH   8  11
BRANCH   9  29
HETATM   29  O   UNL     1       2.966   9.117  18.526  0.00  0.00    -0.360 OA
HETATM   30  H   UNL     1       2.387   9.461  19.241  0.00  0.00     0.217 HD
ENDBRANCH   9  29
BRANCH   1  31
HETATM   31  C   UNL     1       0.645   2.872  18.688  0.00  0.00     0.100 C 
BRANCH  31  32
HETATM   32  C   UNL     1       1.731   2.020  18.080  0.00  0.00    -0.052 A 
HETATM   33  C   UNL     1       2.895   1.743  18.818  0.00  0.00     0.014 A 
HETATM   34  C   UNL     1       4.049   1.262  18.187  0.00  0.00    -0.061 A 
HETATM   35  C   UNL     1       5.349   1.165  18.931  0.00  0.00     0.048 C 
HETATM   36  C   UNL     1       4.009   0.985  16.816  0.00  0.00     0.007 A 
HETATM   37  C   UNL     1       2.833   1.183  16.091  0.00  0.00     0.001 A 
HETATM   38  C   UNL     1       1.697   1.694  16.718  0.00  0.00     0.007 A 
ENDBRANCH  31  32
ENDBRANCH   1  31
TORSDOF 7
ENDMDL
MODEL 9
REMARK VINA RESULT:    -7.540      1.605      2.291
REMARK INTER + INTRA:         -12.446
REMARK INTER:                 -10.303
REMARK INTRA:                  -2.143
REMARK UNBOUND:                -2.261
REMARK  7 active torsions:
REMARK  status: ('A' for Active; 'I' for Inactive)
REMARK    1  A    between atoms: C_7  and  C_8 
REMARK    2  A    between atoms: C_8  and  C_9 
REMARK    3  A    between atoms: C_16  and  C_20 
REMARK    4  A    between atoms: C_17  and  O_19 
REMARK       I    between atoms: C_20  and  N_22 
REMARK    5  A    between atoms: N_22  and  C_24 
REMARK    6  A    between atoms: C_27  and  N_30 
REMARK    7  A    between atoms: C_35  and  O_36 
ROOT
HETATM    1  C   UNL     1      -0.016   7.322  25.439  0.00  0.00     0.071 A 
HETATM    2  N   UNL     1      -0.381   8.586  25.168  0.00  0.00    -0.178 NA
HETATM    3  N   UNL     1       0.745   9.161  24.715  0.00  0.00    -0.277 N 
HETATM    4  H   UNL     1       0.719  10.147  24.479  0.00  0.00     0.189 HD
HETATM    5  C   UNL     1       1.351   7.087  25.097  0.00  0.00     0.020 A 
HETATM    6  C   UNL     1       1.837   8.335  24.723  0.00  0.00     0.065 A 
HETATM    7  C   UNL     1       2.247   5.998  25.153  0.00  0.00     0.035 C 
HETATM    8  C   UNL     1       3.605   6.209  24.852  0.00  0.00     0.066 C 
HETATM    9  C   UNL     1       4.068   7.513  24.626  0.00  0.00     0.083 C 
HETATM   10  C   UNL     1       3.190   8.592  24.493  0.00  0.00     0.069 C 
ENDROOT
BRANCH   8  11
HETATM   11  C   UNL     1       4.562   5.062  24.827  0.00  0.00     0.260 C 
HETATM   12  O   UNL     1       5.113   4.809  25.904  0.00  0.00    -0.267 OA
HETATM   13  N   UNL     1       4.751   4.297  23.651  0.00  0.00    -0.318 N 
HETATM   14  C   UNL     1       5.421   3.012  23.781  0.00  0.00     0.159 C 
BRANCH  13  15
HETATM   15  C   UNL     1       4.435   4.739  22.326  0.00  0.00     0.037 C 
HETATM   16  C   UNL     1       5.410   5.304  21.512  0.00  0.00     0.032 C 
HETATM   17  C   UNL     1       5.070   5.898  20.296  0.00  0.00     0.031 C 
HETATM   18  C   UNL     1       3.758   5.971  19.824  0.00  0.00     0.032 C 
HETATM   19  C   UNL     1       2.814   5.258  20.580  0.00  0.00     0.031 C 
HETATM   20  C   UNL     1       3.141   4.643  21.804  0.00  0.00     0.032 C 
BRANCH  18  21
HETATM   21  N   UNL     1       3.401   6.739  18.737  0.00  0.00    -0.351 N 
HETATM   22  C   UNL     1       3.216   6.140  17.399  0.00  0.00     0.152 C 
HETATM   23  C   UNL     1       1.902   6.654  16.788  0.00  0.00     0.187 C 
HETATM   24  O   UNL     1       1.905   8.087  16.679  0.00  0.00    -0.385 OA
HETATM   25  C   UNL     1       2.111   8.687  17.967  0.00  0.00     0.221 C 
HETATM   26  C   UNL     1       3.412   8.216  18.664  0.00  0.00     0.244 C 
BRANCH  26  27
HETATM   27  O   UNL     1       3.471   8.843  19.933  0.00  0.00    -0.374 OA
HETATM   28  H   UNL     1       3.512   9.798  19.746  0.00  0.00     0.212 HD
ENDBRANCH  26  27
ENDBRANCH  18  21
ENDBRANCH  13  15
ENDBRANCH   8  11
BRANCH   9  29
HETATM   29  O   UNL     1       5.402   7.826  24.564  0.00  0.00    -0.360 OA
HETATM   30  H   UNL     1       5.534   8.620  25.129  0.00  0.00     0.217 HD
ENDBRANCH   9  29
BRANCH   1  31
HETATM   31  C   UNL     1      -0.893   6.454  26.269  0.00  0.00     0.100 C 
BRANCH  31  32
HETATM   32  C   UNL     1      -0.339   6.275  27.660  0.00  0.00    -0.052 A 
HETATM   33  C   UNL     1      -0.223   7.387  28.512  0.00  0.00     0.014 A 
HETATM   34  C   UNL     1       0.586   7.337  29.655  0.00  0.00    -0.061 A 
HETATM   35  C   UNL     1       0.877   8.578  30.447  0.00  0.00     0.048 C 
HETATM   36  C   UNL     1       1.223   6.135  29.984  0.00  0.00     0.007 A 
HETATM   37  C   UNL     1       1.049   5.003  29.185  0.00  0.00     0.001 A 
HETATM   38  C   UNL     1       0.270   5.069  28.031  0.00  0.00     0.007 A 
ENDBRANCH  31  32
ENDBRANCH   1  31
TORSDOF 7
ENDMDL
