MODEL 1
REMARK VINA RESULT:    -6.725      0.000      0.000
REMARK INTER + INTRA:          -9.670
REMARK INTER:                  -8.612
REMARK INTRA:                  -1.058
REMARK UNBOUND:                -0.979
REMARK  5 active torsions:
REMARK  status: ('A' for Active; 'I' for Inactive)
REMARK    1  A    between atoms: N8_1  and  C24_2 
REMARK    2  A    between atoms: N8_1  and  C7_8 
REMARK    3  A    between atoms: C2_13  and  N1_14 
REMARK    4  A    between atoms: N1_14  and  C17_15 
REMARK    5  A    between atoms: C14_16  and  C13_19 
ROOT
ATOM      1  C17 FTA A   1       5.658  17.949  18.392  1.00  0.00     0.142 C 
ATOM      2  C14 FTA A   1       4.533  17.206  18.392  1.00  0.00     0.158 C 
ATOM      3  C18 FTA A   1       3.759  17.060  17.178  1.00  0.00     0.069 C 
ATOM      4  N21 FTA A   1       3.207  17.078  16.144  1.00  0.00    -0.197 NA
ENDROOT
BRANCH   2   5
ATOM      5  C13 FTA A   1       4.107  16.530  19.638  1.00  0.00     0.197 A 
ATOM      6  N15 FTA A   1       4.354  15.202  19.979  1.00  0.00    -0.093 NA
ATOM      7  N19 FTA A   1       3.744  14.964  21.203  1.00  0.00    -0.231 N 
ATOM      8  N20 FTA A   1       3.115  16.124  21.631  1.00  0.00    -0.017 NA
ATOM      9  H15 FTA A   1       3.755  14.068  21.713  1.00  0.00     0.200 HD
ATOM     10  N16 FTA A   1       3.348  17.100  20.667  1.00  0.00    -0.090 NA
ENDBRANCH   2   5
BRANCH   1  11
ATOM     11  N1  FTA A   1       5.794  18.924  19.312  1.00  0.00    -0.389 N 
ATOM     12  H11 FTA A   1       5.116  19.700  19.287  1.00  0.00     0.159 HD
BRANCH  11  13
ATOM     13  C2  FTA A   1       6.801  18.964  20.315  1.00  0.00     0.028 A 
ATOM     14  C4  FTA A   1       8.157  18.885  20.007  1.00  0.00     0.031 A 
ATOM     15  C6  FTA A   1       9.080  18.697  21.045  1.00  0.00     0.031 A 
ATOM     16  C7  FTA A   1       8.685  18.586  22.375  1.00  0.00     0.032 A 
ATOM     17  C5  FTA A   1       7.337  18.692  22.667  1.00  0.00     0.031 A 
ATOM     18  C3  FTA A   1       6.405  18.864  21.651  1.00  0.00     0.031 A 
BRANCH  16  19
ATOM     19  N8  FTA A   1       9.570  18.190  23.410  1.00  0.00    -0.356 N 
ATOM     20  H1  FTA A   1       9.816  17.191  23.465  1.00  0.00     0.166 HD
BRANCH  19  21
ATOM     21  C24 FTA A   1      10.148  19.061  24.383  1.00  0.00     0.032 A 
ATOM     22  C26 FTA A   1      10.761  20.238  24.022  1.00  0.00     0.029 A 
ATOM     23  C28 FTA A   1      11.449  20.949  24.987  1.00  0.00     0.002 A 
ATOM     24  C30 FTA A   1      11.517  20.536  26.307  1.00  0.00     0.000 A 
ATOM     25  C29 FTA A   1      10.878  19.386  26.687  1.00  0.00     0.002 A 
ATOM     26  C27 FTA A   1      10.183  18.662  25.711  1.00  0.00     0.029 A 
ENDBRANCH  19  21
ENDBRANCH  16  19
ENDBRANCH  11  13
ENDBRANCH   1  11
TORSDOF 5
ENDMDL
MODEL 2
REMARK VINA RESULT:    -5.991      3.166      9.543
REMARK INTER + INTRA:          -8.721
REMARK INTER:                  -7.739
REMARK INTRA:                  -0.981
REMARK UNBOUND:                -0.979
REMARK  5 active torsions:
REMARK  status: ('A' for Active; 'I' for Inactive)
REMARK    1  A    between atoms: N8_1  and  C24_2 
REMARK    2  A    between atoms: N8_1  and  C7_8 
REMARK    3  A    between atoms: C2_13  and  N1_14 
REMARK    4  A    between atoms: N1_14  and  C17_15 
REMARK    5  A    between atoms: C14_16  and  C13_19 
ROOT
ATOM      1  C17 FTA A   1       5.984  18.274  20.926  1.00  0.00     0.142 C 
ATOM      2  C14 FTA A   1       6.329  18.866  22.086  1.00  0.00     0.158 C 
ATOM      3  C18 FTA A   1       7.623  18.604  22.680  1.00  0.00     0.069 C 
ATOM      4  N21 FTA A   1       8.672  18.256  23.071  1.00  0.00    -0.197 NA
ENDROOT
BRANCH   2   5
ATOM      5  C13 FTA A   1       5.381  19.798  22.738  1.00  0.00     0.197 A 
ATOM      6  N15 FTA A   1       5.125  19.888  24.105  1.00  0.00    -0.093 NA
ATOM      7  N19 FTA A   1       4.141  20.852  24.283  1.00  0.00    -0.231 N 
ATOM      8  N20 FTA A   1       3.777  21.365  23.047  1.00  0.00    -0.017 NA
ATOM      9  H15 FTA A   1       3.745  21.141  25.189  1.00  0.00     0.200 HD
ATOM     10  N16 FTA A   1       4.552  20.720  22.088  1.00  0.00    -0.090 NA
ENDBRANCH   2   5
BRANCH   1  11
ATOM     11  N1  FTA A   1       4.822  17.596  20.861  1.00  0.00    -0.389 N 
ATOM     12  H11 FTA A   1       4.453  17.199  21.737  1.00  0.00     0.159 HD
BRANCH  11  13
ATOM     13  C2  FTA A   1       4.066  17.386  19.676  1.00  0.00     0.028 A 
ATOM     14  C4  FTA A   1       4.452  16.468  18.702  1.00  0.00     0.031 A 
ATOM     15  C6  FTA A   1       3.798  16.475  17.463  1.00  0.00     0.031 A 
ATOM     16  C7  FTA A   1       2.773  17.372  17.172  1.00  0.00     0.032 A 
ATOM     17  C5  FTA A   1       2.384  18.261  18.158  1.00  0.00     0.031 A 
ATOM     18  C3  FTA A   1       3.029  18.279  19.388  1.00  0.00     0.031 A 
BRANCH  16  19
ATOM     19  N8  FTA A   1       2.243  17.537  15.867  1.00  0.00    -0.356 N 
ATOM     20  H1  FTA A   1       2.487  18.403  15.364  1.00  0.00     0.166 HD
BRANCH  19  21
ATOM     21  C24 FTA A   1       1.399  16.604  15.193  1.00  0.00     0.032 A 
ATOM     22  C26 FTA A   1       0.561  15.760  15.884  1.00  0.00     0.029 A 
ATOM     23  C28 FTA A   1      -0.099  14.766  15.188  1.00  0.00     0.002 A 
ATOM     24  C30 FTA A   1       0.029  14.608  13.818  1.00  0.00     0.000 A 
ATOM     25  C29 FTA A   1       0.830  15.465  13.113  1.00  0.00     0.002 A 
ATOM     26  C27 FTA A   1       1.503  16.471  13.816  1.00  0.00     0.029 A 
ENDBRANCH  19  21
ENDBRANCH  16  19
ENDBRANCH  11  13
ENDBRANCH   1  11
TORSDOF 5
ENDMDL
MODEL 3
REMARK VINA RESULT:    -5.924      2.101      3.621
REMARK INTER + INTRA:          -8.634
REMARK INTER:                  -7.410
REMARK INTRA:                  -1.224
REMARK UNBOUND:                -0.979
REMARK  5 active torsions:
REMARK  status: ('A' for Active; 'I' for Inactive)
REMARK    1  A    between atoms: N8_1  and  C24_2 
REMARK    2  A    between atoms: N8_1  and  C7_8 
REMARK    3  A    between atoms: C2_13  and  N1_14 
REMARK    4  A    between atoms: N1_14  and  C17_15 
REMARK    5  A    between atoms: C14_16  and  C13_19 
ROOT
ATOM      1  C17 FTA A   1       7.094  19.999  20.276  1.00  0.00     0.142 C 
ATOM      2  C14 FTA A   1       5.854  20.108  20.794  1.00  0.00     0.158 C 
ATOM      3  C18 FTA A   1       5.438  21.339  21.432  1.00  0.00     0.069 C 
ATOM      4  N21 FTA A   1       5.260  22.367  21.966  1.00  0.00    -0.197 NA
ENDROOT
BRANCH   2   5
ATOM      5  C13 FTA A   1       4.919  18.965  20.690  1.00  0.00     0.197 A 
ATOM      6  N15 FTA A   1       5.125  17.685  21.201  1.00  0.00    -0.093 NA
ATOM      7  N19 FTA A   1       4.028  16.912  20.844  1.00  0.00    -0.231 N 
ATOM      8  N20 FTA A   1       3.141  17.689  20.115  1.00  0.00    -0.017 NA
ATOM      9  H15 FTA A   1       3.895  15.918  21.082  1.00  0.00     0.200 HD
ATOM     10  N16 FTA A   1       3.686  18.966  20.028  1.00  0.00    -0.090 NA
ENDBRANCH   2   5
BRANCH   1  11
ATOM     11  N1  FTA A   1       7.866  18.960  20.647  1.00  0.00    -0.389 N 
ATOM     12  H11 FTA A   1       7.802  18.096  20.089  1.00  0.00     0.159 HD
BRANCH  11  13
ATOM     13  C2  FTA A   1       8.762  18.963  21.751  1.00  0.00     0.028 A 
ATOM     14  C4  FTA A   1       8.915  17.858  22.585  1.00  0.00     0.031 A 
ATOM     15  C6  FTA A   1       9.633  18.002  23.780  1.00  0.00     0.031 A 
ATOM     16  C7  FTA A   1      10.197  19.216  24.162  1.00  0.00     0.032 A 
ATOM     17  C5  FTA A   1      10.058  20.297  23.311  1.00  0.00     0.031 A 
ATOM     18  C3  FTA A   1       9.339  20.179  22.128  1.00  0.00     0.031 A 
BRANCH  16  19
ATOM     19  N8  FTA A   1      10.743  19.438  25.453  1.00  0.00    -0.356 N 
ATOM     20  H1  FTA A   1      11.764  19.556  25.520  1.00  0.00     0.166 HD
BRANCH  19  21
ATOM     21  C24 FTA A   1       9.993  19.512  26.665  1.00  0.00     0.032 A 
ATOM     22  C26 FTA A   1      10.340  18.774  27.773  1.00  0.00     0.029 A 
ATOM     23  C28 FTA A   1       9.478  18.758  28.853  1.00  0.00     0.002 A 
ATOM     24  C30 FTA A   1       8.298  19.480  28.873  1.00  0.00     0.000 A 
ATOM     25  C29 FTA A   1       7.960  20.249  27.792  1.00  0.00     0.002 A 
ATOM     26  C27 FTA A   1       8.828  20.265  26.694  1.00  0.00     0.029 A 
ENDBRANCH  19  21
ENDBRANCH  16  19
ENDBRANCH  11  13
ENDBRANCH   1  11
TORSDOF 5
ENDMDL
MODEL 4
REMARK VINA RESULT:    -5.916      3.486      8.603
REMARK INTER + INTRA:          -8.624
REMARK INTER:                  -7.661
REMARK INTRA:                  -0.964
REMARK UNBOUND:                -0.979
REMARK  5 active torsions:
REMARK  status: ('A' for Active; 'I' for Inactive)
REMARK    1  A    between atoms: N8_1  and  C24_2 
REMARK    2  A    between atoms: N8_1  and  C7_8 
REMARK    3  A    between atoms: C2_13  and  N1_14 
REMARK    4  A    between atoms: N1_14  and  C17_15 
REMARK    5  A    between atoms: C14_16  and  C13_19 
ROOT
ATOM      1  C17 FTA A   1      10.758  19.386  26.508  1.00  0.00     0.142 C 
ATOM      2  C14 FTA A   1      10.423  19.332  27.812  1.00  0.00     0.158 C 
ATOM      3  C18 FTA A   1      11.439  19.088  28.814  1.00  0.00     0.069 C 
ATOM      4  N21 FTA A   1      12.350  18.828  29.504  1.00  0.00    -0.197 NA
ENDROOT
BRANCH   2   5
ATOM      5  C13 FTA A   1       9.012  19.539  28.211  1.00  0.00     0.197 A 
ATOM      6  N15 FTA A   1       8.410  19.069  29.376  1.00  0.00    -0.093 NA
ATOM      7  N19 FTA A   1       7.074  19.443  29.336  1.00  0.00    -0.231 N 
ATOM      8  N20 FTA A   1       6.831  20.139  28.160  1.00  0.00    -0.017 NA
ATOM      9  H15 FTA A   1       6.373  19.238  30.063  1.00  0.00     0.200 HD
ATOM     10  N16 FTA A   1       8.035  20.208  27.466  1.00  0.00    -0.090 NA
ENDBRANCH   2   5
BRANCH   1  11
ATOM     11  N1  FTA A   1      10.093  18.609  25.632  1.00  0.00    -0.389 N 
ATOM     12  H11 FTA A   1       9.683  17.733  25.988  1.00  0.00     0.159 HD
BRANCH  11  13
ATOM     13  C2  FTA A   1       9.912  18.904  24.253  1.00  0.00     0.028 A 
ATOM     14  C4  FTA A   1      10.074  20.190  23.743  1.00  0.00     0.031 A 
ATOM     15  C6  FTA A   1       9.659  20.459  22.432  1.00  0.00     0.031 A 
ATOM     16  C7  FTA A   1       9.089  19.481  21.621  1.00  0.00     0.032 A 
ATOM     17  C5  FTA A   1       8.959  18.202  22.133  1.00  0.00     0.031 A 
ATOM     18  C3  FTA A   1       9.351  17.919  23.436  1.00  0.00     0.031 A 
BRANCH  16  19
ATOM     19  N8  FTA A   1       8.475  19.775  20.377  1.00  0.00    -0.356 N 
ATOM     20  H1  FTA A   1       8.151  20.741  20.226  1.00  0.00     0.166 HD
BRANCH  19  21
ATOM     21  C24 FTA A   1       8.269  18.842  19.316  1.00  0.00     0.032 A 
ATOM     22  C26 FTA A   1       9.322  18.290  18.627  1.00  0.00     0.029 A 
ATOM     23  C28 FTA A   1       9.054  17.531  17.503  1.00  0.00     0.002 A 
ATOM     24  C30 FTA A   1       7.765  17.282  17.065  1.00  0.00     0.000 A 
ATOM     25  C29 FTA A   1       6.705  17.795  17.765  1.00  0.00     0.002 A 
ATOM     26  C27 FTA A   1       6.973  18.566  18.901  1.00  0.00     0.029 A 
ENDBRANCH  19  21
ENDBRANCH  16  19
ENDBRANCH  11  13
ENDBRANCH   1  11
TORSDOF 5
ENDMDL
MODEL 5
REMARK VINA RESULT:    -5.850      2.190      3.377
REMARK INTER + INTRA:          -8.538
REMARK INTER:                  -7.445
REMARK INTRA:                  -1.094
REMARK UNBOUND:                -0.979
REMARK  5 active torsions:
REMARK  status: ('A' for Active; 'I' for Inactive)
REMARK    1  A    between atoms: N8_1  and  C24_2 
REMARK    2  A    between atoms: N8_1  and  C7_8 
REMARK    3  A    between atoms: C2_13  and  N1_14 
REMARK    4  A    between atoms: N1_14  and  C17_15 
REMARK    5  A    between atoms: C14_16  and  C13_19 
ROOT
ATOM      1  C17 FTA A   1       5.573  19.203  21.262  1.00  0.00     0.142 C 
ATOM      2  C14 FTA A   1       5.149  18.819  20.042  1.00  0.00     0.158 C 
ATOM      3  C18 FTA A   1       3.746  18.903  19.699  1.00  0.00     0.069 C 
ATOM      4  N21 FTA A   1       2.581  18.972  19.583  1.00  0.00    -0.197 NA
ENDROOT
BRANCH   2   5
ATOM      5  C13 FTA A   1       6.133  18.326  19.051  1.00  0.00     0.197 A 
ATOM      6  N15 FTA A   1       5.885  17.410  18.031  1.00  0.00    -0.093 NA
ATOM      7  N19 FTA A   1       7.084  17.191  17.365  1.00  0.00    -0.231 N 
ATOM      8  N20 FTA A   1       8.079  17.955  17.957  1.00  0.00    -0.017 NA
ATOM      9  H15 FTA A   1       7.214  16.561  16.561  1.00  0.00     0.200 HD
ATOM     10  N16 FTA A   1       7.489  18.668  18.995  1.00  0.00    -0.090 NA
ENDBRANCH   2   5
BRANCH   1  11
ATOM     11  N1  FTA A   1       6.316  18.349  21.992  1.00  0.00    -0.389 N 
ATOM     12  H11 FTA A   1       5.925  17.413  22.173  1.00  0.00     0.159 HD
BRANCH  11  13
ATOM     13  C2  FTA A   1       7.598  18.640  22.532  1.00  0.00     0.028 A 
ATOM     14  C4  FTA A   1       8.571  17.658  22.702  1.00  0.00     0.031 A 
ATOM     15  C6  FTA A   1       9.719  17.961  23.447  1.00  0.00     0.031 A 
ATOM     16  C7  FTA A   1       9.919  19.212  24.024  1.00  0.00     0.032 A 
ATOM     17  C5  FTA A   1       8.955  20.184  23.825  1.00  0.00     0.031 A 
ATOM     18  C3  FTA A   1       7.803  19.900  23.101  1.00  0.00     0.031 A 
BRANCH  16  19
ATOM     19  N8  FTA A   1      10.962  19.476  24.949  1.00  0.00    -0.356 N 
ATOM     20  H1  FTA A   1      11.915  19.571  24.570  1.00  0.00     0.166 HD
BRANCH  19  21
ATOM     21  C24 FTA A   1      10.799  19.620  26.360  1.00  0.00     0.032 A 
ATOM     22  C26 FTA A   1      10.009  18.759  27.085  1.00  0.00     0.029 A 
ATOM     23  C28 FTA A   1       9.754  19.053  28.411  1.00  0.00     0.002 A 
ATOM     24  C30 FTA A   1      10.290  20.163  29.043  1.00  0.00     0.000 A 
ATOM     25  C29 FTA A   1      11.110  21.006  28.341  1.00  0.00     0.002 A 
ATOM     26  C27 FTA A   1      11.366  20.713  26.997  1.00  0.00     0.029 A 
ENDBRANCH  19  21
ENDBRANCH  16  19
ENDBRANCH  11  13
ENDBRANCH   1  11
TORSDOF 5
ENDMDL
MODEL 6
REMARK VINA RESULT:    -5.827      2.412      3.302
REMARK INTER + INTRA:          -8.508
REMARK INTER:                  -7.432
REMARK INTRA:                  -1.076
REMARK UNBOUND:                -0.979
REMARK  5 active torsions:
REMARK  status: ('A' for Active; 'I' for Inactive)
REMARK    1  A    between atoms: N8_1  and  C24_2 
REMARK    2  A    between atoms: N8_1  and  C7_8 
REMARK    3  A    between atoms: C2_13  and  N1_14 
REMARK    4  A    between atoms: N1_14  and  C17_15 
REMARK    5  A    between atoms: C14_16  and  C13_19 
ROOT
ATOM      1  C17 FTA A   1       5.808  18.042  20.801  1.00  0.00     0.142 C 
ATOM      2  C14 FTA A   1       5.303  18.965  19.959  1.00  0.00     0.158 C 
ATOM      3  C18 FTA A   1       5.919  19.186  18.668  1.00  0.00     0.069 C 
ATOM      4  N21 FTA A   1       6.551  19.297  17.687  1.00  0.00    -0.197 NA
ENDROOT
BRANCH   2   5
ATOM      5  C13 FTA A   1       4.105  19.738  20.359  1.00  0.00     0.197 A 
ATOM      6  N15 FTA A   1       2.816  19.578  19.854  1.00  0.00    -0.093 NA
ATOM      7  N19 FTA A   1       2.008  20.529  20.463  1.00  0.00    -0.231 N 
ATOM      8  N20 FTA A   1       2.774  21.283  21.340  1.00  0.00    -0.017 NA
ATOM      9  H15 FTA A   1       1.000  20.655  20.291  1.00  0.00     0.200 HD
ATOM     10  N16 FTA A   1       4.072  20.787  21.285  1.00  0.00    -0.090 NA
ENDBRANCH   2   5
BRANCH   1  11
ATOM     11  N1  FTA A   1       6.107  18.406  22.063  1.00  0.00    -0.389 N 
ATOM     12  H11 FTA A   1       5.329  18.479  22.734  1.00  0.00     0.159 HD
BRANCH  11  13
ATOM     13  C2  FTA A   1       7.415  18.696  22.540  1.00  0.00     0.028 A 
ATOM     14  C4  FTA A   1       8.394  17.713  22.661  1.00  0.00     0.031 A 
ATOM     15  C6  FTA A   1       9.578  18.015  23.348  1.00  0.00     0.031 A 
ATOM     16  C7  FTA A   1       9.806  19.265  23.917  1.00  0.00     0.032 A 
ATOM     17  C5  FTA A   1       8.834  20.238  23.766  1.00  0.00     0.031 A 
ATOM     18  C3  FTA A   1       7.648  19.955  23.099  1.00  0.00     0.031 A 
BRANCH  16  19
ATOM     19  N8  FTA A   1      10.893  19.527  24.789  1.00  0.00    -0.356 N 
ATOM     20  H1  FTA A   1      11.822  19.654  24.361  1.00  0.00     0.166 HD
BRANCH  19  21
ATOM     21  C24 FTA A   1      10.806  19.631  26.210  1.00  0.00     0.032 A 
ATOM     22  C26 FTA A   1      10.024  18.774  26.948  1.00  0.00     0.029 A 
ATOM     23  C28 FTA A   1       9.847  19.032  28.294  1.00  0.00     0.002 A 
ATOM     24  C30 FTA A   1      10.452  20.103  28.931  1.00  0.00     0.000 A 
ATOM     25  C29 FTA A   1      11.264  20.941  28.215  1.00  0.00     0.002 A 
ATOM     26  C27 FTA A   1      11.442  20.684  26.851  1.00  0.00     0.029 A 
ENDBRANCH  19  21
ENDBRANCH  16  19
ENDBRANCH  11  13
ENDBRANCH   1  11
TORSDOF 5
ENDMDL
MODEL 7
REMARK VINA RESULT:    -5.810      1.619      2.574
REMARK INTER + INTRA:          -8.487
REMARK INTER:                  -7.470
REMARK INTRA:                  -1.017
REMARK UNBOUND:                -0.979
REMARK  5 active torsions:
REMARK  status: ('A' for Active; 'I' for Inactive)
REMARK    1  A    between atoms: N8_1  and  C24_2 
REMARK    2  A    between atoms: N8_1  and  C7_8 
REMARK    3  A    between atoms: C2_13  and  N1_14 
REMARK    4  A    between atoms: N1_14  and  C17_15 
REMARK    5  A    between atoms: C14_16  and  C13_19 
ROOT
ATOM      1  C17 FTA A   1       7.364  19.257  19.565  1.00  0.00     0.142 C 
ATOM      2  C14 FTA A   1       6.182  18.929  19.007  1.00  0.00     0.158 C 
ATOM      3  C18 FTA A   1       5.770  19.542  17.762  1.00  0.00     0.069 C 
ATOM      4  N21 FTA A   1       5.543  20.157  16.790  1.00  0.00    -0.197 NA
ENDROOT
BRANCH   2   5
ATOM      5  C13 FTA A   1       5.317  17.927  19.670  1.00  0.00     0.197 A 
ATOM      6  N15 FTA A   1       4.883  17.963  20.994  1.00  0.00    -0.093 NA
ATOM      7  N19 FTA A   1       4.134  16.815  21.219  1.00  0.00    -0.231 N 
ATOM      8  N20 FTA A   1       4.096  16.061  20.055  1.00  0.00    -0.017 NA
ATOM      9  H15 FTA A   1       3.680  16.563  22.109  1.00  0.00     0.200 HD
ATOM     10  N16 FTA A   1       4.820  16.754  19.090  1.00  0.00    -0.090 NA
ENDBRANCH   2   5
BRANCH   1  11
ATOM     11  N1  FTA A   1       7.389  19.659  20.850  1.00  0.00    -0.389 N 
ATOM     12  H11 FTA A   1       6.609  20.245  21.181  1.00  0.00     0.159 HD
BRANCH  11  13
ATOM     13  C2  FTA A   1       8.410  19.335  21.786  1.00  0.00     0.028 A 
ATOM     14  C4  FTA A   1       8.548  18.055  22.318  1.00  0.00     0.031 A 
ATOM     15  C6  FTA A   1       9.419  17.859  23.399  1.00  0.00     0.031 A 
ATOM     16  C7  FTA A   1      10.148  18.904  23.961  1.00  0.00     0.032 A 
ATOM     17  C5  FTA A   1      10.018  20.164  23.405  1.00  0.00     0.031 A 
ATOM     18  C3  FTA A   1       9.151  20.382  22.341  1.00  0.00     0.031 A 
BRANCH  16  19
ATOM     19  N8  FTA A   1      10.868  18.773  25.176  1.00  0.00    -0.356 N 
ATOM     20  H1  FTA A   1      11.635  18.086  25.199  1.00  0.00     0.166 HD
BRANCH  19  21
ATOM     21  C24 FTA A   1      10.616  19.516  26.369  1.00  0.00     0.032 A 
ATOM     22  C26 FTA A   1      11.365  20.619  26.702  1.00  0.00     0.029 A 
ATOM     23  C28 FTA A   1      11.187  21.189  27.949  1.00  0.00     0.002 A 
ATOM     24  C30 FTA A   1      10.262  20.708  28.860  1.00  0.00     0.000 A 
ATOM     25  C29 FTA A   1       9.483  19.633  28.525  1.00  0.00     0.002 A 
ATOM     26  C27 FTA A   1       9.663  19.052  27.265  1.00  0.00     0.029 A 
ENDBRANCH  19  21
ENDBRANCH  16  19
ENDBRANCH  11  13
ENDBRANCH   1  11
TORSDOF 5
ENDMDL
MODEL 8
REMARK VINA RESULT:    -5.776      2.986      8.972
REMARK INTER + INTRA:          -8.443
REMARK INTER:                  -7.382
REMARK INTRA:                  -1.061
REMARK UNBOUND:                -0.979
REMARK  5 active torsions:
REMARK  status: ('A' for Active; 'I' for Inactive)
REMARK    1  A    between atoms: N8_1  and  C24_2 
REMARK    2  A    between atoms: N8_1  and  C7_8 
REMARK    3  A    between atoms: C2_13  and  N1_14 
REMARK    4  A    between atoms: N1_14  and  C17_15 
REMARK    5  A    between atoms: C14_16  and  C13_19 
ROOT
ATOM      1  C17 FTA A   1      10.815  18.939  26.005  1.00  0.00     0.142 C 
ATOM      2  C14 FTA A   1      10.463  19.926  26.854  1.00  0.00     0.158 C 
ATOM      3  C18 FTA A   1       9.428  19.702  27.840  1.00  0.00     0.069 C 
ATOM      4  N21 FTA A   1       8.540  19.399  28.542  1.00  0.00    -0.197 NA
ENDROOT
BRANCH   2   5
ATOM      5  C13 FTA A   1      11.156  21.233  26.778  1.00  0.00     0.197 A 
ATOM      6  N15 FTA A   1      11.126  22.236  27.745  1.00  0.00    -0.093 NA
ATOM      7  N19 FTA A   1      11.866  23.306  27.259  1.00  0.00    -0.231 N 
ATOM      8  N20 FTA A   1      12.356  22.987  26.001  1.00  0.00    -0.017 NA
ATOM      9  H15 FTA A   1      12.026  24.195  27.754  1.00  0.00     0.200 HD
ATOM     10  N16 FTA A   1      11.925  21.697  25.706  1.00  0.00    -0.090 NA
ENDBRANCH   2   5
BRANCH   1  11
ATOM     11  N1  FTA A   1      10.819  19.189  24.682  1.00  0.00    -0.389 N 
ATOM     12  H11 FTA A   1      11.718  19.443  24.248  1.00  0.00     0.159 HD
BRANCH  11  13
ATOM     13  C2  FTA A   1       9.676  19.129  23.838  1.00  0.00     0.028 A 
ATOM     14  C4  FTA A   1       8.767  20.180  23.745  1.00  0.00     0.031 A 
ATOM     15  C6  FTA A   1       7.551  19.971  23.081  1.00  0.00     0.031 A 
ATOM     16  C7  FTA A   1       7.220  18.743  22.512  1.00  0.00     0.032 A 
ATOM     17  C5  FTA A   1       8.144  17.717  22.592  1.00  0.00     0.031 A 
ATOM     18  C3  FTA A   1       9.350  17.900  23.257  1.00  0.00     0.031 A 
BRANCH  16  19
ATOM     19  N8  FTA A   1       5.922  18.447  22.024  1.00  0.00    -0.356 N 
ATOM     20  H1  FTA A   1       5.147  18.464  22.702  1.00  0.00     0.166 HD
BRANCH  19  21
ATOM     21  C24 FTA A   1       5.602  18.126  20.670  1.00  0.00     0.032 A 
ATOM     22  C26 FTA A   1       4.631  17.204  20.358  1.00  0.00     0.029 A 
ATOM     23  C28 FTA A   1       4.488  16.812  19.041  1.00  0.00     0.002 A 
ATOM     24  C30 FTA A   1       5.265  17.337  18.021  1.00  0.00     0.000 A 
ATOM     25  C29 FTA A   1       6.210  18.284  18.314  1.00  0.00     0.002 A 
ATOM     26  C27 FTA A   1       6.359  18.680  19.648  1.00  0.00     0.029 A 
ENDBRANCH  19  21
ENDBRANCH  16  19
ENDBRANCH  11  13
ENDBRANCH   1  11
TORSDOF 5
ENDMDL
MODEL 9
REMARK VINA RESULT:    -5.722      2.767      8.799
REMARK INTER + INTRA:          -8.374
REMARK INTER:                  -7.395
REMARK INTRA:                  -0.979
REMARK UNBOUND:                -0.979
REMARK  5 active torsions:
REMARK  status: ('A' for Active; 'I' for Inactive)
REMARK    1  A    between atoms: N8_1  and  C24_2 
REMARK    2  A    between atoms: N8_1  and  C7_8 
REMARK    3  A    between atoms: C2_13  and  N1_14 
REMARK    4  A    between atoms: N1_14  and  C17_15 
REMARK    5  A    between atoms: C14_16  and  C13_19 
ROOT
ATOM      1  C17 FTA A   1      10.615  21.271  24.447  1.00  0.00     0.142 C 
ATOM      2  C14 FTA A   1      11.480  21.372  25.476  1.00  0.00     0.158 C 
ATOM      3  C18 FTA A   1      12.530  22.368  25.448  1.00  0.00     0.069 C 
ATOM      4  N21 FTA A   1      13.359  23.176  25.264  1.00  0.00    -0.197 NA
ENDROOT
BRANCH   2   5
ATOM      5  C13 FTA A   1      11.336  20.468  26.641  1.00  0.00     0.197 A 
ATOM      6  N15 FTA A   1      11.440  20.832  27.982  1.00  0.00    -0.093 NA
ATOM      7  N19 FTA A   1      11.286  19.679  28.740  1.00  0.00    -0.231 N 
ATOM      8  N20 FTA A   1      11.090  18.599  27.892  1.00  0.00    -0.017 NA
ATOM      9  H15 FTA A   1      11.313  19.632  29.769  1.00  0.00     0.200 HD
ATOM     10  N16 FTA A   1      11.109  19.088  26.590  1.00  0.00    -0.090 NA
ENDBRANCH   2   5
BRANCH   1  11
ATOM     11  N1  FTA A   1      10.438  20.071  23.862  1.00  0.00    -0.389 N 
ATOM     12  H11 FTA A   1      11.281  19.522  23.637  1.00  0.00     0.159 HD
BRANCH  11  13
ATOM     13  C2  FTA A   1       9.177  19.503  23.531  1.00  0.00     0.028 A 
ATOM     14  C4  FTA A   1       9.064  18.333  22.784  1.00  0.00     0.031 A 
ATOM     15  C6  FTA A   1       7.805  17.956  22.298  1.00  0.00     0.031 A 
ATOM     16  C7  FTA A   1       6.662  18.715  22.536  1.00  0.00     0.032 A 
ATOM     17  C5  FTA A   1       6.787  19.861  23.301  1.00  0.00     0.031 A 
ATOM     18  C3  FTA A   1       8.029  20.260  23.780  1.00  0.00     0.031 A 
BRANCH  16  19
ATOM     19  N8  FTA A   1       5.426  18.470  21.885  1.00  0.00    -0.356 N 
ATOM     20  H1  FTA A   1       4.565  18.676  22.413  1.00  0.00     0.166 HD
BRANCH  19  21
ATOM     21  C24 FTA A   1       5.276  17.960  20.560  1.00  0.00     0.032 A 
ATOM     22  C26 FTA A   1       5.807  18.613  19.473  1.00  0.00     0.029 A 
ATOM     23  C28 FTA A   1       5.481  18.164  18.207  1.00  0.00     0.002 A 
ATOM     24  C30 FTA A   1       4.667  17.064  17.996  1.00  0.00     0.000 A 
ATOM     25  C29 FTA A   1       4.164  16.382  19.071  1.00  0.00     0.002 A 
ATOM     26  C27 FTA A   1       4.488  16.836  20.354  1.00  0.00     0.029 A 
ENDBRANCH  19  21
ENDBRANCH  16  19
ENDBRANCH  11  13
ENDBRANCH   1  11
TORSDOF 5
ENDMDL
