MODEL 1
REMARK VINA RESULT:    -8.287      0.000      0.000
REMARK INTER + INTRA:         -11.013
REMARK INTER:                 -10.148
REMARK INTRA:                  -0.865
REMARK UNBOUND:                -1.031
REMARK  4 active torsions:
REMARK  status: ('A' for Active; 'I' for Inactive)
REMARK    1  A    between atoms: N_1  and  C_2 
REMARK    2  A    between atoms: C_7  and  C_9 
REMARK       I    between atoms: C_9  and  N_11 
REMARK    3  A    between atoms: N_11  and  C_12 
REMARK    4  A    between atoms: C_24  and  C_25 
ROOT
HETATM    1  C   UNL     1       3.640   6.873  22.861  0.00  0.00     0.153 C 
HETATM    2  C   UNL     1       3.190   5.824  23.860  0.00  0.00    -0.020 A 
HETATM    3  C   UNL     1       3.177   4.441  23.699  0.00  0.00     0.010 A 
HETATM    4  C   UNL     1       2.937   3.640  24.815  0.00  0.00     0.001 A 
HETATM    5  C   UNL     1       2.751   4.221  26.070  0.00  0.00     0.001 A 
HETATM    6  C   UNL     1       2.764   5.613  26.221  0.00  0.00     0.013 A 
HETATM    7  C   UNL     1       2.943   6.434  25.115  0.00  0.00    -0.016 A 
HETATM    8  C   UNL     1       2.982   7.897  24.964  0.00  0.00    -0.003 A 
HETATM    9  C   UNL     1       3.319   8.163  23.597  0.00  0.00    -0.019 A 
HETATM   10  C   UNL     1       3.466   9.450  23.100  0.00  0.00     0.010 A 
HETATM   11  C   UNL     1       3.267  10.510  23.972  0.00  0.00     0.002 A 
HETATM   12  C   UNL     1       2.932  10.277  25.318  0.00  0.00     0.016 A 
HETATM   13  C   UNL     1       2.778   8.972  25.848  0.00  0.00     0.022 A 
ENDROOT
BRANCH   1  14
HETATM   14  N   UNL     1       3.128   6.753  21.508  0.00  0.00    -0.343 N 
HETATM   15  C   UNL     1       3.906   7.245  20.469  0.00  0.00     0.273 C 
HETATM   16  O   UNL     1       5.045   7.652  20.688  0.00  0.00    -0.266 OA
HETATM   17  H   UNL     1       2.186   6.417  21.329  0.00  0.00     0.163 HD
BRANCH  15  18
HETATM   18  C   UNL     1       3.336   7.290  19.075  0.00  0.00     0.150 A 
HETATM   19  C   UNL     1       3.535   6.237  18.191  0.00  0.00     0.086 A 
HETATM   20  C   UNL     1       2.937   6.392  16.964  0.00  0.00     0.146 A 
HETATM   21 CL   UNL     1       4.449   4.804  18.445  0.00  0.00    -0.080 Cl
HETATM   22  N   UNL     1       2.231   7.481  16.606  0.00  0.00    -0.229 NA
HETATM   23  C   UNL     1       2.131   8.462  17.508  0.00  0.00     0.199 A 
HETATM   24  N   UNL     1       2.632   8.416  18.751  0.00  0.00    -0.211 NA
BRANCH  23  25
HETATM   25  N   UNL     1       1.437   9.576  17.100  0.00  0.00    -0.271 NA
HETATM   26  H   UNL     1       0.575   9.656  17.626  0.00  0.00     0.127 HD
HETATM   27  H   UNL     1       2.024  10.393  17.037  0.00  0.00     0.127 HD
ENDBRANCH  23  25
ENDBRANCH  15  18
ENDBRANCH   1  14
BRANCH  13  28
HETATM   28  C   UNL     1       2.401   8.833  27.265  0.00  0.00     0.140 A 
HETATM   29  N   UNL     1       1.176   8.840  27.759  0.00  0.00    -0.227 NA
HETATM   30  C   UNL     1       1.282   8.610  29.108  0.00  0.00     0.103 A 
HETATM   31  C   UNL     1       0.294   8.422  30.077  0.00  0.00     0.150 A 
HETATM   32  C   UNL     1       2.615   8.565  29.488  0.00  0.00     0.065 A 
HETATM   33  N   UNL     1       0.640   8.236  31.379  0.00  0.00    -0.271 NA
HETATM   34  C   UNL     1       1.955   8.239  31.709  0.00  0.00     0.118 A 
HETATM   35  C   UNL     1       3.009   8.393  30.813  0.00  0.00     0.051 A 
HETATM   36  N   UNL     1       3.305   8.707  28.307  0.00  0.00    -0.338 N 
HETATM   37  H   UNL     1       4.307   8.676  28.206  0.00  0.00     0.167 HD
ENDBRANCH  13  28
TORSDOF 4
ENDMDL
MODEL 2
REMARK VINA RESULT:    -8.111      1.603      1.699
REMARK INTER + INTRA:         -10.801
REMARK INTER:                  -9.794
REMARK INTRA:                  -1.007
REMARK UNBOUND:                -1.031
REMARK  4 active torsions:
REMARK  status: ('A' for Active; 'I' for Inactive)
REMARK    1  A    between atoms: N_1  and  C_2 
REMARK    2  A    between atoms: C_7  and  C_9 
REMARK       I    between atoms: C_9  and  N_11 
REMARK    3  A    between atoms: N_11  and  C_12 
REMARK    4  A    between atoms: C_24  and  C_25 
ROOT
HETATM    1  C   UNL     1       4.196   7.215  22.975  0.00  0.00     0.153 C 
HETATM    2  C   UNL     1       4.527   5.935  23.718  0.00  0.00    -0.020 A 
HETATM    3  C   UNL     1       5.181   4.808  23.229  0.00  0.00     0.010 A 
HETATM    4  C   UNL     1       5.587   3.825  24.132  0.00  0.00     0.001 A 
HETATM    5  C   UNL     1       5.369   3.995  25.500  0.00  0.00     0.001 A 
HETATM    6  C   UNL     1       4.708   5.132  25.981  0.00  0.00     0.013 A 
HETATM    7  C   UNL     1       4.243   6.097  25.098  0.00  0.00    -0.016 A 
HETATM    8  C   UNL     1       3.513   7.358  25.302  0.00  0.00    -0.003 A 
HETATM    9  C   UNL     1       3.413   7.991  24.021  0.00  0.00    -0.019 A 
HETATM   10  C   UNL     1       2.799   9.221  23.841  0.00  0.00     0.010 A 
HETATM   11  C   UNL     1       2.258   9.847  24.955  0.00  0.00     0.002 A 
HETATM   12  C   UNL     1       2.340   9.246  26.223  0.00  0.00     0.016 A 
HETATM   13  C   UNL     1       2.964   7.992  26.432  0.00  0.00     0.022 A 
ENDROOT
BRANCH   1  14
HETATM   14  N   UNL     1       3.575   7.074  21.671  0.00  0.00    -0.343 N 
HETATM   15  C   UNL     1       4.135   7.762  20.602  0.00  0.00     0.273 C 
HETATM   16  O   UNL     1       5.197   8.365  20.743  0.00  0.00    -0.266 OA
HETATM   17  H   UNL     1       2.697   6.576  21.556  0.00  0.00     0.163 HD
BRANCH  15  18
HETATM   18  C   UNL     1       3.422   7.773  19.275  0.00  0.00     0.150 A 
HETATM   19  C   UNL     1       3.497   6.682  18.418  0.00  0.00     0.086 A 
HETATM   20  C   UNL     1       2.777   6.812  17.255  0.00  0.00     0.146 A 
HETATM   21 CL   UNL     1       4.390   5.231  18.633  0.00  0.00    -0.080 Cl
HETATM   22  N   UNL     1       2.068   7.909  16.929  0.00  0.00    -0.229 NA
HETATM   23  C   UNL     1       2.092   8.926  17.797  0.00  0.00     0.199 A 
HETATM   24  N   UNL     1       2.721   8.910  18.981  0.00  0.00    -0.211 NA
BRANCH  23  25
HETATM   25  N   UNL     1       1.391  10.046  17.418  0.00  0.00    -0.271 NA
HETATM   26  H   UNL     1       1.059  10.536  18.240  0.00  0.00     0.127 HD
HETATM   27  H   UNL     1       1.876  10.583  16.716  0.00  0.00     0.127 HD
ENDBRANCH  23  25
ENDBRANCH  15  18
ENDBRANCH   1  14
BRANCH  13  28
HETATM   28  C   UNL     1       2.976   7.434  27.795  0.00  0.00     0.140 A 
HETATM   29  N   UNL     1       1.934   6.987  28.474  0.00  0.00    -0.227 NA
HETATM   30  C   UNL     1       2.409   6.495  29.664  0.00  0.00     0.103 A 
HETATM   31  C   UNL     1       1.748   5.824  30.695  0.00  0.00     0.150 A 
HETATM   32  C   UNL     1       3.769   6.738  29.782  0.00  0.00     0.065 A 
HETATM   33  N   UNL     1       2.427   5.450  31.813  0.00  0.00    -0.271 NA
HETATM   34  C   UNL     1       3.747   5.745  31.900  0.00  0.00     0.118 A 
HETATM   35  C   UNL     1       4.495   6.386  30.917  0.00  0.00     0.051 A 
HETATM   36  N   UNL     1       4.107   7.331  28.589  0.00  0.00    -0.338 N 
HETATM   37  H   UNL     1       5.037   7.605  28.312  0.00  0.00     0.167 HD
ENDBRANCH  13  28
TORSDOF 4
ENDMDL
MODEL 3
REMARK VINA RESULT:    -7.922      2.388      3.192
REMARK INTER + INTRA:         -10.573
REMARK INTER:                 -10.200
REMARK INTRA:                  -0.373
REMARK UNBOUND:                -1.031
REMARK  4 active torsions:
REMARK  status: ('A' for Active; 'I' for Inactive)
REMARK    1  A    between atoms: N_1  and  C_2 
REMARK    2  A    between atoms: C_7  and  C_9 
REMARK       I    between atoms: C_9  and  N_11 
REMARK    3  A    between atoms: N_11  and  C_12 
REMARK    4  A    between atoms: C_24  and  C_25 
ROOT
HETATM    1  C   UNL     1       4.864   6.417  20.477  0.00  0.00     0.153 C 
HETATM    2  C   UNL     1       4.590   5.169  21.296  0.00  0.00    -0.020 A 
HETATM    3  C   UNL     1       4.708   3.841  20.895  0.00  0.00     0.010 A 
HETATM    4  C   UNL     1       4.625   2.840  21.862  0.00  0.00     0.001 A 
HETATM    5  C   UNL     1       4.464   3.175  23.207  0.00  0.00     0.001 A 
HETATM    6  C   UNL     1       4.345   4.513  23.600  0.00  0.00     0.013 A 
HETATM    7  C   UNL     1       4.365   5.526  22.650  0.00  0.00    -0.016 A 
HETATM    8  C   UNL     1       4.245   6.988  22.757  0.00  0.00    -0.003 A 
HETATM    9  C   UNL     1       4.463   7.519  21.444  0.00  0.00    -0.019 A 
HETATM   10  C   UNL     1       4.444   8.879  21.175  0.00  0.00     0.010 A 
HETATM   11  C   UNL     1       4.195   9.747  22.229  0.00  0.00     0.002 A 
HETATM   12  C   UNL     1       3.975   9.252  23.526  0.00  0.00     0.016 A 
HETATM   13  C   UNL     1       3.991   7.867  23.825  0.00  0.00     0.022 A 
ENDROOT
BRANCH   1  14
HETATM   14  N   UNL     1       4.279   6.472  19.150  0.00  0.00    -0.343 N 
HETATM   15  C   UNL     1       2.912   6.255  19.029  0.00  0.00     0.273 C 
HETATM   16  O   UNL     1       2.211   6.150  20.033  0.00  0.00    -0.266 OA
HETATM   17  H   UNL     1       4.860   6.558  18.322  0.00  0.00     0.163 HD
BRANCH  15  18
HETATM   18  C   UNL     1       2.302   6.138  17.657  0.00  0.00     0.150 A 
HETATM   19  C   UNL     1       1.832   7.262  16.988  0.00  0.00     0.086 A 
HETATM   20  C   UNL     1       1.327   7.019  15.734  0.00  0.00     0.146 A 
HETATM   21 CL   UNL     1       1.790   8.885  17.553  0.00  0.00    -0.080 Cl
HETATM   22  N   UNL     1       1.252   5.794  15.180  0.00  0.00    -0.229 NA
HETATM   23  C   UNL     1       1.687   4.768  15.917  0.00  0.00     0.199 A 
HETATM   24  N   UNL     1       2.238   4.876  17.135  0.00  0.00    -0.211 NA
BRANCH  23  25
HETATM   25  N   UNL     1       1.562   3.527  15.340  0.00  0.00    -0.271 NA
HETATM   26  H   UNL     1       0.584   3.318  15.184  0.00  0.00     0.127 HD
HETATM   27  H   UNL     1       2.198   3.396  14.568  0.00  0.00     0.127 HD
ENDBRANCH  23  25
ENDBRANCH  15  18
ENDBRANCH   1  14
BRANCH  13  28
HETATM   28  C   UNL     1       3.724   7.447  25.211  0.00  0.00     0.140 A 
HETATM   29  N   UNL     1       2.552   7.440  25.821  0.00  0.00    -0.227 NA
HETATM   30  C   UNL     1       2.751   6.909  27.071  0.00  0.00     0.103 A 
HETATM   31  C   UNL     1       1.835   6.588  28.076  0.00  0.00     0.150 A 
HETATM   32  C   UNL     1       4.100   6.679  27.292  0.00  0.00     0.065 A 
HETATM   33  N   UNL     1       2.271   6.092  29.265  0.00  0.00    -0.271 NA
HETATM   34  C   UNL     1       3.603   5.922  29.449  0.00  0.00     0.118 A 
HETATM   35  C   UNL     1       4.587   6.189  28.501  0.00  0.00     0.051 A 
HETATM   36  N   UNL     1       4.697   7.025  26.102  0.00  0.00    -0.338 N 
HETATM   37  H   UNL     1       5.679   6.940  25.893  0.00  0.00     0.167 HD
ENDBRANCH  13  28
TORSDOF 4
ENDMDL
MODEL 4
REMARK VINA RESULT:    -7.756      2.401      4.111
REMARK INTER + INTRA:         -10.374
REMARK INTER:                  -9.410
REMARK INTRA:                  -0.965
REMARK UNBOUND:                -1.031
REMARK  4 active torsions:
REMARK  status: ('A' for Active; 'I' for Inactive)
REMARK    1  A    between atoms: N_1  and  C_2 
REMARK    2  A    between atoms: C_7  and  C_9 
REMARK       I    between atoms: C_9  and  N_11 
REMARK    3  A    between atoms: N_11  and  C_12 
REMARK    4  A    between atoms: C_24  and  C_25 
ROOT
HETATM    1  C   UNL     1       1.889   6.947  24.836  0.00  0.00     0.153 C 
HETATM    2  C   UNL     1       1.108   8.057  25.512  0.00  0.00    -0.020 A 
HETATM    3  C   UNL     1       0.382   9.081  24.909  0.00  0.00     0.010 A 
HETATM    4  C   UNL     1      -0.449   9.870  25.704  0.00  0.00     0.001 A 
HETATM    5  C   UNL     1      -0.570   9.609  27.069  0.00  0.00     0.001 A 
HETATM    6  C   UNL     1       0.166   8.578  27.666  0.00  0.00     0.013 A 
HETATM    7  C   UNL     1       1.044   7.815  26.908  0.00  0.00    -0.016 A 
HETATM    8  C   UNL     1       1.945   6.705  27.253  0.00  0.00    -0.003 A 
HETATM    9  C   UNL     1       2.514   6.236  26.025  0.00  0.00    -0.019 A 
HETATM   10  C   UNL     1       3.401   5.171  25.971  0.00  0.00     0.010 A 
HETATM   11  C   UNL     1       3.748   4.553  27.163  0.00  0.00     0.002 A 
HETATM   12  C   UNL     1       3.206   4.995  28.383  0.00  0.00     0.016 A 
HETATM   13  C   UNL     1       2.297   6.078  28.463  0.00  0.00     0.022 A 
ENDROOT
BRANCH   1  14
HETATM   14  N   UNL     1       2.789   7.336  23.766  0.00  0.00    -0.343 N 
HETATM   15  C   UNL     1       3.022   6.424  22.744  0.00  0.00     0.273 C 
HETATM   16  O   UNL     1       2.383   5.376  22.692  0.00  0.00    -0.266 OA
HETATM   17  H   UNL     1       3.317   8.203  23.810  0.00  0.00     0.163 HD
BRANCH  15  18
HETATM   18  C   UNL     1       4.075   6.727  21.710  0.00  0.00     0.150 A 
HETATM   19  C   UNL     1       5.410   6.419  21.942  0.00  0.00     0.086 A 
HETATM   20  C   UNL     1       6.260   6.721  20.906  0.00  0.00     0.146 A 
HETATM   21 CL   UNL     1       6.105   5.741  23.359  0.00  0.00    -0.080 Cl
HETATM   22  N   UNL     1       5.866   7.297  19.755  0.00  0.00    -0.229 NA
HETATM   23  C   UNL     1       4.569   7.597  19.641  0.00  0.00     0.199 A 
HETATM   24  N   UNL     1       3.632   7.319  20.560  0.00  0.00    -0.211 NA
BRANCH  23  25
HETATM   25  N   UNL     1       4.204   8.219  18.471  0.00  0.00    -0.271 NA
HETATM   26  H   UNL     1       3.320   8.697  18.597  0.00  0.00     0.127 HD
HETATM   27  H   UNL     1       4.963   8.740  18.060  0.00  0.00     0.127 HD
ENDBRANCH  23  25
ENDBRANCH  15  18
ENDBRANCH   1  14
BRANCH  13  28
HETATM   28  C   UNL     1       1.805   6.483  29.790  0.00  0.00     0.140 A 
HETATM   29  N   UNL     1       0.944   5.825  30.547  0.00  0.00    -0.227 NA
HETATM   30  C   UNL     1       0.826   6.521  31.724  0.00  0.00     0.103 A 
HETATM   31  C   UNL     1       0.129   6.213  32.894  0.00  0.00     0.150 A 
HETATM   32  C   UNL     1       1.547   7.704  31.662  0.00  0.00     0.065 A 
HETATM   33  N   UNL     1       0.131   7.082  33.940  0.00  0.00    -0.271 NA
HETATM   34  C   UNL     1       0.817   8.243  33.818  0.00  0.00     0.118 A 
HETATM   35  C   UNL     1       1.560   8.626  32.705  0.00  0.00     0.051 A 
HETATM   36  N   UNL     1       2.159   7.658  30.432  0.00  0.00    -0.338 N 
HETATM   37  H   UNL     1       2.802   8.346  30.071  0.00  0.00     0.167 HD
ENDBRANCH  13  28
TORSDOF 4
ENDMDL
MODEL 5
REMARK VINA RESULT:    -7.669      4.480      6.317
REMARK INTER + INTRA:         -10.269
REMARK INTER:                  -9.254
REMARK INTRA:                  -1.016
REMARK UNBOUND:                -1.031
REMARK  4 active torsions:
REMARK  status: ('A' for Active; 'I' for Inactive)
REMARK    1  A    between atoms: N_1  and  C_2 
REMARK    2  A    between atoms: C_7  and  C_9 
REMARK       I    between atoms: C_9  and  N_11 
REMARK    3  A    between atoms: N_11  and  C_12 
REMARK    4  A    between atoms: C_24  and  C_25 
ROOT
HETATM    1  C   UNL     1       2.122   9.244  25.547  0.00  0.00     0.153 C 
HETATM    2  C   UNL     1       3.060   8.346  24.763  0.00  0.00    -0.020 A 
HETATM    3  C   UNL     1       3.443   8.465  23.430  0.00  0.00     0.010 A 
HETATM    4  C   UNL     1       4.486   7.669  22.959  0.00  0.00     0.001 A 
HETATM    5  C   UNL     1       5.151   6.799  23.824  0.00  0.00     0.001 A 
HETATM    6  C   UNL     1       4.757   6.684  25.163  0.00  0.00     0.013 A 
HETATM    7  C   UNL     1       3.683   7.423  25.641  0.00  0.00    -0.016 A 
HETATM    8  C   UNL     1       3.041   7.497  26.963  0.00  0.00    -0.003 A 
HETATM    9  C   UNL     1       2.051   8.529  26.886  0.00  0.00    -0.019 A 
HETATM   10  C   UNL     1       1.261   8.890  27.967  0.00  0.00     0.010 A 
HETATM   11  C   UNL     1       1.443   8.207  29.162  0.00  0.00     0.002 A 
HETATM   12  C   UNL     1       2.405   7.187  29.263  0.00  0.00     0.016 A 
HETATM   13  C   UNL     1       3.225   6.803  28.173  0.00  0.00     0.022 A 
ENDROOT
BRANCH   1  14
HETATM   14  N   UNL     1       0.856   9.575  24.920  0.00  0.00    -0.343 N 
HETATM   15  C   UNL     1       0.647  10.890  24.523  0.00  0.00     0.273 C 
HETATM   16  O   UNL     1       1.562  11.708  24.589  0.00  0.00    -0.266 OA
HETATM   17  H   UNL     1       0.101   8.897  24.866  0.00  0.00     0.163 HD
BRANCH  15  18
HETATM   18  C   UNL     1      -0.713  11.304  24.025  0.00  0.00     0.150 A 
HETATM   19  C   UNL     1      -1.845  11.115  24.807  0.00  0.00     0.086 A 
HETATM   20  C   UNL     1      -3.016  11.564  24.246  0.00  0.00     0.146 A 
HETATM   21 CL   UNL     1      -1.948  10.374  26.354  0.00  0.00    -0.080 Cl
HETATM   22  N   UNL     1      -3.096  12.122  23.023  0.00  0.00    -0.229 NA
HETATM   23  C   UNL     1      -1.960  12.221  22.327  0.00  0.00     0.199 A 
HETATM   24  N   UNL     1      -0.750  11.859  22.776  0.00  0.00    -0.211 NA
BRANCH  23  25
HETATM   25  N   UNL     1      -2.081  12.759  21.067  0.00  0.00    -0.271 NA
HETATM   26  H   UNL     1      -2.989  12.530  20.682  0.00  0.00     0.127 HD
HETATM   27  H   UNL     1      -1.787  13.723  21.032  0.00  0.00     0.127 HD
ENDBRANCH  23  25
ENDBRANCH  15  18
ENDBRANCH   1  14
BRANCH  13  28
HETATM   28  C   UNL     1       4.186   5.706  28.373  0.00  0.00     0.140 A 
HETATM   29  N   UNL     1       4.091   4.477  27.897  0.00  0.00    -0.227 NA
HETATM   30  C   UNL     1       5.234   3.811  28.264  0.00  0.00     0.103 A 
HETATM   31  C   UNL     1       5.681   2.529  27.937  0.00  0.00     0.150 A 
HETATM   32  C   UNL     1       6.018   4.609  29.084  0.00  0.00     0.065 A 
HETATM   33  N   UNL     1       6.851   2.062  28.449  0.00  0.00    -0.271 NA
HETATM   34  C   UNL     1       7.563   2.863  29.278  0.00  0.00     0.118 A 
HETATM   35  C   UNL     1       7.212   4.160  29.641  0.00  0.00     0.051 A 
HETATM   36  N   UNL     1       5.337   5.802  29.138  0.00  0.00    -0.338 N 
HETATM   37  H   UNL     1       5.647   6.633  29.618  0.00  0.00     0.167 HD
ENDBRANCH  13  28
TORSDOF 4
ENDMDL
MODEL 6
REMARK VINA RESULT:    -7.665      4.553      8.586
REMARK INTER + INTRA:         -10.264
REMARK INTER:                  -9.399
REMARK INTRA:                  -0.865
REMARK UNBOUND:                -1.031
REMARK  4 active torsions:
REMARK  status: ('A' for Active; 'I' for Inactive)
REMARK    1  A    between atoms: N_1  and  C_2 
REMARK    2  A    between atoms: C_7  and  C_9 
REMARK       I    between atoms: C_9  and  N_11 
REMARK    3  A    between atoms: N_11  and  C_12 
REMARK    4  A    between atoms: C_24  and  C_25 
ROOT
HETATM    1  C   UNL     1       3.608   6.538  27.383  0.00  0.00     0.153 C 
HETATM    2  C   UNL     1       3.754   7.021  25.953  0.00  0.00    -0.020 A 
HETATM    3  C   UNL     1       4.672   6.597  24.997  0.00  0.00     0.010 A 
HETATM    4  C   UNL     1       4.499   7.006  23.675  0.00  0.00     0.001 A 
HETATM    5  C   UNL     1       3.404   7.795  23.321  0.00  0.00     0.001 A 
HETATM    6  C   UNL     1       2.486   8.218  24.291  0.00  0.00     0.013 A 
HETATM    7  C   UNL     1       2.669   7.873  25.623  0.00  0.00    -0.016 A 
HETATM    8  C   UNL     1       1.902   8.180  26.840  0.00  0.00    -0.003 A 
HETATM    9  C   UNL     1       2.510   7.446  27.910  0.00  0.00    -0.019 A 
HETATM   10  C   UNL     1       2.028   7.482  29.210  0.00  0.00     0.010 A 
HETATM   11  C   UNL     1       0.917   8.272  29.470  0.00  0.00     0.002 A 
HETATM   12  C   UNL     1       0.303   9.005  28.439  0.00  0.00     0.016 A 
HETATM   13  C   UNL     1       0.776   8.982  27.104  0.00  0.00     0.022 A 
ENDROOT
BRANCH   1  14
HETATM   14  N   UNL     1       4.821   6.457  28.175  0.00  0.00    -0.343 N 
HETATM   15  C   UNL     1       4.990   5.354  29.001  0.00  0.00     0.273 C 
HETATM   16  O   UNL     1       4.192   4.420  28.958  0.00  0.00    -0.266 OA
HETATM   17  H   UNL     1       5.479   7.230  28.210  0.00  0.00     0.163 HD
BRANCH  15  18
HETATM   18  C   UNL     1       6.152   5.320  29.960  0.00  0.00     0.150 A 
HETATM   19  C   UNL     1       7.207   4.435  29.768  0.00  0.00     0.086 A 
HETATM   20  C   UNL     1       8.214   4.528  30.698  0.00  0.00     0.146 A 
HETATM   21 CL   UNL     1       7.376   3.246  28.540  0.00  0.00    -0.080 Cl
HETATM   22  N   UNL     1       8.196   5.379  31.741  0.00  0.00    -0.229 NA
HETATM   23  C   UNL     1       7.119   6.160  31.867  0.00  0.00     0.199 A 
HETATM   24  N   UNL     1       6.090   6.195  31.008  0.00  0.00    -0.211 NA
BRANCH  23  25
HETATM   25  N   UNL     1       7.113   6.990  32.963  0.00  0.00    -0.271 NA
HETATM   26  H   UNL     1       6.180   7.038  33.352  0.00  0.00     0.127 HD
HETATM   27  H   UNL     1       7.875   6.798  33.595  0.00  0.00     0.127 HD
ENDBRANCH  23  25
ENDBRANCH  15  18
ENDBRANCH   1  14
BRANCH  13  28
HETATM   28  C   UNL     1       0.079   9.805  26.101  0.00  0.00     0.140 A 
HETATM   29  N   UNL     1      -1.184   9.694  25.730  0.00  0.00    -0.227 NA
HETATM   30  C   UNL     1      -1.431  10.701  24.830  0.00  0.00     0.103 A 
HETATM   31  C   UNL     1      -2.620  11.094  24.212  0.00  0.00     0.150 A 
HETATM   32  C   UNL     1      -0.264  11.394  24.547  0.00  0.00     0.065 A 
HETATM   33  N   UNL     1      -2.619  12.118  23.317  0.00  0.00    -0.271 NA
HETATM   34  C   UNL     1      -1.447  12.740  23.043  0.00  0.00     0.118 A 
HETATM   35  C   UNL     1      -0.220  12.437  23.625  0.00  0.00     0.051 A 
HETATM   36  N   UNL     1       0.678  10.812  25.362  0.00  0.00    -0.338 N 
HETATM   37  H   UNL     1       1.640  11.101  25.446  0.00  0.00     0.167 HD
ENDBRANCH  13  28
TORSDOF 4
ENDMDL
MODEL 7
REMARK VINA RESULT:    -7.463      4.984      9.535
REMARK INTER + INTRA:         -10.021
REMARK INTER:                  -9.017
REMARK INTRA:                  -1.004
REMARK UNBOUND:                -1.031
REMARK  4 active torsions:
REMARK  status: ('A' for Active; 'I' for Inactive)
REMARK    1  A    between atoms: N_1  and  C_2 
REMARK    2  A    between atoms: C_7  and  C_9 
REMARK       I    between atoms: C_9  and  N_11 
REMARK    3  A    between atoms: N_11  and  C_12 
REMARK    4  A    between atoms: C_24  and  C_25 
ROOT
HETATM    1  C   UNL     1       1.651   7.183  28.265  0.00  0.00     0.153 C 
HETATM    2  C   UNL     1       2.210   7.409  26.873  0.00  0.00    -0.020 A 
HETATM    3  C   UNL     1       3.210   6.688  26.226  0.00  0.00     0.010 A 
HETATM    4  C   UNL     1       3.425   6.914  24.867  0.00  0.00     0.001 A 
HETATM    5  C   UNL     1       2.626   7.822  24.171  0.00  0.00     0.001 A 
HETATM    6  C   UNL     1       1.624   8.544  24.831  0.00  0.00     0.013 A 
HETATM    7  C   UNL     1       1.429   8.379  26.196  0.00  0.00    -0.016 A 
HETATM    8  C   UNL     1       0.490   9.000  27.144  0.00  0.00    -0.003 A 
HETATM    9  C   UNL     1       0.677   8.341  28.403  0.00  0.00    -0.019 A 
HETATM   10  C   UNL     1      -0.064   8.659  29.531  0.00  0.00     0.010 A 
HETATM   11  C   UNL     1      -1.016   9.664  29.421  0.00  0.00     0.002 A 
HETATM   12  C   UNL     1      -1.217  10.328  28.199  0.00  0.00     0.016 A 
HETATM   13  C   UNL     1      -0.473  10.019  27.033  0.00  0.00     0.022 A 
ENDROOT
BRANCH   1  14
HETATM   14  N   UNL     1       2.612   7.010  29.338  0.00  0.00    -0.343 N 
HETATM   15  C   UNL     1       2.434   5.944  30.210  0.00  0.00     0.273 C 
HETATM   16  O   UNL     1       1.560   5.107  29.994  0.00  0.00    -0.266 OA
HETATM   17  H   UNL     1       3.334   7.703  29.516  0.00  0.00     0.163 HD
BRANCH  15  18
HETATM   18  C   UNL     1       3.311   5.833  31.430  0.00  0.00     0.150 A 
HETATM   19  C   UNL     1       2.773   5.943  32.706  0.00  0.00     0.086 A 
HETATM   20  C   UNL     1       3.678   5.793  33.729  0.00  0.00     0.146 A 
HETATM   21 CL   UNL     1       1.141   6.264  33.139  0.00  0.00    -0.080 Cl
HETATM   22  N   UNL     1       4.994   5.585  33.542  0.00  0.00    -0.229 NA
HETATM   23  C   UNL     1       5.427   5.538  32.278  0.00  0.00     0.199 A 
HETATM   24  N   UNL     1       4.642   5.629  31.194  0.00  0.00    -0.211 NA
BRANCH  23  25
HETATM   25  N   UNL     1       6.781   5.363  32.120  0.00  0.00    -0.271 NA
HETATM   26  H   UNL     1       7.263   5.632  32.969  0.00  0.00     0.127 HD
HETATM   27  H   UNL     1       7.007   4.467  31.716  0.00  0.00     0.127 HD
ENDBRANCH  23  25
ENDBRANCH  15  18
ENDBRANCH   1  14
BRANCH  13  28
HETATM   28  C   UNL     1      -0.741  10.789  25.807  0.00  0.00     0.140 A 
HETATM   29  N   UNL     1       0.073  11.650  25.223  0.00  0.00    -0.227 NA
HETATM   30  C   UNL     1      -0.547  12.078  24.075  0.00  0.00     0.103 A 
HETATM   31  C   UNL     1      -0.086  12.907  23.051  0.00  0.00     0.150 A 
HETATM   32  C   UNL     1      -1.829  11.556  23.994  0.00  0.00     0.065 A 
HETATM   33  N   UNL     1      -0.901  13.224  22.009  0.00  0.00    -0.271 NA
HETATM   34  C   UNL     1      -2.159  12.722  21.992  0.00  0.00     0.118 A 
HETATM   35  C   UNL     1      -2.698  11.871  22.952  0.00  0.00     0.051 A 
HETATM   36  N   UNL     1      -1.930  10.743  25.098  0.00  0.00    -0.338 N 
HETATM   37  H   UNL     1      -2.724  10.167  25.331  0.00  0.00     0.167 HD
ENDBRANCH  13  28
TORSDOF 4
ENDMDL
MODEL 8
REMARK VINA RESULT:    -7.380      3.693      9.532
REMARK INTER + INTRA:          -9.921
REMARK INTER:                  -8.890
REMARK INTRA:                  -1.031
REMARK UNBOUND:                -1.031
REMARK  4 active torsions:
REMARK  status: ('A' for Active; 'I' for Inactive)
REMARK    1  A    between atoms: N_1  and  C_2 
REMARK    2  A    between atoms: C_7  and  C_9 
REMARK       I    between atoms: C_9  and  N_11 
REMARK    3  A    between atoms: N_11  and  C_12 
REMARK    4  A    between atoms: C_24  and  C_25 
ROOT
HETATM    1  C   UNL     1       2.788   5.687  27.490  0.00  0.00     0.153 C 
HETATM    2  C   UNL     1       3.919   5.035  26.719  0.00  0.00    -0.020 A 
HETATM    3  C   UNL     1       4.706   3.954  27.106  0.00  0.00     0.010 A 
HETATM    4  C   UNL     1       5.545   3.364  26.162  0.00  0.00     0.001 A 
HETATM    5  C   UNL     1       5.562   3.832  24.847  0.00  0.00     0.001 A 
HETATM    6  C   UNL     1       4.769   4.921  24.468  0.00  0.00     0.013 A 
HETATM    7  C   UNL     1       3.968   5.563  25.404  0.00  0.00    -0.016 A 
HETATM    8  C   UNL     1       3.063   6.719  25.307  0.00  0.00    -0.003 A 
HETATM    9  C   UNL     1       2.416   6.845  26.579  0.00  0.00    -0.019 A 
HETATM   10  C   UNL     1       1.470   7.825  26.843  0.00  0.00     0.010 A 
HETATM   11  C   UNL     1       1.157   8.716  25.827  0.00  0.00     0.002 A 
HETATM   12  C   UNL     1       1.780   8.617  24.570  0.00  0.00     0.016 A 
HETATM   13  C   UNL     1       2.747   7.623  24.277  0.00  0.00     0.022 A 
ENDROOT
BRANCH   1  14
HETATM   14  N   UNL     1       3.045   6.011  28.881  0.00  0.00    -0.343 N 
HETATM   15  C   UNL     1       2.077   5.674  29.819  0.00  0.00     0.273 C 
HETATM   16  O   UNL     1       1.099   5.009  29.488  0.00  0.00    -0.266 OA
HETATM   17  H   UNL     1       3.854   6.561  29.154  0.00  0.00     0.163 HD
BRANCH  15  18
HETATM   18  C   UNL     1       2.234   6.144  31.243  0.00  0.00     0.150 A 
HETATM   19  C   UNL     1       2.965   5.401  32.161  0.00  0.00     0.086 A 
HETATM   20  C   UNL     1       3.052   5.957  33.414  0.00  0.00     0.146 A 
HETATM   21 CL   UNL     1       3.734   3.884  31.918  0.00  0.00    -0.080 Cl
HETATM   22  N   UNL     1       2.462   7.115  33.764  0.00  0.00    -0.229 NA
HETATM   23  C   UNL     1       1.742   7.736  32.825  0.00  0.00     0.199 A 
HETATM   24  N   UNL     1       1.612   7.321  31.557  0.00  0.00    -0.211 NA
BRANCH  23  25
HETATM   25  N   UNL     1       1.120   8.896  33.223  0.00  0.00    -0.271 NA
HETATM   26  H   UNL     1       0.353   9.106  32.598  0.00  0.00     0.127 HD
HETATM   27  H   UNL     1       0.935   8.911  34.214  0.00  0.00     0.127 HD
ENDBRANCH  23  25
ENDBRANCH  15  18
ENDBRANCH   1  14
BRANCH  13  28
HETATM   28  C   UNL     1       3.361   7.617  22.939  0.00  0.00     0.140 A 
HETATM   29  N   UNL     1       4.284   8.449  22.491  0.00  0.00    -0.227 NA
HETATM   30  C   UNL     1       4.619   8.039  21.225  0.00  0.00     0.103 A 
HETATM   31  C   UNL     1       5.604   8.504  20.351  0.00  0.00     0.150 A 
HETATM   32  C   UNL     1       3.807   6.988  20.825  0.00  0.00     0.065 A 
HETATM   33  N   UNL     1       5.735   7.956  19.114  0.00  0.00    -0.271 NA
HETATM   34  C   UNL     1       4.892   6.958  18.753  0.00  0.00     0.118 A 
HETATM   35  C   UNL     1       3.899   6.412  19.561  0.00  0.00     0.051 A 
HETATM   36  N   UNL     1       3.020   6.737  21.924  0.00  0.00    -0.338 N 
HETATM   37  H   UNL     1       2.337   6.000  22.001  0.00  0.00     0.167 HD
ENDBRANCH  13  28
TORSDOF 4
ENDMDL
MODEL 9
REMARK VINA RESULT:    -7.376      6.000      9.448
REMARK INTER + INTRA:          -9.916
REMARK INTER:                  -8.793
REMARK INTRA:                  -1.123
REMARK UNBOUND:                -1.031
REMARK  4 active torsions:
REMARK  status: ('A' for Active; 'I' for Inactive)
REMARK    1  A    between atoms: N_1  and  C_2 
REMARK    2  A    between atoms: C_7  and  C_9 
REMARK       I    between atoms: C_9  and  N_11 
REMARK    3  A    between atoms: N_11  and  C_12 
REMARK    4  A    between atoms: C_24  and  C_25 
ROOT
HETATM    1  C   UNL     1      -0.235   2.883  16.269  0.00  0.00     0.153 C 
HETATM    2  C   UNL     1       0.090   2.451  17.687  0.00  0.00    -0.020 A 
HETATM    3  C   UNL     1      -0.327   1.299  18.346  0.00  0.00     0.010 A 
HETATM    4  C   UNL     1       0.262   0.976  19.568  0.00  0.00     0.001 A 
HETATM    5  C   UNL     1       1.273   1.780  20.095  0.00  0.00     0.001 A 
HETATM    6  C   UNL     1       1.685   2.939  19.425  0.00  0.00     0.013 A 
HETATM    7  C   UNL     1       1.074   3.313  18.235  0.00  0.00    -0.016 A 
HETATM    8  C   UNL     1       1.274   4.461  17.337  0.00  0.00    -0.003 A 
HETATM    9  C   UNL     1       0.432   4.247  16.197  0.00  0.00    -0.019 A 
HETATM   10  C   UNL     1       0.382   5.128  15.128  0.00  0.00     0.010 A 
HETATM   11  C   UNL     1       1.179   6.264  15.184  0.00  0.00     0.002 A 
HETATM   12  C   UNL     1       2.011   6.499  16.292  0.00  0.00     0.016 A 
HETATM   13  C   UNL     1       2.081   5.612  17.394  0.00  0.00     0.022 A 
ENDROOT
BRANCH   1  14
HETATM   14  N   UNL     1      -1.628   2.819  15.868  0.00  0.00    -0.343 N 
HETATM   15  C   UNL     1      -1.940   2.138  14.698  0.00  0.00     0.273 C 
HETATM   16  O   UNL     1      -1.072   1.506  14.100  0.00  0.00    -0.266 OA
HETATM   17  H   UNL     1      -2.344   3.342  16.363  0.00  0.00     0.163 HD
BRANCH  15  18
HETATM   18  C   UNL     1      -3.347   2.194  14.164  0.00  0.00     0.150 A 
HETATM   19  C   UNL     1      -3.769   3.260  13.379  0.00  0.00     0.086 A 
HETATM   20  C   UNL     1      -5.065   3.172  12.934  0.00  0.00     0.146 A 
HETATM   21 CL   UNL     1      -2.877   4.660  12.934  0.00  0.00    -0.080 Cl
HETATM   22  N   UNL     1      -5.897   2.158  13.240  0.00  0.00    -0.229 NA
HETATM   23  C   UNL     1      -5.416   1.200  14.038  0.00  0.00     0.199 A 
HETATM   24  N   UNL     1      -4.160   1.148  14.505  0.00  0.00    -0.211 NA
BRANCH  23  25
HETATM   25  N   UNL     1      -6.300   0.199  14.364  0.00  0.00    -0.271 NA
HETATM   26  H   UNL     1      -6.266  -0.530  13.663  0.00  0.00     0.127 HD
HETATM   27  H   UNL     1      -6.228  -0.076  15.331  0.00  0.00     0.127 HD
ENDBRANCH  23  25
ENDBRANCH  15  18
ENDBRANCH   1  14
BRANCH  13  28
HETATM   28  C   UNL     1       2.965   5.961  18.519  0.00  0.00     0.140 A 
HETATM   29  N   UNL     1       4.264   5.734  18.600  0.00  0.00    -0.227 NA
HETATM   30  C   UNL     1       4.697   6.284  19.781  0.00  0.00     0.103 A 
HETATM   31  C   UNL     1       5.986   6.412  20.304  0.00  0.00     0.150 A 
HETATM   32  C   UNL     1       3.623   6.772  20.511  0.00  0.00     0.065 A 
HETATM   33  N   UNL     1       6.175   6.974  21.527  0.00  0.00    -0.271 NA
HETATM   34  C   UNL     1       5.091   7.401  22.220  0.00  0.00     0.118 A 
HETATM   35  C   UNL     1       3.775   7.339  21.774  0.00  0.00     0.051 A 
HETATM   36  N   UNL     1       2.539   6.559  19.693  0.00  0.00    -0.338 N 
HETATM   37  H   UNL     1       1.590   6.836  19.893  0.00  0.00     0.167 HD
ENDBRANCH  13  28
TORSDOF 4
ENDMDL
