MODEL 1
REMARK VINA RESULT:    -7.339      0.000      0.000
REMARK INTER + INTRA:          -9.837
REMARK INTER:                  -8.642
REMARK INTRA:                  -1.195
REMARK UNBOUND:                -1.211
REMARK  4 active torsions:
REMARK  status: ('A' for Active; 'I' for Inactive)
REMARK    1  A    between atoms: C_7  and  N_8 
REMARK    2  A    between atoms: C_14  and  C_15 
REMARK    3  A    between atoms: C_18  and  O_19 
REMARK    4  A    between atoms: C_21  and  O_22 
ROOT
HETATM    1  N   UNL     1       5.548   6.539  20.023  0.00  0.00    -0.244 N 
HETATM    2  C   UNL     1       6.739   7.113  20.421  0.00  0.00     0.349 A 
HETATM    3  O   UNL     1       7.460   6.841  21.367  0.00  0.00    -0.245 OA
HETATM    4  N   UNL     1       6.995   8.110  19.490  0.00  0.00    -0.226 N 
HETATM    5  H   UNL     1       7.787   8.736  19.490  0.00  0.00     0.194 HD
HETATM    6  N   UNL     1       5.970   8.223  18.610  0.00  0.00    -0.151 NA
HETATM    7  C   UNL     1       5.117   7.288  18.945  0.00  0.00     0.171 A 
ENDROOT
BRANCH   7   8
HETATM    8  C   UNL     1       3.782   7.187  18.273  0.00  0.00     0.045 A 
HETATM    9  C   UNL     1       3.389   6.035  17.574  0.00  0.00     0.021 A 
HETATM   10  C   UNL     1       2.083   5.895  17.077  0.00  0.00     0.037 A 
HETATM   11  C   UNL     1       1.148   6.893  17.315  0.00  0.00     0.068 A 
HETATM   12  C   UNL     1       1.497   8.036  18.019  0.00  0.00     0.074 A 
HETATM   13  C   UNL     1       2.812   8.192  18.473  0.00  0.00     0.082 A 
BRANCH  11  14
HETATM   14  O   UNL     1      -0.137   6.795  16.872  0.00  0.00    -0.361 OA
HETATM   15  H   UNL     1      -0.589   6.094  17.370  0.00  0.00     0.217 HD
ENDBRANCH  11  14
BRANCH  13  16
HETATM   16  O   UNL     1       3.132   9.369  19.097  0.00  0.00    -0.360 OA
HETATM   17  H   UNL     1       3.952   9.727  18.722  0.00  0.00     0.217 HD
ENDBRANCH  13  16
ENDBRANCH   7   8
BRANCH   1  18
HETATM   18  C   UNL     1       4.947   5.474  20.716  0.00  0.00     0.051 A 
HETATM   19  C   UNL     1       4.174   5.671  21.877  0.00  0.00    -0.035 A 
HETATM   20  C   UNL     1       3.630   7.023  22.248  0.00  0.00     0.050 C 
HETATM   21  C   UNL     1       3.723   4.546  22.588  0.00  0.00     0.009 A 
HETATM   22  C   UNL     1       3.984   3.253  22.130  0.00  0.00     0.001 A 
HETATM   23  C   UNL     1       4.652   3.067  20.925  0.00  0.00     0.002 A 
HETATM   24  C   UNL     1       5.125   4.171  20.218  0.00  0.00     0.031 A 
ENDBRANCH   1  18
TORSDOF 4
ENDMDL
MODEL 2
REMARK VINA RESULT:    -7.214      7.165      8.624
REMARK INTER + INTRA:          -9.690
REMARK INTER:                  -8.794
REMARK INTRA:                  -0.896
REMARK UNBOUND:                -1.211
REMARK  4 active torsions:
REMARK  status: ('A' for Active; 'I' for Inactive)
REMARK    1  A    between atoms: C_7  and  N_8 
REMARK    2  A    between atoms: C_14  and  C_15 
REMARK    3  A    between atoms: C_18  and  O_19 
REMARK    4  A    between atoms: C_21  and  O_22 
ROOT
HETATM    1  N   UNL     1       0.104   9.976  26.482  0.00  0.00    -0.244 N 
HETATM    2  C   UNL     1      -0.117   9.575  27.784  0.00  0.00     0.349 A 
HETATM    3  O   UNL     1       0.356   8.637  28.405  0.00  0.00    -0.245 OA
HETATM    4  N   UNL     1      -1.020  10.492  28.302  0.00  0.00    -0.226 N 
HETATM    5  H   UNL     1      -1.407  10.488  29.234  0.00  0.00     0.194 HD
HETATM    6  N   UNL     1      -1.422  11.365  27.346  0.00  0.00    -0.151 NA
HETATM    7  C   UNL     1      -0.751  11.040  26.271  0.00  0.00     0.171 A 
ENDROOT
BRANCH   7   8
HETATM    8  C   UNL     1      -1.028  11.706  24.958  0.00  0.00     0.045 A 
HETATM    9  C   UNL     1      -0.022  12.360  24.230  0.00  0.00     0.021 A 
HETATM   10  C   UNL     1      -0.260  12.850  22.936  0.00  0.00     0.037 A 
HETATM   11  C   UNL     1      -1.500  12.650  22.344  0.00  0.00     0.068 A 
HETATM   12  C   UNL     1      -2.511  11.990  23.027  0.00  0.00     0.074 A 
HETATM   13  C   UNL     1      -2.284  11.545  24.335  0.00  0.00     0.082 A 
BRANCH  11  14
HETATM   14  O   UNL     1      -1.774  13.088  21.084  0.00  0.00    -0.361 OA
HETATM   15  H   UNL     1      -2.311  13.896  21.141  0.00  0.00     0.217 HD
ENDBRANCH  11  14
BRANCH  13  16
HETATM   16  O   UNL     1      -3.333  10.966  24.998  0.00  0.00    -0.360 OA
HETATM   17  H   UNL     1      -3.646  11.561  25.699  0.00  0.00     0.217 HD
ENDBRANCH  13  16
ENDBRANCH   7   8
BRANCH   1  18
HETATM   18  C   UNL     1       0.976   9.295  25.613  0.00  0.00     0.051 A 
HETATM   19  C   UNL     1       0.679   8.019  25.096  0.00  0.00    -0.035 A 
HETATM   20  C   UNL     1      -0.714   7.455  25.125  0.00  0.00     0.050 C 
HETATM   21  C   UNL     1       1.661   7.349  24.347  0.00  0.00     0.009 A 
HETATM   22  C   UNL     1       2.889   7.951  24.068  0.00  0.00     0.001 A 
HETATM   23  C   UNL     1       3.133   9.253  24.488  0.00  0.00     0.002 A 
HETATM   24  C   UNL     1       2.179   9.925  25.250  0.00  0.00     0.031 A 
ENDBRANCH   1  18
TORSDOF 4
ENDMDL
MODEL 3
REMARK VINA RESULT:    -6.859      2.119      4.814
REMARK INTER + INTRA:          -9.272
REMARK INTER:                  -8.357
REMARK INTRA:                  -0.915
REMARK UNBOUND:                -1.211
REMARK  4 active torsions:
REMARK  status: ('A' for Active; 'I' for Inactive)
REMARK    1  A    between atoms: C_7  and  N_8 
REMARK    2  A    between atoms: C_14  and  C_15 
REMARK    3  A    between atoms: C_18  and  O_19 
REMARK    4  A    between atoms: C_21  and  O_22 
ROOT
HETATM    1  N   UNL     1       5.282   7.460  19.683  0.00  0.00    -0.244 N 
HETATM    2  C   UNL     1       6.475   8.065  19.337  0.00  0.00     0.349 A 
HETATM    3  O   UNL     1       6.753   8.744  18.362  0.00  0.00    -0.245 OA
HETATM    4  N   UNL     1       7.354   7.756  20.365  0.00  0.00    -0.226 N 
HETATM    5  H   UNL     1       8.323   8.033  20.424  0.00  0.00     0.194 HD
HETATM    6  N   UNL     1       6.775   6.918  21.259  0.00  0.00    -0.151 NA
HETATM    7  C   UNL     1       5.548   6.749  20.836  0.00  0.00     0.171 A 
ENDROOT
BRANCH   7   8
HETATM    8  C   UNL     1       4.630   5.770  21.504  0.00  0.00     0.045 A 
HETATM    9  C   UNL     1       4.873   4.388  21.477  0.00  0.00     0.021 A 
HETATM   10  C   UNL     1       4.091   3.497  22.229  0.00  0.00     0.037 A 
HETATM   11  C   UNL     1       3.086   3.990  23.049  0.00  0.00     0.068 A 
HETATM   12  C   UNL     1       2.832   5.352  23.115  0.00  0.00     0.074 A 
HETATM   13  C   UNL     1       3.583   6.233  22.328  0.00  0.00     0.082 A 
BRANCH  11  14
HETATM   14  O   UNL     1       2.313   3.168  23.814  0.00  0.00    -0.361 OA
HETATM   15  H   UNL     1       1.404   3.510  23.823  0.00  0.00     0.217 HD
ENDBRANCH  11  14
BRANCH  13  16
HETATM   16  O   UNL     1       3.248   7.561  22.368  0.00  0.00    -0.360 OA
HETATM   17  H   UNL     1       3.262   7.929  21.470  0.00  0.00     0.217 HD
ENDBRANCH  13  16
ENDBRANCH   7   8
BRANCH   1  18
HETATM   18  C   UNL     1       4.126   7.546  18.886  0.00  0.00     0.051 A 
HETATM   19  C   UNL     1       3.789   6.560  17.940  0.00  0.00    -0.035 A 
HETATM   20  C   UNL     1       4.413   5.192  17.962  0.00  0.00     0.050 C 
HETATM   21  C   UNL     1       2.694   6.787  17.089  0.00  0.00     0.009 A 
HETATM   22  C   UNL     1       1.914   7.939  17.210  0.00  0.00     0.001 A 
HETATM   23  C   UNL     1       2.187   8.855  18.219  0.00  0.00     0.002 A 
HETATM   24  C   UNL     1       3.282   8.657  19.057  0.00  0.00     0.031 A 
ENDBRANCH   1  18
TORSDOF 4
ENDMDL
MODEL 4
REMARK VINA RESULT:    -6.757      7.111      9.434
REMARK INTER + INTRA:          -9.152
REMARK INTER:                  -8.042
REMARK INTRA:                  -1.110
REMARK UNBOUND:                -1.211
REMARK  4 active torsions:
REMARK  status: ('A' for Active; 'I' for Inactive)
REMARK    1  A    between atoms: C_7  and  N_8 
REMARK    2  A    between atoms: C_14  and  C_15 
REMARK    3  A    between atoms: C_18  and  O_19 
REMARK    4  A    between atoms: C_21  and  O_22 
ROOT
HETATM    1  N   UNL     1      -0.478  10.647  26.526  0.00  0.00    -0.244 N 
HETATM    2  C   UNL     1      -0.986  10.916  27.781  0.00  0.00     0.349 A 
HETATM    3  O   UNL     1      -1.585  11.899  28.188  0.00  0.00    -0.245 OA
HETATM    4  N   UNL     1      -0.689   9.798  28.546  0.00  0.00    -0.226 N 
HETATM    5  H   UNL     1      -0.910   9.666  29.521  0.00  0.00     0.194 HD
HETATM    6  N   UNL     1       0.055   8.913  27.836  0.00  0.00    -0.151 NA
HETATM    7  C   UNL     1       0.176   9.436  26.643  0.00  0.00     0.171 A 
ENDROOT
BRANCH   7   8
HETATM    8  C   UNL     1       1.053   8.800  25.608  0.00  0.00     0.045 A 
HETATM    9  C   UNL     1       2.259   9.388  25.195  0.00  0.00     0.021 A 
HETATM   10  C   UNL     1       3.142   8.712  24.338  0.00  0.00     0.037 A 
HETATM   11  C   UNL     1       2.842   7.422  23.922  0.00  0.00     0.068 A 
HETATM   12  C   UNL     1       1.669   6.804  24.327  0.00  0.00     0.074 A 
HETATM   13  C   UNL     1       0.769   7.498  25.144  0.00  0.00     0.082 A 
BRANCH  11  14
HETATM   14  O   UNL     1       3.676   6.717  23.107  0.00  0.00    -0.361 OA
HETATM   15  H   UNL     1       3.864   7.247  22.314  0.00  0.00     0.217 HD
ENDBRANCH  11  14
BRANCH  13  16
HETATM   16  O   UNL     1      -0.411   6.878  25.458  0.00  0.00    -0.360 OA
HETATM   17  H   UNL     1      -0.567   6.141  24.846  0.00  0.00     0.217 HD
ENDBRANCH  13  16
ENDBRANCH   7   8
BRANCH   1  18
HETATM   18  C   UNL     1      -0.584  11.548  25.452  0.00  0.00     0.051 A 
HETATM   19  C   UNL     1      -1.603  11.451  24.485  0.00  0.00    -0.035 A 
HETATM   20  C   UNL     1      -2.843  10.634  24.719  0.00  0.00     0.050 C 
HETATM   21  C   UNL     1      -1.559  12.305  23.370  0.00  0.00     0.009 A 
HETATM   22  C   UNL     1      -0.560  13.272  23.241  0.00  0.00     0.001 A 
HETATM   23  C   UNL     1       0.378  13.435  24.253  0.00  0.00     0.002 A 
HETATM   24  C   UNL     1       0.363  12.583  25.356  0.00  0.00     0.031 A 
ENDBRANCH   1  18
TORSDOF 4
ENDMDL
MODEL 5
REMARK VINA RESULT:    -6.454      7.696      9.967
REMARK INTER + INTRA:          -8.797
REMARK INTER:                  -8.346
REMARK INTRA:                  -0.451
REMARK UNBOUND:                -1.211
REMARK  4 active torsions:
REMARK  status: ('A' for Active; 'I' for Inactive)
REMARK    1  A    between atoms: C_7  and  N_8 
REMARK    2  A    between atoms: C_14  and  C_15 
REMARK    3  A    between atoms: C_18  and  O_19 
REMARK    4  A    between atoms: C_21  and  O_22 
ROOT
HETATM    1  N   UNL     1      -0.644  10.925  24.591  0.00  0.00    -0.244 N 
HETATM    2  C   UNL     1      -1.385  11.565  23.619  0.00  0.00     0.349 A 
HETATM    3  O   UNL     1      -1.020  12.104  22.586  0.00  0.00    -0.245 OA
HETATM    4  N   UNL     1      -2.703  11.474  24.041  0.00  0.00    -0.226 N 
HETATM    5  H   UNL     1      -3.509  11.851  23.566  0.00  0.00     0.194 HD
HETATM    6  N   UNL     1      -2.778  10.893  25.264  0.00  0.00    -0.151 NA
HETATM    7  C   UNL     1      -1.546  10.580  25.578  0.00  0.00     0.171 A 
ENDROOT
BRANCH   7   8
HETATM    8  C   UNL     1      -1.212  10.031  26.932  0.00  0.00     0.045 A 
HETATM    9  C   UNL     1      -0.901   8.676  27.127  0.00  0.00     0.021 A 
HETATM   10  C   UNL     1      -0.446   8.207  28.370  0.00  0.00     0.037 A 
HETATM   11  C   UNL     1      -0.260   9.100  29.415  0.00  0.00     0.068 A 
HETATM   12  C   UNL     1      -0.538  10.449  29.250  0.00  0.00     0.074 A 
HETATM   13  C   UNL     1      -1.036  10.906  28.025  0.00  0.00     0.082 A 
BRANCH  11  14
HETATM   14  O   UNL     1       0.199   8.696  30.633  0.00  0.00    -0.361 OA
HETATM   15  H   UNL     1      -0.382   9.057  31.323  0.00  0.00     0.217 HD
ENDBRANCH  11  14
BRANCH  13  16
HETATM   16  O   UNL     1      -1.369  12.231  27.930  0.00  0.00    -0.360 OA
HETATM   17  H   UNL     1      -1.752  12.533  28.769  0.00  0.00     0.217 HD
ENDBRANCH  13  16
ENDBRANCH   7   8
BRANCH   1  18
HETATM   18  C   UNL     1       0.755  10.798  24.523  0.00  0.00     0.051 A 
HETATM   19  C   UNL     1       1.607  11.913  24.405  0.00  0.00    -0.035 A 
HETATM   20  C   UNL     1       1.136  13.308  24.710  0.00  0.00     0.050 C 
HETATM   21  C   UNL     1       2.981  11.696  24.205  0.00  0.00     0.009 A 
HETATM   22  C   UNL     1       3.509  10.404  24.178  0.00  0.00     0.001 A 
HETATM   23  C   UNL     1       2.678   9.312  24.405  0.00  0.00     0.002 A 
HETATM   24  C   UNL     1       1.310   9.508  24.584  0.00  0.00     0.031 A 
ENDBRANCH   1  18
TORSDOF 4
ENDMDL
MODEL 6
REMARK VINA RESULT:    -6.434      2.476      4.746
REMARK INTER + INTRA:          -8.773
REMARK INTER:                  -7.841
REMARK INTRA:                  -0.932
REMARK UNBOUND:                -1.211
REMARK  4 active torsions:
REMARK  status: ('A' for Active; 'I' for Inactive)
REMARK    1  A    between atoms: C_7  and  N_8 
REMARK    2  A    between atoms: C_14  and  C_15 
REMARK    3  A    between atoms: C_18  and  O_19 
REMARK    4  A    between atoms: C_21  and  O_22 
ROOT
HETATM    1  N   UNL     1       3.975   6.709  19.433  0.00  0.00    -0.244 N 
HETATM    2  C   UNL     1       5.020   6.653  18.533  0.00  0.00     0.349 A 
HETATM    3  O   UNL     1       5.055   6.190  17.404  0.00  0.00    -0.245 OA
HETATM    4  N   UNL     1       6.089   7.264  19.172  0.00  0.00    -0.226 N 
HETATM    5  H   UNL     1       7.019   7.383  18.798  0.00  0.00     0.194 HD
HETATM    6  N   UNL     1       5.762   7.598  20.445  0.00  0.00    -0.151 NA
HETATM    7  C   UNL     1       4.507   7.256  20.585  0.00  0.00     0.171 A 
ENDROOT
BRANCH   7   8
HETATM    8  C   UNL     1       3.825   7.354  21.916  0.00  0.00     0.045 A 
HETATM    9  C   UNL     1       3.389   6.215  22.611  0.00  0.00     0.021 A 
HETATM   10  C   UNL     1       2.888   6.308  23.919  0.00  0.00     0.037 A 
HETATM   11  C   UNL     1       2.860   7.540  24.557  0.00  0.00     0.068 A 
HETATM   12  C   UNL     1       3.302   8.683  23.906  0.00  0.00     0.074 A 
HETATM   13  C   UNL     1       3.757   8.593  22.586  0.00  0.00     0.082 A 
BRANCH  11  14
HETATM   14  O   UNL     1       2.403   7.680  25.833  0.00  0.00    -0.361 OA
HETATM   15  H   UNL     1       1.443   7.836  25.808  0.00  0.00     0.217 HD
ENDBRANCH  11  14
BRANCH  13  16
HETATM   16  O   UNL     1       4.112   9.757  21.957  0.00  0.00    -0.360 OA
HETATM   17  H   UNL     1       4.518   9.556  21.099  0.00  0.00     0.217 HD
ENDBRANCH  13  16
ENDBRANCH   7   8
BRANCH   1  18
HETATM   18  C   UNL     1       2.698   6.192  19.151  0.00  0.00     0.051 A 
HETATM   19  C   UNL     1       1.713   6.942  18.481  0.00  0.00    -0.035 A 
HETATM   20  C   UNL     1       2.052   8.183  17.703  0.00  0.00     0.050 C 
HETATM   21  C   UNL     1       0.420   6.403  18.360  0.00  0.00     0.009 A 
HETATM   22  C   UNL     1       0.124   5.127  18.842  0.00  0.00     0.001 A 
HETATM   23  C   UNL     1       1.129   4.349  19.403  0.00  0.00     0.002 A 
HETATM   24  C   UNL     1       2.411   4.875  19.551  0.00  0.00     0.031 A 
ENDBRANCH   1  18
TORSDOF 4
ENDMDL
MODEL 7
REMARK VINA RESULT:    -6.162      2.430      4.769
REMARK INTER + INTRA:          -8.453
REMARK INTER:                  -7.352
REMARK INTRA:                  -1.102
REMARK UNBOUND:                -1.211
REMARK  4 active torsions:
REMARK  status: ('A' for Active; 'I' for Inactive)
REMARK    1  A    between atoms: C_7  and  N_8 
REMARK    2  A    between atoms: C_14  and  C_15 
REMARK    3  A    between atoms: C_18  and  O_19 
REMARK    4  A    between atoms: C_21  and  O_22 
ROOT
HETATM    1  N   UNL     1       4.661   6.142  19.830  0.00  0.00    -0.244 N 
HETATM    2  C   UNL     1       5.093   6.769  18.678  0.00  0.00     0.349 A 
HETATM    3  O   UNL     1       5.093   6.371  17.524  0.00  0.00    -0.245 OA
HETATM    4  N   UNL     1       5.546   8.015  19.085  0.00  0.00    -0.226 N 
HETATM    5  H   UNL     1       5.943   8.729  18.492  0.00  0.00     0.194 HD
HETATM    6  N   UNL     1       5.494   8.129  20.435  0.00  0.00    -0.151 NA
HETATM    7  C   UNL     1       4.973   7.007  20.861  0.00  0.00     0.171 A 
ENDROOT
BRANCH   7   8
HETATM    8  C   UNL     1       4.878   6.708  22.326  0.00  0.00     0.045 A 
HETATM    9  C   UNL     1       5.703   5.755  22.944  0.00  0.00     0.021 A 
HETATM   10  C   UNL     1       5.708   5.591  24.338  0.00  0.00     0.037 A 
HETATM   11  C   UNL     1       4.916   6.411  25.128  0.00  0.00     0.068 A 
HETATM   12  C   UNL     1       4.103   7.377  24.553  0.00  0.00     0.074 A 
HETATM   13  C   UNL     1       4.066   7.506  23.159  0.00  0.00     0.082 A 
BRANCH  11  14
HETATM   14  O   UNL     1       4.901   6.305  26.487  0.00  0.00    -0.361 OA
HETATM   15  H   UNL     1       4.606   7.151  26.865  0.00  0.00     0.217 HD
ENDBRANCH  11  14
BRANCH  13  16
HETATM   16  O   UNL     1       3.193   8.420  22.631  0.00  0.00    -0.360 OA
HETATM   17  H   UNL     1       2.493   7.959  22.142  0.00  0.00     0.217 HD
ENDBRANCH  13  16
ENDBRANCH   7   8
BRANCH   1  18
HETATM   18  C   UNL     1       4.119   4.845  19.833  0.00  0.00     0.051 A 
HETATM   19  C   UNL     1       2.733   4.608  19.777  0.00  0.00    -0.035 A 
HETATM   20  C   UNL     1       1.762   5.671  19.343  0.00  0.00     0.050 C 
HETATM   21  C   UNL     1       2.266   3.290  19.924  0.00  0.00     0.009 A 
HETATM   22  C   UNL     1       3.155   2.223  20.066  0.00  0.00     0.001 A 
HETATM   23  C   UNL     1       4.525   2.452  20.011  0.00  0.00     0.002 A 
HETATM   24  C   UNL     1       5.005   3.754  19.888  0.00  0.00     0.031 A 
ENDBRANCH   1  18
TORSDOF 4
ENDMDL
MODEL 8
REMARK VINA RESULT:    -6.137      4.198      6.194
REMARK INTER + INTRA:          -8.424
REMARK INTER:                  -7.213
REMARK INTRA:                  -1.211
REMARK UNBOUND:                -1.211
REMARK  4 active torsions:
REMARK  status: ('A' for Active; 'I' for Inactive)
REMARK    1  A    between atoms: C_7  and  N_8 
REMARK    2  A    between atoms: C_14  and  C_15 
REMARK    3  A    between atoms: C_18  and  O_19 
REMARK    4  A    between atoms: C_21  and  O_22 
ROOT
HETATM    1  N   UNL     1       4.168   7.097  24.034  0.00  0.00    -0.244 N 
HETATM    2  C   UNL     1       5.181   6.278  24.489  0.00  0.00     0.349 A 
HETATM    3  O   UNL     1       6.080   5.729  23.871  0.00  0.00    -0.245 OA
HETATM    4  N   UNL     1       4.995   6.191  25.861  0.00  0.00    -0.226 N 
HETATM    5  H   UNL     1       5.559   5.657  26.506  0.00  0.00     0.194 HD
HETATM    6  N   UNL     1       3.866   6.840  26.236  0.00  0.00    -0.151 NA
HETATM    7  C   UNL     1       3.384   7.366  25.139  0.00  0.00     0.171 A 
ENDROOT
BRANCH   7   8
HETATM    8  C   UNL     1       2.055   8.058  25.135  0.00  0.00     0.045 A 
HETATM    9  C   UNL     1       1.944   9.450  24.990  0.00  0.00     0.021 A 
HETATM   10  C   UNL     1       0.692  10.068  24.839  0.00  0.00     0.037 A 
HETATM   11  C   UNL     1      -0.456   9.290  24.790  0.00  0.00     0.068 A 
HETATM   12  C   UNL     1      -0.380   7.910  24.909  0.00  0.00     0.074 A 
HETATM   13  C   UNL     1       0.865   7.301  25.106  0.00  0.00     0.082 A 
BRANCH  11  14
HETATM   14  O   UNL     1      -1.692   9.840  24.624  0.00  0.00    -0.361 OA
HETATM   15  H   UNL     1      -1.602  10.672  24.131  0.00  0.00     0.217 HD
ENDBRANCH  11  14
BRANCH  13  16
HETATM   16  O   UNL     1       0.885   5.945  25.295  0.00  0.00    -0.360 OA
HETATM   17  H   UNL     1      -0.017   5.623  25.455  0.00  0.00     0.217 HD
ENDBRANCH  13  16
ENDBRANCH   7   8
BRANCH   1  18
HETATM   18  C   UNL     1       4.014   7.437  22.678  0.00  0.00     0.051 A 
HETATM   19  C   UNL     1       3.457   6.550  21.737  0.00  0.00    -0.035 A 
HETATM   20  C   UNL     1       2.659   5.347  22.157  0.00  0.00     0.050 C 
HETATM   21  C   UNL     1       3.464   6.912  20.380  0.00  0.00     0.009 A 
HETATM   22  C   UNL     1       3.962   8.150  19.967  0.00  0.00     0.001 A 
HETATM   23  C   UNL     1       4.410   9.065  20.913  0.00  0.00     0.002 A 
HETATM   24  C   UNL     1       4.429   8.714  22.261  0.00  0.00     0.031 A 
ENDBRANCH   1  18
TORSDOF 4
ENDMDL
MODEL 9
REMARK VINA RESULT:    -5.944      8.193      9.475
REMARK INTER + INTRA:          -8.197
REMARK INTER:                  -7.171
REMARK INTRA:                  -1.026
REMARK UNBOUND:                -1.211
REMARK  4 active torsions:
REMARK  status: ('A' for Active; 'I' for Inactive)
REMARK    1  A    between atoms: C_7  and  N_8 
REMARK    2  A    between atoms: C_14  and  C_15 
REMARK    3  A    between atoms: C_18  and  O_19 
REMARK    4  A    between atoms: C_21  and  O_22 
ROOT
HETATM    1  N   UNL     1       0.676   6.275  28.050  0.00  0.00    -0.244 N 
HETATM    2  C   UNL     1       0.666   4.895  28.090  0.00  0.00     0.349 A 
HETATM    3  O   UNL     1       1.416   4.124  28.668  0.00  0.00    -0.245 OA
HETATM    4  N   UNL     1      -0.422   4.513  27.318  0.00  0.00    -0.226 N 
HETATM    5  H   UNL     1      -0.714   3.567  27.125  0.00  0.00     0.194 HD
HETATM    6  N   UNL     1      -1.006   5.592  26.742  0.00  0.00    -0.151 NA
HETATM    7  C   UNL     1      -0.338   6.628  27.182  0.00  0.00     0.171 A 
ENDROOT
BRANCH   7   8
HETATM    8  C   UNL     1      -0.614   8.004  26.655  0.00  0.00     0.045 A 
HETATM    9  C   UNL     1      -0.714   9.117  27.504  0.00  0.00     0.021 A 
HETATM   10  C   UNL     1      -0.824  10.418  26.987  0.00  0.00     0.037 A 
HETATM   11  C   UNL     1      -0.793  10.616  25.614  0.00  0.00     0.068 A 
HETATM   12  C   UNL     1      -0.676   9.540  24.747  0.00  0.00     0.074 A 
HETATM   13  C   UNL     1      -0.613   8.241  25.264  0.00  0.00     0.082 A 
BRANCH  11  14
HETATM   14  O   UNL     1      -0.876  11.861  25.065  0.00  0.00    -0.361 OA
HETATM   15  H   UNL     1      -1.680  11.911  24.520  0.00  0.00     0.217 HD
ENDBRANCH  11  14
BRANCH  13  16
HETATM   16  O   UNL     1      -0.575   7.204  24.370  0.00  0.00    -0.360 OA
HETATM   17  H   UNL     1      -0.170   7.502  23.540  0.00  0.00     0.217 HD
ENDBRANCH  13  16
ENDBRANCH   7   8
BRANCH   1  18
HETATM   18  C   UNL     1       1.637   7.049  28.724  0.00  0.00     0.051 A 
HETATM   19  C   UNL     1       1.347   7.739  29.916  0.00  0.00    -0.035 A 
HETATM   20  C   UNL     1       0.136   7.416  30.746  0.00  0.00     0.050 C 
HETATM   21  C   UNL     1       2.321   8.600  30.452  0.00  0.00     0.009 A 
HETATM   22  C   UNL     1       3.574   8.732  29.853  0.00  0.00     0.001 A 
HETATM   23  C   UNL     1       3.892   7.964  28.738  0.00  0.00     0.002 A 
HETATM   24  C   UNL     1       2.932   7.122  28.181  0.00  0.00     0.031 A 
ENDBRANCH   1  18
TORSDOF 4
ENDMDL
