MODEL 1
REMARK VINA RESULT:    -7.804      0.000      0.000
REMARK INTER + INTRA:         -11.337
REMARK INTER:                 -10.221
REMARK INTRA:                  -1.116
REMARK UNBOUND:                -1.480
REMARK  5 active torsions:
REMARK  status: ('A' for Active; 'I' for Inactive)
REMARK    1  A    between atoms: N_2  and  C_5 
REMARK    2  A    between atoms: C_5  and  C_6 
REMARK    3  A    between atoms: C_11  and  C_12 
REMARK    4  A    between atoms: C_19  and  N_20 
REMARK    5  A    between atoms: C_22  and  C_23 
REMARK       I    between atoms: C_23  and  N_25 
ROOT
HETATM    1  C   UNL     1       2.896   7.211  24.403  0.00  0.00    -0.024 C 
HETATM    2  C   UNL     1       3.025   7.073  23.013  0.00  0.00     0.028 C 
HETATM    3  C   UNL     1       4.068   6.980  25.133  0.00  0.00     0.014 C 
HETATM    4  C   UNL     1       5.282   6.675  24.498  0.00  0.00     0.033 C 
HETATM    5  C   UNL     1       5.418   6.699  23.118  0.00  0.00     0.073 A 
HETATM    6  C   UNL     1       4.284   6.958  22.352  0.00  0.00     0.028 A 
HETATM    7  N   UNL     1       6.626   6.518  22.592  0.00  0.00    -0.218 NA
HETATM    8  C   UNL     1       6.769   6.668  21.278  0.00  0.00     0.200 A 
HETATM    9  N   UNL     1       5.787   6.981  20.443  0.00  0.00    -0.212 NA
HETATM   10  C   UNL     1       4.557   7.131  20.975  0.00  0.00     0.140 A 
ENDROOT
BRANCH   1  11
HETATM   11  C   UNL     1       1.622   7.631  25.080  0.00  0.00    -0.018 A 
HETATM   12  C   UNL     1       1.149   8.984  25.169  0.00  0.00    -0.022 A 
HETATM   13  C   UNL     1      -0.044   9.256  25.880  0.00  0.00     0.010 A 
HETATM   14  C   UNL     1      -0.751   8.246  26.531  0.00  0.00     0.001 A 
HETATM   15  C   UNL     1      -0.303   6.939  26.457  0.00  0.00     0.001 A 
HETATM   16  C   UNL     1       0.854   6.640  25.735  0.00  0.00     0.013 A 
BRANCH  12  17
HETATM   17  C   UNL     1       1.852  10.112  24.444  0.00  0.00     0.271 C 
BRANCH  17  18
HETATM   18  N   UNL     1       3.267  10.410  24.820  0.00  0.00    -0.075 N 
HETATM   19  C   UNL     1       4.095  10.724  23.619  0.00  0.00     0.267 C 
HETATM   20  H   UNL     1       3.653   9.591  25.307  0.00  0.00     0.277 HD
HETATM   21  H   UNL     1       3.304  11.200  25.467  0.00  0.00     0.277 HD
ENDBRANCH  17  18
ENDBRANCH  12  17
ENDBRANCH   1  11
BRANCH  10  22
HETATM   22  C   UNL     1       3.529   7.796  20.073  0.00  0.00     0.273 C 
HETATM   23  O   UNL     1       3.447   9.033  20.076  0.00  0.00    -0.266 OA
HETATM   24  N   UNL     1       2.738   7.069  19.189  0.00  0.00    -0.342 N 
HETATM   25  C   UNL     1       2.548   5.621  19.018  0.00  0.00     0.139 C 
HETATM   26  C   UNL     1       1.949   7.781  18.199  0.00  0.00     0.161 C 
HETATM   27  C   UNL     1       2.427   5.461  17.503  0.00  0.00     0.056 C 
HETATM   28  C   UNL     1       1.836   6.790  17.089  0.00  0.00    -0.056 C 
HETATM   29  C   UNL     1       1.643   4.314  16.926  0.00  0.00    -0.020 C 
HETATM   30  C   UNL     1       1.261   6.952  15.885  0.00  0.00    -0.018 C 
HETATM   31  C   UNL     1       1.082   5.769  14.962  0.00  0.00     0.054 C 
HETATM   32  C   UNL     1       1.058   4.457  15.719  0.00  0.00    -0.026 C 
ENDBRANCH  10  22
BRANCH   8  33
HETATM   33  N   UNL     1       8.031   6.497  20.756  0.00  0.00    -0.271 NA
HETATM   34  H   UNL     1       8.168   7.063  19.929  0.00  0.00     0.127 HD
HETATM   35  H   UNL     1       8.750   6.518  21.462  0.00  0.00     0.127 HD
ENDBRANCH   8  33
TORSDOF 5
ENDMDL
MODEL 2
REMARK VINA RESULT:    -7.553      5.279      8.077
REMARK INTER + INTRA:         -11.020
REMARK INTER:                  -9.653
REMARK INTRA:                  -1.367
REMARK UNBOUND:                -1.480
REMARK  5 active torsions:
REMARK  status: ('A' for Active; 'I' for Inactive)
REMARK    1  A    between atoms: N_2  and  C_5 
REMARK    2  A    between atoms: C_5  and  C_6 
REMARK    3  A    between atoms: C_11  and  C_12 
REMARK    4  A    between atoms: C_19  and  N_20 
REMARK    5  A    between atoms: C_22  and  C_23 
REMARK       I    between atoms: C_23  and  N_25 
ROOT
HETATM    1  C   UNL     1       3.982   6.384  26.678  0.00  0.00    -0.024 C 
HETATM    2  C   UNL     1       2.889   7.262  26.700  0.00  0.00     0.028 C 
HETATM    3  C   UNL     1       4.599   6.176  27.918  0.00  0.00     0.014 C 
HETATM    4  C   UNL     1       4.118   6.780  29.090  0.00  0.00     0.033 C 
HETATM    5  C   UNL     1       2.944   7.518  29.109  0.00  0.00     0.073 A 
HETATM    6  C   UNL     1       2.277   7.722  27.904  0.00  0.00     0.028 A 
HETATM    7  N   UNL     1       2.485   7.958  30.278  0.00  0.00    -0.218 NA
HETATM    8  C   UNL     1       1.296   8.554  30.303  0.00  0.00     0.200 A 
HETATM    9  N   UNL     1       0.528   8.751  29.240  0.00  0.00    -0.212 NA
HETATM   10  C   UNL     1       1.010   8.332  28.052  0.00  0.00     0.140 A 
ENDROOT
BRANCH   1  11
HETATM   11  C   UNL     1       4.442   5.660  25.444  0.00  0.00    -0.018 A 
HETATM   12  C   UNL     1       4.121   4.298  25.126  0.00  0.00    -0.022 A 
HETATM   13  C   UNL     1       4.659   3.714  23.955  0.00  0.00     0.010 A 
HETATM   14  C   UNL     1       5.526   4.419  23.121  0.00  0.00     0.001 A 
HETATM   15  C   UNL     1       5.848   5.732  23.420  0.00  0.00     0.001 A 
HETATM   16  C   UNL     1       5.305   6.340  24.553  0.00  0.00     0.013 A 
BRANCH  12  17
HETATM   17  C   UNL     1       3.149   3.501  25.971  0.00  0.00     0.271 C 
BRANCH  17  18
HETATM   18  N   UNL     1       1.688   3.731  25.758  0.00  0.00    -0.075 N 
HETATM   19  C   UNL     1       1.005   4.103  27.032  0.00  0.00     0.267 C 
HETATM   20  H   UNL     1       1.276   2.871  25.377  0.00  0.00     0.277 HD
HETATM   21  H   UNL     1       1.542   4.474  25.072  0.00  0.00     0.277 HD
ENDBRANCH  17  18
ENDBRANCH  12  17
ENDBRANCH   1  11
BRANCH  10  22
HETATM   22  C   UNL     1      -0.002   8.272  26.919  0.00  0.00     0.273 C 
HETATM   23  O   UNL     1      -0.878   7.395  26.951  0.00  0.00    -0.266 OA
HETATM   24  N   UNL     1      -0.025   9.213  25.895  0.00  0.00    -0.342 N 
HETATM   25  C   UNL     1       0.910  10.292  25.543  0.00  0.00     0.139 C 
HETATM   26  C   UNL     1      -1.152   9.231  24.979  0.00  0.00     0.161 C 
HETATM   27  C   UNL     1      -0.015  11.420  25.086  0.00  0.00     0.056 C 
HETATM   28  C   UNL     1      -1.203  10.658  24.542  0.00  0.00    -0.056 C 
HETATM   29  C   UNL     1       0.474  12.442  24.097  0.00  0.00    -0.020 C 
HETATM   30  C   UNL     1      -2.103  11.251  23.739  0.00  0.00    -0.018 C 
HETATM   31  C   UNL     1      -1.880  12.666  23.261  0.00  0.00     0.054 C 
HETATM   32  C   UNL     1      -0.414  13.048  23.281  0.00  0.00    -0.026 C 
ENDBRANCH  10  22
BRANCH   8  33
HETATM   33  N   UNL     1       0.830   8.984  31.525  0.00  0.00    -0.271 NA
HETATM   34  H   UNL     1       0.865   9.991  31.600  0.00  0.00     0.127 HD
HETATM   35  H   UNL     1      -0.024   8.523  31.798  0.00  0.00     0.127 HD
ENDBRANCH   8  33
TORSDOF 5
ENDMDL
MODEL 3
REMARK VINA RESULT:    -7.513      3.803      6.863
REMARK INTER + INTRA:         -10.969
REMARK INTER:                 -10.154
REMARK INTRA:                  -0.815
REMARK UNBOUND:                -1.480
REMARK  5 active torsions:
REMARK  status: ('A' for Active; 'I' for Inactive)
REMARK    1  A    between atoms: N_2  and  C_5 
REMARK    2  A    between atoms: C_5  and  C_6 
REMARK    3  A    between atoms: C_11  and  C_12 
REMARK    4  A    between atoms: C_19  and  N_20 
REMARK    5  A    between atoms: C_22  and  C_23 
REMARK       I    between atoms: C_23  and  N_25 
ROOT
HETATM    1  C   UNL     1       0.350   8.751  29.330  0.00  0.00    -0.024 C 
HETATM    2  C   UNL     1       0.912   8.554  28.060  0.00  0.00     0.028 C 
HETATM    3  C   UNL     1      -0.712   9.663  29.373  0.00  0.00     0.014 C 
HETATM    4  C   UNL     1      -1.189  10.291  28.212  0.00  0.00     0.033 C 
HETATM    5  C   UNL     1      -0.719   9.961  26.949  0.00  0.00     0.073 A 
HETATM    6  C   UNL     1       0.314   9.032  26.856  0.00  0.00     0.028 A 
HETATM    7  N   UNL     1      -1.302  10.509  25.886  0.00  0.00    -0.218 NA
HETATM    8  C   UNL     1      -0.931  10.091  24.680  0.00  0.00     0.200 A 
HETATM    9  N   UNL     1      -0.009   9.165  24.452  0.00  0.00    -0.212 NA
HETATM   10  C   UNL     1       0.603   8.635  25.530  0.00  0.00     0.140 A 
ENDROOT
BRANCH   1  11
HETATM   11  C   UNL     1       0.794   8.009  30.559  0.00  0.00    -0.018 A 
HETATM   12  C   UNL     1       2.122   8.046  31.101  0.00  0.00    -0.022 A 
HETATM   13  C   UNL     1       2.429   7.260  32.238  0.00  0.00     0.010 A 
HETATM   14  C   UNL     1       1.481   6.421  32.821  0.00  0.00     0.001 A 
HETATM   15  C   UNL     1       0.198   6.373  32.304  0.00  0.00     0.001 A 
HETATM   16  C   UNL     1      -0.138   7.162  31.203  0.00  0.00     0.013 A 
BRANCH  12  17
HETATM   17  C   UNL     1       3.178   8.973  30.536  0.00  0.00     0.271 C 
BRANCH  17  18
HETATM   18  N   UNL     1       4.492   8.380  30.146  0.00  0.00    -0.075 N 
HETATM   19  C   UNL     1       4.329   7.345  29.084  0.00  0.00     0.267 C 
HETATM   20  H   UNL     1       4.921   7.962  30.981  0.00  0.00     0.277 HD
HETATM   21  H   UNL     1       5.124   9.109  29.807  0.00  0.00     0.277 HD
ENDBRANCH  17  18
ENDBRANCH  12  17
ENDBRANCH   1  11
BRANCH  10  22
HETATM   22  C   UNL     1       1.406   7.369  25.272  0.00  0.00     0.273 C 
HETATM   23  O   UNL     1       1.007   6.302  25.761  0.00  0.00    -0.266 OA
HETATM   24  N   UNL     1       2.523   7.356  24.442  0.00  0.00    -0.342 N 
HETATM   25  C   UNL     1       3.273   8.447  23.803  0.00  0.00     0.139 C 
HETATM   26  C   UNL     1       3.100   6.081  24.057  0.00  0.00     0.161 C 
HETATM   27  C   UNL     1       3.642   7.865  22.439  0.00  0.00     0.056 C 
HETATM   28  C   UNL     1       3.727   6.384  22.737  0.00  0.00    -0.056 C 
HETATM   29  C   UNL     1       4.873   8.346  21.721  0.00  0.00    -0.020 C 
HETATM   30  C   UNL     1       4.348   5.539  21.896  0.00  0.00    -0.018 C 
HETATM   31  C   UNL     1       5.084   6.071  20.689  0.00  0.00     0.054 C 
HETATM   32  C   UNL     1       5.510   7.513  20.873  0.00  0.00    -0.026 C 
ENDBRANCH  10  22
BRANCH   8  33
HETATM   33  N   UNL     1      -1.561  10.655  23.594  0.00  0.00    -0.271 NA
HETATM   34  H   UNL     1      -1.067  11.474  23.264  0.00  0.00     0.127 HD
HETATM   35  H   UNL     1      -1.842   9.971  22.909  0.00  0.00     0.127 HD
ENDBRANCH   8  33
TORSDOF 5
ENDMDL
MODEL 4
REMARK VINA RESULT:    -7.511      5.510      7.926
REMARK INTER + INTRA:         -10.967
REMARK INTER:                  -9.852
REMARK INTRA:                  -1.114
REMARK UNBOUND:                -1.480
REMARK  5 active torsions:
REMARK  status: ('A' for Active; 'I' for Inactive)
REMARK    1  A    between atoms: N_2  and  C_5 
REMARK    2  A    between atoms: C_5  and  C_6 
REMARK    3  A    between atoms: C_11  and  C_12 
REMARK    4  A    between atoms: C_19  and  N_20 
REMARK    5  A    between atoms: C_22  and  C_23 
REMARK       I    between atoms: C_23  and  N_25 
ROOT
HETATM    1  C   UNL     1       0.219   9.064  29.150  0.00  0.00    -0.024 C 
HETATM    2  C   UNL     1       0.738   9.093  27.848  0.00  0.00     0.028 C 
HETATM    3  C   UNL     1      -0.950   9.813  29.339  0.00  0.00     0.014 C 
HETATM    4  C   UNL     1      -1.562  10.501  28.280  0.00  0.00     0.033 C 
HETATM    5  C   UNL     1      -1.116  10.385  26.971  0.00  0.00     0.073 A 
HETATM    6  C   UNL     1       0.024   9.622  26.732  0.00  0.00     0.028 A 
HETATM    7  N   UNL     1      -1.818  10.969  26.003  0.00  0.00    -0.218 NA
HETATM    8  C   UNL     1      -1.455  10.747  24.743  0.00  0.00     0.200 A 
HETATM    9  N   UNL     1      -0.433   9.987  24.374  0.00  0.00    -0.212 NA
HETATM   10  C   UNL     1       0.296   9.424  25.358  0.00  0.00     0.140 A 
ENDROOT
BRANCH   1  11
HETATM   11  C   UNL     1       0.816   8.253  30.265  0.00  0.00    -0.018 A 
HETATM   12  C   UNL     1       2.223   8.114  30.513  0.00  0.00    -0.022 A 
HETATM   13  C   UNL     1       2.662   7.278  31.567  0.00  0.00     0.010 A 
HETATM   14  C   UNL     1       1.761   6.553  32.346  0.00  0.00     0.001 A 
HETATM   15  C   UNL     1       0.403   6.674  32.113  0.00  0.00     0.001 A 
HETATM   16  C   UNL     1      -0.057   7.517  31.099  0.00  0.00     0.013 A 
BRANCH  12  17
HETATM   17  C   UNL     1       3.243   8.913  29.729  0.00  0.00     0.271 C 
BRANCH  17  18
HETATM   18  N   UNL     1       4.386   8.173  29.113  0.00  0.00    -0.075 N 
HETATM   19  C   UNL     1       3.913   7.183  28.103  0.00  0.00     0.267 C 
HETATM   20  H   UNL     1       4.902   7.693  29.861  0.00  0.00     0.277 HD
HETATM   21  H   UNL     1       5.031   8.827  28.664  0.00  0.00     0.277 HD
ENDBRANCH  17  18
ENDBRANCH  12  17
ENDBRANCH   1  11
BRANCH  10  22
HETATM   22  C   UNL     1       1.243   8.317  24.921  0.00  0.00     0.273 C 
HETATM   23  O   UNL     1       2.264   8.624  24.290  0.00  0.00    -0.266 OA
HETATM   24  N   UNL     1       1.041   6.987  25.276  0.00  0.00    -0.342 N 
HETATM   25  C   UNL     1      -0.091   6.314  25.930  0.00  0.00     0.139 C 
HETATM   26  C   UNL     1       2.098   6.022  25.025  0.00  0.00     0.161 C 
HETATM   27  C   UNL     1       0.588   5.286  26.834  0.00  0.00     0.056 C 
HETATM   28  C   UNL     1       1.865   4.992  26.079  0.00  0.00    -0.056 C 
HETATM   29  C   UNL     1      -0.129   4.017  27.205  0.00  0.00    -0.020 C 
HETATM   30  C   UNL     1       2.600   3.900  26.352  0.00  0.00    -0.018 C 
HETATM   31  C   UNL     1       2.098   2.873  27.341  0.00  0.00     0.054 C 
HETATM   32  C   UNL     1       0.591   2.910  27.482  0.00  0.00    -0.026 C 
ENDBRANCH  10  22
BRANCH   8  33
HETATM   33  N   UNL     1      -2.206  11.343  23.755  0.00  0.00    -0.271 NA
HETATM   34  H   UNL     1      -2.483  12.280  24.016  0.00  0.00     0.127 HD
HETATM   35  H   UNL     1      -1.815  11.209  22.836  0.00  0.00     0.127 HD
ENDBRANCH   8  33
TORSDOF 5
ENDMDL
MODEL 5
REMARK VINA RESULT:    -7.469      2.618      7.107
REMARK INTER + INTRA:         -10.914
REMARK INTER:                 -10.208
REMARK INTRA:                  -0.706
REMARK UNBOUND:                -1.480
REMARK  5 active torsions:
REMARK  status: ('A' for Active; 'I' for Inactive)
REMARK    1  A    between atoms: N_2  and  C_5 
REMARK    2  A    between atoms: C_5  and  C_6 
REMARK    3  A    between atoms: C_11  and  C_12 
REMARK    4  A    between atoms: C_19  and  N_20 
REMARK    5  A    between atoms: C_22  and  C_23 
REMARK       I    between atoms: C_23  and  N_25 
ROOT
HETATM    1  C   UNL     1       3.327   6.644  22.187  0.00  0.00    -0.024 C 
HETATM    2  C   UNL     1       3.434   7.708  23.095  0.00  0.00     0.028 C 
HETATM    3  C   UNL     1       3.090   5.392  22.768  0.00  0.00     0.014 C 
HETATM    4  C   UNL     1       2.933   5.242  24.154  0.00  0.00     0.033 C 
HETATM    5  C   UNL     1       2.888   6.331  25.013  0.00  0.00     0.073 A 
HETATM    6  C   UNL     1       3.085   7.599  24.474  0.00  0.00     0.028 A 
HETATM    7  N   UNL     1       2.616   6.120  26.298  0.00  0.00    -0.218 NA
HETATM    8  C   UNL     1       2.449   7.178  27.086  0.00  0.00     0.200 A 
HETATM    9  N   UNL     1       2.541   8.439  26.687  0.00  0.00    -0.212 NA
HETATM   10  C   UNL     1       2.850   8.649  25.391  0.00  0.00     0.140 A 
ENDROOT
BRANCH   1  11
HETATM   11  C   UNL     1       3.399   6.814  20.696  0.00  0.00    -0.018 A 
HETATM   12  C   UNL     1       4.430   7.533  20.002  0.00  0.00    -0.022 A 
HETATM   13  C   UNL     1       4.357   7.664  18.595  0.00  0.00     0.010 A 
HETATM   14  C   UNL     1       3.285   7.147  17.869  0.00  0.00     0.001 A 
HETATM   15  C   UNL     1       2.282   6.457  18.527  0.00  0.00     0.001 A 
HETATM   16  C   UNL     1       2.347   6.286  19.911  0.00  0.00     0.013 A 
BRANCH  12  17
HETATM   17  C   UNL     1       5.639   8.075  20.735  0.00  0.00     0.271 C 
BRANCH  17  18
HETATM   18  N   UNL     1       6.992   7.727  20.204  0.00  0.00    -0.075 N 
HETATM   19  C   UNL     1       7.672   8.920  19.621  0.00  0.00     0.267 C 
HETATM   20  H   UNL     1       6.881   7.001  19.486  0.00  0.00     0.277 HD
HETATM   21  H   UNL     1       7.576   7.340  20.948  0.00  0.00     0.277 HD
ENDBRANCH  17  18
ENDBRANCH  12  17
ENDBRANCH   1  11
BRANCH  10  22
HETATM   22  C   UNL     1       2.633  10.067  24.887  0.00  0.00     0.273 C 
HETATM   23  O   UNL     1       3.609  10.701  24.458  0.00  0.00    -0.266 OA
HETATM   24  N   UNL     1       1.369  10.644  24.818  0.00  0.00    -0.342 N 
HETATM   25  C   UNL     1       0.063  10.191  25.317  0.00  0.00     0.139 C 
HETATM   26  C   UNL     1       1.208  11.906  24.116  0.00  0.00     0.161 C 
HETATM   27  C   UNL     1      -0.903  10.629  24.217  0.00  0.00     0.056 C 
HETATM   28  C   UNL     1      -0.210  11.849  23.652  0.00  0.00    -0.056 C 
HETATM   29  C   UNL     1      -2.340  10.926  24.549  0.00  0.00    -0.020 C 
HETATM   30  C   UNL     1      -0.872  12.736  22.889  0.00  0.00    -0.018 C 
HETATM   31  C   UNL     1      -2.361  12.596  22.679  0.00  0.00     0.054 C 
HETATM   32  C   UNL     1      -3.021  11.813  23.796  0.00  0.00    -0.026 C 
ENDBRANCH  10  22
BRANCH   8  33
HETATM   33  N   UNL     1       2.148   6.940  28.408  0.00  0.00    -0.271 NA
HETATM   34  H   UNL     1       2.913   7.201  29.015  0.00  0.00     0.127 HD
HETATM   35  H   UNL     1       1.223   7.254  28.658  0.00  0.00     0.127 HD
ENDBRANCH   8  33
TORSDOF 5
ENDMDL
MODEL 6
REMARK VINA RESULT:    -7.467      2.750      6.960
REMARK INTER + INTRA:         -10.911
REMARK INTER:                  -9.389
REMARK INTRA:                  -1.522
REMARK UNBOUND:                -1.480
REMARK  5 active torsions:
REMARK  status: ('A' for Active; 'I' for Inactive)
REMARK    1  A    between atoms: N_2  and  C_5 
REMARK    2  A    between atoms: C_5  and  C_6 
REMARK    3  A    between atoms: C_11  and  C_12 
REMARK    4  A    between atoms: C_19  and  N_20 
REMARK    5  A    between atoms: C_22  and  C_23 
REMARK       I    between atoms: C_23  and  N_25 
ROOT
HETATM    1  C   UNL     1       2.510   5.054  18.899  0.00  0.00    -0.024 C 
HETATM    2  C   UNL     1       2.815   6.034  19.855  0.00  0.00     0.028 C 
HETATM    3  C   UNL     1       3.351   5.037  17.780  0.00  0.00     0.014 C 
HETATM    4  C   UNL     1       4.438   5.917  17.663  0.00  0.00     0.033 C 
HETATM    5  C   UNL     1       4.810   6.769  18.692  0.00  0.00     0.073 A 
HETATM    6  C   UNL     1       4.021   6.795  19.840  0.00  0.00     0.028 A 
HETATM    7  N   UNL     1       5.922   7.487  18.558  0.00  0.00    -0.218 NA
HETATM    8  C   UNL     1       6.338   8.203  19.598  0.00  0.00     0.200 A 
HETATM    9  N   UNL     1       5.720   8.262  20.769  0.00  0.00    -0.212 NA
HETATM   10  C   UNL     1       4.575   7.559  20.892  0.00  0.00     0.140 A 
ENDROOT
BRANCH   1  11
HETATM   11  C   UNL     1       1.406   4.047  19.064  0.00  0.00    -0.018 A 
HETATM   12  C   UNL     1       0.058   4.230  18.609  0.00  0.00    -0.022 A 
HETATM   13  C   UNL     1      -0.904   3.225  18.871  0.00  0.00     0.010 A 
HETATM   14  C   UNL     1      -0.582   2.079  19.596  0.00  0.00     0.001 A 
HETATM   15  C   UNL     1       0.714   1.894  20.045  0.00  0.00     0.001 A 
HETATM   16  C   UNL     1       1.688   2.856  19.773  0.00  0.00     0.013 A 
BRANCH  12  17
HETATM   17  C   UNL     1      -0.337   5.432  17.778  0.00  0.00     0.271 C 
BRANCH  17  18
HETATM   18  N   UNL     1      -0.332   5.286  16.291  0.00  0.00    -0.075 N 
HETATM   19  C   UNL     1       0.604   6.256  15.651  0.00  0.00     0.267 C 
HETATM   20  H   UNL     1      -1.287   5.441  15.947  0.00  0.00     0.277 HD
HETATM   21  H   UNL     1      -0.060   4.336  16.029  0.00  0.00     0.277 HD
ENDBRANCH  17  18
ENDBRANCH  12  17
ENDBRANCH   1  11
BRANCH  10  22
HETATM   22  C   UNL     1       4.065   7.381  22.314  0.00  0.00     0.273 C 
HETATM   23  O   UNL     1       3.292   8.231  22.779  0.00  0.00    -0.266 OA
HETATM   24  N   UNL     1       4.372   6.258  23.076  0.00  0.00    -0.342 N 
HETATM   25  C   UNL     1       5.307   5.148  22.840  0.00  0.00     0.139 C 
HETATM   26  C   UNL     1       3.670   6.042  24.328  0.00  0.00     0.161 C 
HETATM   27  C   UNL     1       4.557   3.936  23.394  0.00  0.00     0.056 C 
HETATM   28  C   UNL     1       3.705   4.557  24.478  0.00  0.00    -0.056 C 
HETATM   29  C   UNL     1       5.320   2.750  23.915  0.00  0.00    -0.020 C 
HETATM   30  C   UNL     1       3.137   3.804  25.435  0.00  0.00    -0.018 C 
HETATM   31  C   UNL     1       3.441   2.326  25.520  0.00  0.00     0.054 C 
HETATM   32  C   UNL     1       4.768   1.982  24.877  0.00  0.00    -0.026 C 
ENDBRANCH  10  22
BRANCH   8  33
HETATM   33  N   UNL     1       7.502   8.922  19.445  0.00  0.00    -0.271 NA
HETATM   34  H   UNL     1       7.350   9.909  19.609  0.00  0.00     0.127 HD
HETATM   35  H   UNL     1       8.290   8.488  19.900  0.00  0.00     0.127 HD
ENDBRANCH   8  33
TORSDOF 5
ENDMDL
MODEL 7
REMARK VINA RESULT:    -7.452      2.870      6.892
REMARK INTER + INTRA:         -10.893
REMARK INTER:                  -9.143
REMARK INTRA:                  -1.750
REMARK UNBOUND:                -1.480
REMARK  5 active torsions:
REMARK  status: ('A' for Active; 'I' for Inactive)
REMARK    1  A    between atoms: N_2  and  C_5 
REMARK    2  A    between atoms: C_5  and  C_6 
REMARK    3  A    between atoms: C_11  and  C_12 
REMARK    4  A    between atoms: C_19  and  N_20 
REMARK    5  A    between atoms: C_22  and  C_23 
REMARK       I    between atoms: C_23  and  N_25 
ROOT
HETATM    1  C   UNL     1       2.327   5.360  18.843  0.00  0.00    -0.024 C 
HETATM    2  C   UNL     1       2.708   6.294  19.818  0.00  0.00     0.028 C 
HETATM    3  C   UNL     1       3.141   5.329  17.703  0.00  0.00     0.014 C 
HETATM    4  C   UNL     1       4.273   6.151  17.585  0.00  0.00     0.033 C 
HETATM    5  C   UNL     1       4.715   6.951  18.629  0.00  0.00     0.073 A 
HETATM    6  C   UNL     1       3.955   6.986  19.795  0.00  0.00     0.028 A 
HETATM    7  N   UNL     1       5.862   7.609  18.488  0.00  0.00    -0.218 NA
HETATM    8  C   UNL     1       6.341   8.270  19.537  0.00  0.00     0.200 A 
HETATM    9  N   UNL     1       5.753   8.330  20.724  0.00  0.00    -0.212 NA
HETATM   10  C   UNL     1       4.574   7.688  20.855  0.00  0.00     0.140 A 
ENDROOT
BRANCH   1  11
HETATM   11  C   UNL     1       1.173   4.412  19.006  0.00  0.00    -0.018 A 
HETATM   12  C   UNL     1       1.243   3.145  19.678  0.00  0.00    -0.022 A 
HETATM   13  C   UNL     1       0.095   2.319  19.720  0.00  0.00     0.010 A 
HETATM   14  C   UNL     1      -1.092   2.688  19.090  0.00  0.00     0.001 A 
HETATM   15  C   UNL     1      -1.171   3.904  18.434  0.00  0.00     0.001 A 
HETATM   16  C   UNL     1      -0.062   4.752  18.405  0.00  0.00     0.013 A 
BRANCH  12  17
HETATM   17  C   UNL     1       2.492   2.715  20.417  0.00  0.00     0.271 C 
BRANCH  17  18
HETATM   18  N   UNL     1       3.577   2.055  19.631  0.00  0.00    -0.075 N 
HETATM   19  C   UNL     1       4.863   2.804  19.741  0.00  0.00     0.267 C 
HETATM   20  H   UNL     1       3.283   2.006  18.648  0.00  0.00     0.277 HD
HETATM   21  H   UNL     1       3.720   1.097  19.958  0.00  0.00     0.277 HD
ENDBRANCH  17  18
ENDBRANCH  12  17
ENDBRANCH   1  11
BRANCH  10  22
HETATM   22  C   UNL     1       4.086   7.497  22.283  0.00  0.00     0.273 C 
HETATM   23  O   UNL     1       3.324   8.345  22.769  0.00  0.00    -0.266 OA
HETATM   24  N   UNL     1       4.402   6.365  23.028  0.00  0.00    -0.342 N 
HETATM   25  C   UNL     1       5.329   5.254  22.766  0.00  0.00     0.139 C 
HETATM   26  C   UNL     1       3.719   6.139  24.290  0.00  0.00     0.161 C 
HETATM   27  C   UNL     1       4.584   4.040  23.319  0.00  0.00     0.056 C 
HETATM   28  C   UNL     1       3.751   4.652  24.424  0.00  0.00    -0.056 C 
HETATM   29  C   UNL     1       5.351   2.846  23.817  0.00  0.00    -0.020 C 
HETATM   30  C   UNL     1       3.197   3.891  25.383  0.00  0.00    -0.018 C 
HETATM   31  C   UNL     1       3.497   2.412  25.448  0.00  0.00     0.054 C 
HETATM   32  C   UNL     1       4.813   2.069  24.779  0.00  0.00    -0.026 C 
ENDBRANCH  10  22
BRANCH   8  33
HETATM   33  N   UNL     1       7.539   8.929  19.377  0.00  0.00    -0.271 NA
HETATM   34  H   UNL     1       8.281   8.476  19.893  0.00  0.00     0.127 HD
HETATM   35  H   UNL     1       7.720   9.177  18.417  0.00  0.00     0.127 HD
ENDBRANCH   8  33
TORSDOF 5
ENDMDL
MODEL 8
REMARK VINA RESULT:    -7.395      4.178      7.736
REMARK INTER + INTRA:         -10.820
REMARK INTER:                  -9.795
REMARK INTRA:                  -1.025
REMARK UNBOUND:                -1.480
REMARK  5 active torsions:
REMARK  status: ('A' for Active; 'I' for Inactive)
REMARK    1  A    between atoms: N_2  and  C_5 
REMARK    2  A    between atoms: C_5  and  C_6 
REMARK    3  A    between atoms: C_11  and  C_12 
REMARK    4  A    between atoms: C_19  and  N_20 
REMARK    5  A    between atoms: C_22  and  C_23 
REMARK       I    between atoms: C_23  and  N_25 
ROOT
HETATM    1  C   UNL     1       4.057   6.229  26.805  0.00  0.00    -0.024 C 
HETATM    2  C   UNL     1       2.981   7.127  26.753  0.00  0.00     0.028 C 
HETATM    3  C   UNL     1       4.614   6.045  28.077  0.00  0.00     0.014 C 
HETATM    4  C   UNL     1       4.091   6.689  29.209  0.00  0.00     0.033 C 
HETATM    5  C   UNL     1       2.931   7.448  29.155  0.00  0.00     0.073 A 
HETATM    6  C   UNL     1       2.324   7.630  27.915  0.00  0.00     0.028 A 
HETATM    7  N   UNL     1       2.428   7.928  30.289  0.00  0.00    -0.218 NA
HETATM    8  C   UNL     1       1.251   8.544  30.244  0.00  0.00     0.200 A 
HETATM    9  N   UNL     1       0.535   8.725  29.142  0.00  0.00    -0.212 NA
HETATM   10  C   UNL     1       1.063   8.266  27.989  0.00  0.00     0.140 A 
ENDROOT
BRANCH   1  11
HETATM   11  C   UNL     1       4.559   5.465  25.613  0.00  0.00    -0.018 A 
HETATM   12  C   UNL     1       4.889   6.050  24.344  0.00  0.00    -0.022 A 
HETATM   13  C   UNL     1       5.304   5.213  23.282  0.00  0.00     0.010 A 
HETATM   14  C   UNL     1       5.363   3.827  23.425  0.00  0.00     0.001 A 
HETATM   15  C   UNL     1       5.042   3.251  24.641  0.00  0.00     0.001 A 
HETATM   16  C   UNL     1       4.659   4.057  25.715  0.00  0.00     0.013 A 
BRANCH  12  17
HETATM   17  C   UNL     1       4.887   7.551  24.146  0.00  0.00     0.271 C 
BRANCH  17  18
HETATM   18  N   UNL     1       3.776   8.149  23.346  0.00  0.00    -0.075 N 
HETATM   19  C   UNL     1       4.241   8.553  21.986  0.00  0.00     0.267 C 
HETATM   20  H   UNL     1       3.416   8.968  23.851  0.00  0.00     0.277 HD
HETATM   21  H   UNL     1       3.008   7.481  23.251  0.00  0.00     0.277 HD
ENDBRANCH  17  18
ENDBRANCH  12  17
ENDBRANCH   1  11
BRANCH  10  22
HETATM   22  C   UNL     1       0.102   8.192  26.812  0.00  0.00     0.273 C 
HETATM   23  O   UNL     1      -0.742   7.284  26.791  0.00  0.00    -0.266 OA
HETATM   24  N   UNL     1       0.088   9.152  25.806  0.00  0.00    -0.342 N 
HETATM   25  C   UNL     1       0.996  10.270  25.514  0.00  0.00     0.139 C 
HETATM   26  C   UNL     1      -1.000   9.148  24.843  0.00  0.00     0.161 C 
HETATM   27  C   UNL     1       0.051  11.373  25.039  0.00  0.00     0.056 C 
HETATM   28  C   UNL     1      -1.084  10.580  24.430  0.00  0.00    -0.056 C 
HETATM   29  C   UNL     1       0.543  12.432  24.090  0.00  0.00    -0.020 C 
HETATM   30  C   UNL     1      -1.971  11.156  23.601  0.00  0.00    -0.018 C 
HETATM   31  C   UNL     1      -1.780  12.588  23.159  0.00  0.00     0.054 C 
HETATM   32  C   UNL     1      -0.331  13.022  23.249  0.00  0.00    -0.026 C 
ENDBRANCH  10  22
BRANCH   8  33
HETATM   33  N   UNL     1       0.738   9.016  31.431  0.00  0.00    -0.271 NA
HETATM   34  H   UNL     1      -0.102   9.558  31.281  0.00  0.00     0.127 HD
HETATM   35  H   UNL     1       0.719   8.312  32.153  0.00  0.00     0.127 HD
ENDBRANCH   8  33
TORSDOF 5
ENDMDL
MODEL 9
REMARK VINA RESULT:    -7.295      4.143      6.657
REMARK INTER + INTRA:         -10.694
REMARK INTER:                  -9.214
REMARK INTRA:                  -1.480
REMARK UNBOUND:                -1.480
REMARK  5 active torsions:
REMARK  status: ('A' for Active; 'I' for Inactive)
REMARK    1  A    between atoms: N_2  and  C_5 
REMARK    2  A    between atoms: C_5  and  C_6 
REMARK    3  A    between atoms: C_11  and  C_12 
REMARK    4  A    between atoms: C_19  and  N_20 
REMARK    5  A    between atoms: C_22  and  C_23 
REMARK       I    between atoms: C_23  and  N_25 
ROOT
HETATM    1  C   UNL     1       3.852   4.681  19.214  0.00  0.00    -0.024 C 
HETATM    2  C   UNL     1       3.281   5.167  18.029  0.00  0.00     0.028 C 
HETATM    3  C   UNL     1       4.132   5.655  20.180  0.00  0.00     0.014 C 
HETATM    4  C   UNL     1       3.817   7.007  19.974  0.00  0.00     0.033 C 
HETATM    5  C   UNL     1       3.110   7.438  18.860  0.00  0.00     0.073 A 
HETATM    6  C   UNL     1       2.781   6.496  17.889  0.00  0.00     0.028 A 
HETATM    7  N   UNL     1       2.742   8.714  18.791  0.00  0.00    -0.218 NA
HETATM    8  C   UNL     1       1.959   9.089  17.784  0.00  0.00     0.200 A 
HETATM    9  N   UNL     1       1.517   8.281  16.830  0.00  0.00    -0.212 NA
HETATM   10  C   UNL     1       1.919   6.995  16.885  0.00  0.00     0.140 A 
ENDROOT
BRANCH   1  11
HETATM   11  C   UNL     1       4.103   3.223  19.477  0.00  0.00    -0.018 A 
HETATM   12  C   UNL     1       3.369   2.423  20.416  0.00  0.00    -0.022 A 
HETATM   13  C   UNL     1       3.736   1.070  20.610  0.00  0.00     0.010 A 
HETATM   14  C   UNL     1       4.821   0.506  19.939  0.00  0.00     0.001 A 
HETATM   15  C   UNL     1       5.540   1.269  19.036  0.00  0.00     0.001 A 
HETATM   16  C   UNL     1       5.178   2.597  18.804  0.00  0.00     0.013 A 
BRANCH  12  17
HETATM   17  C   UNL     1       2.155   2.970  21.136  0.00  0.00     0.271 C 
BRANCH  17  18
HETATM   18  N   UNL     1       2.120   2.865  22.626  0.00  0.00    -0.075 N 
HETATM   19  C   UNL     1       3.203   3.676  23.255  0.00  0.00     0.267 C 
HETATM   20  H   UNL     1       2.228   1.876  22.884  0.00  0.00     0.277 HD
HETATM   21  H   UNL     1       1.216   3.180  22.983  0.00  0.00     0.277 HD
ENDBRANCH  17  18
ENDBRANCH  12  17
ENDBRANCH   1  11
BRANCH  10  22
HETATM   22  C   UNL     1       1.156   6.031  15.989  0.00  0.00     0.273 C 
HETATM   23  O   UNL     1       1.452   5.977  14.787  0.00  0.00    -0.266 OA
HETATM   24  N   UNL     1       0.197   5.156  16.489  0.00  0.00    -0.342 N 
HETATM   25  C   UNL     1      -0.420   5.044  17.819  0.00  0.00     0.139 C 
HETATM   26  C   UNL     1      -0.323   4.111  15.625  0.00  0.00     0.161 C 
HETATM   27  C   UNL     1      -0.559   3.534  18.015  0.00  0.00     0.056 C 
HETATM   28  C   UNL     1      -0.712   3.042  16.593  0.00  0.00    -0.056 C 
HETATM   29  C   UNL     1      -1.643   2.984  18.900  0.00  0.00    -0.020 C 
HETATM   30  C   UNL     1      -1.191   1.815  16.328  0.00  0.00    -0.018 C 
HETATM   31  C   UNL     1      -1.704   0.941  17.449  0.00  0.00     0.054 C 
HETATM   32  C   UNL     1      -2.137   1.754  18.651  0.00  0.00    -0.026 C 
ENDBRANCH  10  22
BRANCH   8  33
HETATM   33  N   UNL     1       1.572  10.409  17.742  0.00  0.00    -0.271 NA
HETATM   34  H   UNL     1       2.372  11.028  17.713  0.00  0.00     0.127 HD
HETATM   35  H   UNL     1       0.828  10.575  17.082  0.00  0.00     0.127 HD
ENDBRANCH   8  33
TORSDOF 5
ENDMDL
