MODEL 1
REMARK VINA RESULT:    -9.139      0.000      0.000
REMARK INTER + INTRA:         -12.797
REMARK INTER:                 -11.531
REMARK INTRA:                  -1.266
REMARK UNBOUND:                -1.254
REMARK  5 active torsions:
REMARK  status: ('A' for Active; 'I' for Inactive)
REMARK    1  A    between atoms: N_2  and  C_5 
REMARK    2  A    between atoms: C_5  and  C_6 
REMARK    3  A    between atoms: C_11  and  C_12 
REMARK    4  A    between atoms: C_19  and  N_20 
REMARK    5  A    between atoms: C_22  and  C_23 
REMARK       I    between atoms: C_23  and  N_25 
ROOT
HETATM    1  C   UNL     1       7.493  14.659  23.460  0.00  0.00    -0.024 C 
HETATM    2  C   UNL     1       7.644  13.360  22.952  0.00  0.00     0.028 C 
HETATM    3  C   UNL     1       8.582  15.511  23.238  0.00  0.00     0.014 C 
HETATM    4  C   UNL     1       9.713  15.090  22.521  0.00  0.00     0.033 C 
HETATM    5  C   UNL     1       9.769  13.853  21.895  0.00  0.00     0.073 A 
HETATM    6  C   UNL     1       8.693  12.985  22.061  0.00  0.00     0.028 A 
HETATM    7  N   UNL     1      10.822  13.570  21.133  0.00  0.00    -0.218 NA
HETATM    8  C   UNL     1      10.808  12.437  20.437  0.00  0.00     0.200 A 
HETATM    9  N   UNL     1       9.818  11.554  20.451  0.00  0.00    -0.212 NA
HETATM   10  C   UNL     1       8.767  11.829  21.250  0.00  0.00     0.140 A 
ENDROOT
BRANCH   1  11
HETATM   11  C   UNL     1       6.247  15.144  24.144  0.00  0.00    -0.018 A 
HETATM   12  C   UNL     1       5.954  14.962  25.537  0.00  0.00    -0.022 A 
HETATM   13  C   UNL     1       4.719  15.422  26.052  0.00  0.00     0.010 A 
HETATM   14  C   UNL     1       3.761  16.012  25.230  0.00  0.00     0.001 A 
HETATM   15  C   UNL     1       4.029  16.188  23.883  0.00  0.00     0.001 A 
HETATM   16  C   UNL     1       5.253  15.772  23.357  0.00  0.00     0.013 A 
BRANCH  12  17
HETATM   17  C   UNL     1       6.976  14.368  26.485  0.00  0.00     0.271 C 
BRANCH  17  18
HETATM   18  N   UNL     1       6.816  12.936  26.877  0.00  0.00    -0.075 N 
HETATM   19  C   UNL     1       7.764  12.058  26.130  0.00  0.00     0.267 C 
HETATM   20  H   UNL     1       5.848  12.652  26.682  0.00  0.00     0.277 HD
HETATM   21  H   UNL     1       6.976  12.822  27.880  0.00  0.00     0.277 HD
ENDBRANCH  17  18
ENDBRANCH  12  17
ENDBRANCH   1  11
BRANCH  10  22
HETATM   22  C   UNL     1       7.523  10.987  21.009  0.00  0.00     0.273 C 
HETATM   23  O   UNL     1       6.893  11.147  19.953  0.00  0.00    -0.266 OA
HETATM   24  N   UNL     1       7.119   9.992  21.893  0.00  0.00    -0.342 N 
HETATM   25  C   UNL     1       7.596   9.631  23.236  0.00  0.00     0.139 C 
HETATM   26  C   UNL     1       6.064   9.078  21.491  0.00  0.00     0.161 C 
HETATM   27  C   UNL     1       7.514   8.104  23.236  0.00  0.00     0.056 C 
HETATM   28  C   UNL     1       6.376   7.846  22.274  0.00  0.00    -0.056 C 
HETATM   29  C   UNL     1       7.314   7.360  24.527  0.00  0.00    -0.020 C 
HETATM   30  C   UNL     1       5.754   6.655  22.235  0.00  0.00    -0.018 C 
HETATM   31  C   UNL     1       6.100   5.583  23.241  0.00  0.00     0.054 C 
HETATM   32  C   UNL     1       6.692   6.163  24.509  0.00  0.00    -0.026 C 
ENDBRANCH  10  22
BRANCH   8  33
HETATM   33  N   UNL     1      11.898  12.172  19.639  0.00  0.00    -0.271 NA
HETATM   34  H   UNL     1      11.737  12.465  18.685  0.00  0.00     0.127 HD
HETATM   35  H   UNL     1      12.769  12.438  20.071  0.00  0.00     0.127 HD
ENDBRANCH   8  33
TORSDOF 5
ENDMDL
MODEL 2
REMARK VINA RESULT:    -9.118      3.049      5.680
REMARK INTER + INTRA:         -12.770
REMARK INTER:                 -11.583
REMARK INTRA:                  -1.187
REMARK UNBOUND:                -1.254
REMARK  5 active torsions:
REMARK  status: ('A' for Active; 'I' for Inactive)
REMARK    1  A    between atoms: N_2  and  C_5 
REMARK    2  A    between atoms: C_5  and  C_6 
REMARK    3  A    between atoms: C_11  and  C_12 
REMARK    4  A    between atoms: C_19  and  N_20 
REMARK    5  A    between atoms: C_22  and  C_23 
REMARK       I    between atoms: C_23  and  N_25 
ROOT
HETATM    1  C   UNL     1       6.147  14.757  22.751  0.00  0.00    -0.024 C 
HETATM    2  C   UNL     1       5.390  13.580  22.844  0.00  0.00     0.028 C 
HETATM    3  C   UNL     1       5.496  15.916  23.194  0.00  0.00     0.014 C 
HETATM    4  C   UNL     1       4.198  15.872  23.726  0.00  0.00     0.033 C 
HETATM    5  C   UNL     1       3.533  14.676  23.951  0.00  0.00     0.073 A 
HETATM    6  C   UNL     1       4.157  13.495  23.557  0.00  0.00     0.028 A 
HETATM    7  N   UNL     1       2.355  14.705  24.569  0.00  0.00    -0.218 NA
HETATM    8  C   UNL     1       1.786  13.548  24.893  0.00  0.00     0.200 A 
HETATM    9  N   UNL     1       2.305  12.354  24.638  0.00  0.00    -0.212 NA
HETATM   10  C   UNL     1       3.483  12.327  23.982  0.00  0.00     0.140 A 
ENDROOT
BRANCH   1  11
HETATM   11  C   UNL     1       7.571  14.794  22.272  0.00  0.00    -0.018 A 
HETATM   12  C   UNL     1       8.711  15.026  23.112  0.00  0.00    -0.022 A 
HETATM   13  C   UNL     1      10.000  15.087  22.530  0.00  0.00     0.010 A 
HETATM   14  C   UNL     1      10.184  14.968  21.154  0.00  0.00     0.001 A 
HETATM   15  C   UNL     1       9.092  14.750  20.333  0.00  0.00     0.001 A 
HETATM   16  C   UNL     1       7.813  14.654  20.886  0.00  0.00     0.013 A 
BRANCH  12  17
HETATM   17  C   UNL     1       8.574  15.116  24.618  0.00  0.00     0.271 C 
BRANCH  17  18
HETATM   18  N   UNL     1       9.791  15.468  25.410  0.00  0.00    -0.075 N 
HETATM   19  C   UNL     1       9.636  15.089  26.845  0.00  0.00     0.267 C 
HETATM   20  H   UNL     1       9.949  16.480  25.330  0.00  0.00     0.277 HD
HETATM   21  H   UNL     1      10.612  14.996  25.027  0.00  0.00     0.277 HD
ENDBRANCH  17  18
ENDBRANCH  12  17
ENDBRANCH   1  11
BRANCH  10  22
HETATM   22  C   UNL     1       4.206  10.989  23.989  0.00  0.00     0.273 C 
HETATM   23  O   UNL     1       3.684  10.029  23.406  0.00  0.00    -0.266 OA
HETATM   24  N   UNL     1       5.467  10.831  24.556  0.00  0.00    -0.342 N 
HETATM   25  C   UNL     1       6.287  11.737  25.374  0.00  0.00     0.139 C 
HETATM   26  C   UNL     1       6.194   9.595  24.325  0.00  0.00     0.161 C 
HETATM   27  C   UNL     1       7.707  11.467  24.877  0.00  0.00     0.056 C 
HETATM   28  C   UNL     1       7.620  10.023  24.433  0.00  0.00    -0.056 C 
HETATM   29  C   UNL     1       8.880  11.684  25.793  0.00  0.00    -0.020 C 
HETATM   30  C   UNL     1       8.727   9.286  24.238  0.00  0.00    -0.018 C 
HETATM   31  C   UNL     1      10.086   9.851  24.578  0.00  0.00     0.054 C 
HETATM   32  C   UNL     1      10.001  10.954  25.613  0.00  0.00    -0.026 C 
ENDBRANCH  10  22
BRANCH   8  33
HETATM   33  N   UNL     1       0.578  13.600  25.550  0.00  0.00    -0.271 NA
HETATM   34  H   UNL     1       0.666  14.054  26.449  0.00  0.00     0.127 HD
HETATM   35  H   UNL     1      -0.178  13.890  24.950  0.00  0.00     0.127 HD
ENDBRANCH   8  33
TORSDOF 5
ENDMDL
MODEL 3
REMARK VINA RESULT:    -8.979      2.943      5.887
REMARK INTER + INTRA:         -12.595
REMARK INTER:                 -11.048
REMARK INTRA:                  -1.548
REMARK UNBOUND:                -1.254
REMARK  5 active torsions:
REMARK  status: ('A' for Active; 'I' for Inactive)
REMARK    1  A    between atoms: N_2  and  C_5 
REMARK    2  A    between atoms: C_5  and  C_6 
REMARK    3  A    between atoms: C_11  and  C_12 
REMARK    4  A    between atoms: C_19  and  N_20 
REMARK    5  A    between atoms: C_22  and  C_23 
REMARK       I    between atoms: C_23  and  N_25 
ROOT
HETATM    1  C   UNL     1       8.413  12.306  22.418  0.00  0.00    -0.024 C 
HETATM    2  C   UNL     1       7.283  11.511  22.659  0.00  0.00     0.028 C 
HETATM    3  C   UNL     1       8.857  12.318  21.089  0.00  0.00     0.014 C 
HETATM    4  C   UNL     1       8.181  11.613  20.082  0.00  0.00     0.033 C 
HETATM    5  C   UNL     1       6.978  10.963  20.317  0.00  0.00     0.073 A 
HETATM    6  C   UNL     1       6.481  10.954  21.618  0.00  0.00     0.028 A 
HETATM    7  N   UNL     1       6.333  10.419  19.289  0.00  0.00    -0.218 NA
HETATM    8  C   UNL     1       5.123   9.911  19.502  0.00  0.00     0.200 A 
HETATM    9  N   UNL     1       4.506   9.898  20.676  0.00  0.00    -0.212 NA
HETATM   10  C   UNL     1       5.176  10.421  21.724  0.00  0.00     0.140 A 
ENDROOT
BRANCH   1  11
HETATM   11  C   UNL     1       9.084  13.138  23.474  0.00  0.00    -0.018 A 
HETATM   12  C   UNL     1      10.184  12.700  24.286  0.00  0.00    -0.022 A 
HETATM   13  C   UNL     1      10.695  13.563  25.284  0.00  0.00     0.010 A 
HETATM   14  C   UNL     1      10.131  14.814  25.525  0.00  0.00     0.001 A 
HETATM   15  C   UNL     1       9.066  15.245  24.753  0.00  0.00     0.001 A 
HETATM   16  C   UNL     1       8.563  14.426  23.741  0.00  0.00     0.013 A 
BRANCH  12  17
HETATM   17  C   UNL     1      10.865  11.370  24.037  0.00  0.00     0.271 C 
BRANCH  17  18
HETATM   18  N   UNL     1      10.663  10.284  25.042  0.00  0.00    -0.075 N 
HETATM   19  C   UNL     1       9.424   9.503  24.759  0.00  0.00     0.267 C 
HETATM   20  H   UNL     1      10.604  10.711  25.974  0.00  0.00     0.277 HD
HETATM   21  H   UNL     1      11.464   9.649  25.043  0.00  0.00     0.277 HD
ENDBRANCH  17  18
ENDBRANCH  12  17
ENDBRANCH   1  11
BRANCH  10  22
HETATM   22  C   UNL     1       4.341  10.690  22.967  0.00  0.00     0.273 C 
HETATM   23  O   UNL     1       4.048   9.737  23.703  0.00  0.00    -0.266 OA
HETATM   24  N   UNL     1       3.968  11.976  23.345  0.00  0.00    -0.342 N 
HETATM   25  C   UNL     1       4.089  13.267  22.653  0.00  0.00     0.139 C 
HETATM   26  C   UNL     1       3.376  12.181  24.655  0.00  0.00     0.161 C 
HETATM   27  C   UNL     1       4.425  14.239  23.784  0.00  0.00     0.056 C 
HETATM   28  C   UNL     1       3.752  13.591  24.973  0.00  0.00    -0.056 C 
HETATM   29  C   UNL     1       4.046  15.690  23.670  0.00  0.00    -0.020 C 
HETATM   30  C   UNL     1       3.517  14.280  26.103  0.00  0.00    -0.018 C 
HETATM   31  C   UNL     1       3.812  15.760  26.165  0.00  0.00     0.054 C 
HETATM   32  C   UNL     1       3.806  16.399  24.792  0.00  0.00    -0.026 C 
ENDBRANCH  10  22
BRANCH   8  33
HETATM   33  N   UNL     1       4.464   9.371  18.422  0.00  0.00    -0.271 NA
HETATM   34  H   UNL     1       3.851  10.047  17.987  0.00  0.00     0.127 HD
HETATM   35  H   UNL     1       5.075   8.838  17.821  0.00  0.00     0.127 HD
ENDBRANCH   8  33
TORSDOF 5
ENDMDL
MODEL 4
REMARK VINA RESULT:    -8.893      1.787      2.235
REMARK INTER + INTRA:         -12.487
REMARK INTER:                 -11.565
REMARK INTRA:                  -0.922
REMARK UNBOUND:                -1.254
REMARK  5 active torsions:
REMARK  status: ('A' for Active; 'I' for Inactive)
REMARK    1  A    between atoms: N_2  and  C_5 
REMARK    2  A    between atoms: C_5  and  C_6 
REMARK    3  A    between atoms: C_11  and  C_12 
REMARK    4  A    between atoms: C_19  and  N_20 
REMARK    5  A    between atoms: C_22  and  C_23 
REMARK       I    between atoms: C_23  and  N_25 
ROOT
HETATM    1  C   UNL     1       7.576  14.797  23.179  0.00  0.00    -0.024 C 
HETATM    2  C   UNL     1       8.447  13.745  23.497  0.00  0.00     0.028 C 
HETATM    3  C   UNL     1       7.887  15.487  22.001  0.00  0.00     0.014 C 
HETATM    4  C   UNL     1       8.970  15.111  21.192  0.00  0.00     0.033 C 
HETATM    5  C   UNL     1       9.720  13.972  21.447  0.00  0.00     0.073 A 
HETATM    6  C   UNL     1       9.424  13.235  22.591  0.00  0.00     0.028 A 
HETATM    7  N   UNL     1      10.653  13.612  20.570  0.00  0.00    -0.218 NA
HETATM    8  C   UNL     1      11.278  12.453  20.758  0.00  0.00     0.200 A 
HETATM    9  N   UNL     1      11.044  11.624  21.766  0.00  0.00    -0.212 NA
HETATM   10  C   UNL     1      10.121  12.008  22.671  0.00  0.00     0.140 A 
ENDROOT
BRANCH   1  11
HETATM   11  C   UNL     1       6.359  15.143  23.991  0.00  0.00    -0.018 A 
HETATM   12  C   UNL     1       6.142  14.740  25.351  0.00  0.00    -0.022 A 
HETATM   13  C   UNL     1       4.928  15.087  25.991  0.00  0.00     0.010 A 
HETATM   14  C   UNL     1       3.922  15.779  25.319  0.00  0.00     0.001 A 
HETATM   15  C   UNL     1       4.117  16.167  24.006  0.00  0.00     0.001 A 
HETATM   16  C   UNL     1       5.318  15.864  23.362  0.00  0.00     0.013 A 
BRANCH  12  17
HETATM   17  C   UNL     1       7.219  14.028  26.143  0.00  0.00     0.271 C 
BRANCH  17  18
HETATM   18  N   UNL     1       7.925  14.799  27.210  0.00  0.00    -0.075 N 
HETATM   19  C   UNL     1       9.339  15.087  26.828  0.00  0.00     0.267 C 
HETATM   20  H   UNL     1       7.902  14.249  28.077  0.00  0.00     0.277 HD
HETATM   21  H   UNL     1       7.442  15.681  27.390  0.00  0.00     0.277 HD
ENDBRANCH  17  18
ENDBRANCH  12  17
ENDBRANCH   1  11
BRANCH  10  22
HETATM   22  C   UNL     1       9.641  10.920  23.620  0.00  0.00     0.273 C 
HETATM   23  O   UNL     1      10.215  10.788  24.711  0.00  0.00    -0.266 OA
HETATM   24  N   UNL     1       8.534  10.126  23.338  0.00  0.00    -0.342 N 
HETATM   25  C   UNL     1       7.719   9.989  22.122  0.00  0.00     0.139 C 
HETATM   26  C   UNL     1       7.996   9.272  24.381  0.00  0.00     0.161 C 
HETATM   27  C   UNL     1       6.302   9.816  22.669  0.00  0.00     0.056 C 
HETATM   28  C   UNL     1       6.555   9.157  24.006  0.00  0.00    -0.056 C 
HETATM   29  C   UNL     1       5.274   9.059  21.876  0.00  0.00    -0.020 C 
HETATM   30  C   UNL     1       5.570   8.530  24.672  0.00  0.00    -0.018 C 
HETATM   31  C   UNL     1       4.209   8.365  24.037  0.00  0.00     0.054 C 
HETATM   32  C   UNL     1       4.277   8.422  22.524  0.00  0.00    -0.026 C 
ENDBRANCH  10  22
BRANCH   8  33
HETATM   33  N   UNL     1      12.226  12.089  19.829  0.00  0.00    -0.271 NA
HETATM   34  H   UNL     1      13.150  12.051  20.239  0.00  0.00     0.127 HD
HETATM   35  H   UNL     1      11.933  11.308  19.261  0.00  0.00     0.127 HD
ENDBRANCH   8  33
TORSDOF 5
ENDMDL
MODEL 5
REMARK VINA RESULT:    -8.887      2.951      6.048
REMARK INTER + INTRA:         -12.478
REMARK INTER:                 -11.254
REMARK INTRA:                  -1.225
REMARK UNBOUND:                -1.254
REMARK  5 active torsions:
REMARK  status: ('A' for Active; 'I' for Inactive)
REMARK    1  A    between atoms: N_2  and  C_5 
REMARK    2  A    between atoms: C_5  and  C_6 
REMARK    3  A    between atoms: C_11  and  C_12 
REMARK    4  A    between atoms: C_19  and  N_20 
REMARK    5  A    between atoms: C_22  and  C_23 
REMARK       I    between atoms: C_23  and  N_25 
ROOT
HETATM    1  C   UNL     1       8.382  12.407  22.491  0.00  0.00    -0.024 C 
HETATM    2  C   UNL     1       7.270  11.583  22.717  0.00  0.00     0.028 C 
HETATM    3  C   UNL     1       8.852  12.417  21.172  0.00  0.00     0.014 C 
HETATM    4  C   UNL     1       8.217  11.684  20.158  0.00  0.00     0.033 C 
HETATM    5  C   UNL     1       7.028  11.003  20.376  0.00  0.00     0.073 A 
HETATM    6  C   UNL     1       6.505  10.993  21.667  0.00  0.00     0.028 A 
HETATM    7  N   UNL     1       6.420  10.430  19.341  0.00  0.00    -0.218 NA
HETATM    8  C   UNL     1       5.220   9.891  19.536  0.00  0.00     0.200 A 
HETATM    9  N   UNL     1       4.580   9.873  20.697  0.00  0.00    -0.212 NA
HETATM   10  C   UNL     1       5.213  10.425  21.752  0.00  0.00     0.140 A 
ENDROOT
BRANCH   1  11
HETATM   11  C   UNL     1       9.008  13.268  23.552  0.00  0.00    -0.018 A 
HETATM   12  C   UNL     1       9.137  14.695  23.476  0.00  0.00    -0.022 A 
HETATM   13  C   UNL     1       9.792  15.389  24.521  0.00  0.00     0.010 A 
HETATM   14  C   UNL     1      10.352  14.713  25.604  0.00  0.00     0.001 A 
HETATM   15  C   UNL     1      10.240  13.337  25.686  0.00  0.00     0.001 A 
HETATM   16  C   UNL     1       9.570  12.633  24.684  0.00  0.00     0.013 A 
BRANCH  12  17
HETATM   17  C   UNL     1       8.508  15.483  22.346  0.00  0.00     0.271 C 
BRANCH  17  18
HETATM   18  N   UNL     1       9.378  16.430  21.585  0.00  0.00    -0.075 N 
HETATM   19  C   UNL     1      10.499  15.715  20.908  0.00  0.00     0.267 C 
HETATM   20  H   UNL     1       9.752  17.126  22.242  0.00  0.00     0.277 HD
HETATM   21  H   UNL     1       8.830  16.931  20.884  0.00  0.00     0.277 HD
ENDBRANCH  17  18
ENDBRANCH  12  17
ENDBRANCH   1  11
BRANCH  10  22
HETATM   22  C   UNL     1       4.346  10.683  22.975  0.00  0.00     0.273 C 
HETATM   23  O   UNL     1       4.028   9.723  23.691  0.00  0.00    -0.266 OA
HETATM   24  N   UNL     1       3.969  11.966  23.358  0.00  0.00    -0.342 N 
HETATM   25  C   UNL     1       4.115  13.266  22.686  0.00  0.00     0.139 C 
HETATM   26  C   UNL     1       3.342  12.159  24.654  0.00  0.00     0.161 C 
HETATM   27  C   UNL     1       4.425  14.222  23.837  0.00  0.00     0.056 C 
HETATM   28  C   UNL     1       3.716  13.563  24.999  0.00  0.00    -0.056 C 
HETATM   29  C   UNL     1       4.056  15.676  23.730  0.00  0.00    -0.020 C 
HETATM   30  C   UNL     1       3.453  14.240  26.130  0.00  0.00    -0.018 C 
HETATM   31  C   UNL     1       3.754  15.717  26.219  0.00  0.00     0.054 C 
HETATM   32  C   UNL     1       3.788  16.373  24.854  0.00  0.00    -0.026 C 
ENDBRANCH  10  22
BRANCH   8  33
HETATM   33  N   UNL     1       4.599   9.321  18.447  0.00  0.00    -0.271 NA
HETATM   34  H   UNL     1       4.254  10.025  17.809  0.00  0.00     0.127 HD
HETATM   35  H   UNL     1       5.124   8.553  18.059  0.00  0.00     0.127 HD
ENDBRANCH   8  33
TORSDOF 5
ENDMDL
MODEL 6
REMARK VINA RESULT:    -8.881      2.950      5.354
REMARK INTER + INTRA:         -12.471
REMARK INTER:                 -11.102
REMARK INTRA:                  -1.368
REMARK UNBOUND:                -1.254
REMARK  5 active torsions:
REMARK  status: ('A' for Active; 'I' for Inactive)
REMARK    1  A    between atoms: N_2  and  C_5 
REMARK    2  A    between atoms: C_5  and  C_6 
REMARK    3  A    between atoms: C_11  and  C_12 
REMARK    4  A    between atoms: C_19  and  N_20 
REMARK    5  A    between atoms: C_22  and  C_23 
REMARK       I    between atoms: C_23  and  N_25 
ROOT
HETATM    1  C   UNL     1       6.143  14.906  23.266  0.00  0.00    -0.024 C 
HETATM    2  C   UNL     1       5.556  13.657  23.018  0.00  0.00     0.028 C 
HETATM    3  C   UNL     1       5.250  15.917  23.644  0.00  0.00     0.014 C 
HETATM    4  C   UNL     1       3.878  15.666  23.798  0.00  0.00     0.033 C 
HETATM    5  C   UNL     1       3.347  14.388  23.700  0.00  0.00     0.073 A 
HETATM    6  C   UNL     1       4.206  13.346  23.359  0.00  0.00     0.028 A 
HETATM    7  N   UNL     1       2.059  14.208  23.978  0.00  0.00    -0.218 NA
HETATM    8  C   UNL     1       1.589  12.964  24.005  0.00  0.00     0.200 A 
HETATM    9  N   UNL     1       2.313  11.878  23.767  0.00  0.00    -0.212 NA
HETATM   10  C   UNL     1       3.611  12.066  23.453  0.00  0.00     0.140 A 
ENDROOT
BRANCH   1  11
HETATM   11  C   UNL     1       7.623  15.157  23.195  0.00  0.00    -0.018 A 
HETATM   12  C   UNL     1       8.512  15.133  24.321  0.00  0.00    -0.022 A 
HETATM   13  C   UNL     1       9.882  15.436  24.130  0.00  0.00     0.010 A 
HETATM   14  C   UNL     1      10.381  15.796  22.879  0.00  0.00     0.001 A 
HETATM   15  C   UNL     1       9.532  15.828  21.786  0.00  0.00     0.001 A 
HETATM   16  C   UNL     1       8.184  15.502  21.943  0.00  0.00     0.013 A 
BRANCH  12  17
HETATM   17  C   UNL     1       8.034  14.705  25.693  0.00  0.00     0.271 C 
BRANCH  17  18
HETATM   18  N   UNL     1       8.066  13.248  26.020  0.00  0.00    -0.075 N 
HETATM   19  C   UNL     1       6.720  12.752  26.431  0.00  0.00     0.267 C 
HETATM   20  H   UNL     1       8.741  13.101  26.781  0.00  0.00     0.277 HD
HETATM   21  H   UNL     1       8.388  12.710  25.213  0.00  0.00     0.277 HD
ENDBRANCH  17  18
ENDBRANCH  12  17
ENDBRANCH   1  11
BRANCH  10  22
HETATM   22  C   UNL     1       4.484  10.822  23.504  0.00  0.00     0.273 C 
HETATM   23  O   UNL     1       4.795  10.359  24.611  0.00  0.00    -0.266 OA
HETATM   24  N   UNL     1       4.876  10.145  22.353  0.00  0.00    -0.342 N 
HETATM   25  C   UNL     1       4.741  10.486  20.930  0.00  0.00     0.139 C 
HETATM   26  C   UNL     1       5.509   8.844  22.482  0.00  0.00     0.161 C 
HETATM   27  C   UNL     1       4.445   9.137  20.274  0.00  0.00     0.056 C 
HETATM   28  C   UNL     1       5.151   8.171  21.199  0.00  0.00    -0.056 C 
HETATM   29  C   UNL     1       4.828   8.895  18.840  0.00  0.00    -0.020 C 
HETATM   30  C   UNL     1       5.424   6.912  20.815  0.00  0.00    -0.018 C 
HETATM   31  C   UNL     1       5.139   6.471  19.398  0.00  0.00     0.054 C 
HETATM   32  C   UNL     1       5.107   7.639  18.435  0.00  0.00    -0.026 C 
ENDBRANCH  10  22
BRANCH   8  33
HETATM   33  N   UNL     1       0.258  12.797  24.314  0.00  0.00    -0.271 NA
HETATM   34  H   UNL     1      -0.168  13.670  24.596  0.00  0.00     0.127 HD
HETATM   35  H   UNL     1      -0.231  12.235  23.635  0.00  0.00     0.127 HD
ENDBRANCH   8  33
TORSDOF 5
ENDMDL
MODEL 7
REMARK VINA RESULT:    -8.568      2.725      5.871
REMARK INTER + INTRA:         -12.076
REMARK INTER:                 -10.877
REMARK INTRA:                  -1.199
REMARK UNBOUND:                -1.254
REMARK  5 active torsions:
REMARK  status: ('A' for Active; 'I' for Inactive)
REMARK    1  A    between atoms: N_2  and  C_5 
REMARK    2  A    between atoms: C_5  and  C_6 
REMARK    3  A    between atoms: C_11  and  C_12 
REMARK    4  A    between atoms: C_19  and  N_20 
REMARK    5  A    between atoms: C_22  and  C_23 
REMARK       I    between atoms: C_23  and  N_25 
ROOT
HETATM    1  C   UNL     1       4.029  11.973  23.476  0.00  0.00    -0.024 C 
HETATM    2  C   UNL     1       4.409  11.371  22.267  0.00  0.00     0.028 C 
HETATM    3  C   UNL     1       3.680  11.080  24.497  0.00  0.00     0.014 C 
HETATM    4  C   UNL     1       3.752   9.691  24.316  0.00  0.00     0.033 C 
HETATM    5  C   UNL     1       4.280   9.124  23.165  0.00  0.00     0.073 A 
HETATM    6  C   UNL     1       4.672   9.975  22.136  0.00  0.00     0.028 A 
HETATM    7  N   UNL     1       4.429   7.803  23.114  0.00  0.00    -0.218 NA
HETATM    8  C   UNL     1       5.051   7.281  22.061  0.00  0.00     0.200 A 
HETATM    9  N   UNL     1       5.533   7.983  21.044  0.00  0.00    -0.212 NA
HETATM   10  C   UNL     1       5.352   9.318  21.084  0.00  0.00     0.140 A 
ENDROOT
BRANCH   1  11
HETATM   11  C   UNL     1       4.041  13.458  23.705  0.00  0.00    -0.018 A 
HETATM   12  C   UNL     1       2.953  14.209  24.262  0.00  0.00    -0.022 A 
HETATM   13  C   UNL     1       3.070  15.615  24.380  0.00  0.00     0.010 A 
HETATM   14  C   UNL     1       4.202  16.292  23.930  0.00  0.00     0.001 A 
HETATM   15  C   UNL     1       5.256  15.579  23.386  0.00  0.00     0.001 A 
HETATM   16  C   UNL     1       5.178  14.189  23.288  0.00  0.00     0.013 A 
BRANCH  12  17
HETATM   17  C   UNL     1       1.719  13.521  24.808  0.00  0.00     0.271 C 
BRANCH  17  18
HETATM   18  N   UNL     1       0.419  13.766  24.115  0.00  0.00    -0.075 N 
HETATM   19  C   UNL     1       0.433  13.230  22.723  0.00  0.00     0.267 C 
HETATM   20  H   UNL     1       0.245  14.779  24.099  0.00  0.00     0.277 HD
HETATM   21  H   UNL     1      -0.347  13.330  24.633  0.00  0.00     0.277 HD
ENDBRANCH  17  18
ENDBRANCH  12  17
ENDBRANCH   1  11
BRANCH  10  22
HETATM   22  C   UNL     1       6.180  10.122  20.094  0.00  0.00     0.273 C 
HETATM   23  O   UNL     1       5.867  10.091  18.894  0.00  0.00    -0.266 OA
HETATM   24  N   UNL     1       7.222  10.950  20.499  0.00  0.00    -0.342 N 
HETATM   25  C   UNL     1       7.871  11.129  21.806  0.00  0.00     0.139 C 
HETATM   26  C   UNL     1       7.816  11.859  19.535  0.00  0.00     0.161 C 
HETATM   27  C   UNL     1       8.146  12.632  21.857  0.00  0.00     0.056 C 
HETATM   28  C   UNL     1       8.316  12.974  20.393  0.00  0.00    -0.056 C 
HETATM   29  C   UNL     1       9.291  13.162  22.675  0.00  0.00    -0.020 C 
HETATM   30  C   UNL     1       8.897  14.124  20.009  0.00  0.00    -0.018 C 
HETATM   31  C   UNL     1       9.506  15.048  21.037  0.00  0.00     0.054 C 
HETATM   32  C   UNL     1       9.888  14.314  22.306  0.00  0.00    -0.026 C 
ENDBRANCH  10  22
BRANCH   8  33
HETATM   33  N   UNL     1       5.213   5.914  22.036  0.00  0.00    -0.271 NA
HETATM   34  H   UNL     1       5.874   5.633  21.324  0.00  0.00     0.127 HD
HETATM   35  H   UNL     1       5.320   5.519  22.957  0.00  0.00     0.127 HD
ENDBRANCH   8  33
TORSDOF 5
ENDMDL
MODEL 8
REMARK VINA RESULT:    -8.473      2.829      5.877
REMARK INTER + INTRA:         -11.956
REMARK INTER:                 -11.071
REMARK INTRA:                  -0.885
REMARK UNBOUND:                -1.254
REMARK  5 active torsions:
REMARK  status: ('A' for Active; 'I' for Inactive)
REMARK    1  A    between atoms: N_2  and  C_5 
REMARK    2  A    between atoms: C_5  and  C_6 
REMARK    3  A    between atoms: C_11  and  C_12 
REMARK    4  A    between atoms: C_19  and  N_20 
REMARK    5  A    between atoms: C_22  and  C_23 
REMARK       I    between atoms: C_23  and  N_25 
ROOT
HETATM    1  C   UNL     1       6.295  14.828  23.120  0.00  0.00    -0.024 C 
HETATM    2  C   UNL     1       5.653  13.596  22.926  0.00  0.00     0.028 C 
HETATM    3  C   UNL     1       5.449  15.888  23.470  0.00  0.00     0.014 C 
HETATM    4  C   UNL     1       4.070  15.700  23.649  0.00  0.00     0.033 C 
HETATM    5  C   UNL     1       3.486  14.442  23.605  0.00  0.00     0.073 A 
HETATM    6  C   UNL     1       4.296  13.354  23.294  0.00  0.00     0.028 A 
HETATM    7  N   UNL     1       2.195  14.327  23.905  0.00  0.00    -0.218 NA
HETATM    8  C   UNL     1       1.675  13.105  23.984  0.00  0.00     0.200 A 
HETATM    9  N   UNL     1       2.350  11.983  23.778  0.00  0.00    -0.212 NA
HETATM   10  C   UNL     1       3.650  12.105  23.443  0.00  0.00     0.140 A 
ENDROOT
BRANCH   1  11
HETATM   11  C   UNL     1       7.783  15.013  23.023  0.00  0.00    -0.018 A 
HETATM   12  C   UNL     1       8.545  14.897  21.812  0.00  0.00    -0.022 A 
HETATM   13  C   UNL     1       9.952  15.045  21.861  0.00  0.00     0.010 A 
HETATM   14  C   UNL     1      10.620  15.262  23.065  0.00  0.00     0.001 A 
HETATM   15  C   UNL     1       9.897  15.371  24.240  0.00  0.00     0.001 A 
HETATM   16  C   UNL     1       8.506  15.260  24.214  0.00  0.00     0.013 A 
BRANCH  12  17
HETATM   17  C   UNL     1       7.868  14.708  20.471  0.00  0.00     0.271 C 
BRANCH  17  18
HETATM   18  N   UNL     1       8.650  14.053  19.380  0.00  0.00    -0.075 N 
HETATM   19  C   UNL     1       8.507  12.569  19.422  0.00  0.00     0.267 C 
HETATM   20  H   UNL     1       9.638  14.313  19.487  0.00  0.00     0.277 HD
HETATM   21  H   UNL     1       8.338  14.393  18.467  0.00  0.00     0.277 HD
ENDBRANCH  17  18
ENDBRANCH  12  17
ENDBRANCH   1  11
BRANCH  10  22
HETATM   22  C   UNL     1       4.472  10.828  23.531  0.00  0.00     0.273 C 
HETATM   23  O   UNL     1       4.102   9.837  22.883  0.00  0.00    -0.266 OA
HETATM   24  N   UNL     1       5.664  10.761  24.245  0.00  0.00    -0.342 N 
HETATM   25  C   UNL     1       6.304  11.716  25.161  0.00  0.00     0.139 C 
HETATM   26  C   UNL     1       6.510   9.590  24.098  0.00  0.00     0.161 C 
HETATM   27  C   UNL     1       7.791  11.566  24.840  0.00  0.00     0.056 C 
HETATM   28  C   UNL     1       7.874  10.127  24.381  0.00  0.00    -0.056 C 
HETATM   29  C   UNL     1       8.824  11.861  25.891  0.00  0.00    -0.020 C 
HETATM   30  C   UNL     1       9.052   9.482  24.318  0.00  0.00    -0.018 C 
HETATM   31  C   UNL     1      10.310  10.147  24.823  0.00  0.00     0.054 C 
HETATM   32  C   UNL     1      10.013  11.224  25.846  0.00  0.00    -0.026 C 
ENDBRANCH  10  22
BRANCH   8  33
HETATM   33  N   UNL     1       0.342  13.006  24.314  0.00  0.00    -0.271 NA
HETATM   34  H   UNL     1      -0.098  12.226  23.845  0.00  0.00     0.127 HD
HETATM   35  H   UNL     1       0.179  13.110  25.304  0.00  0.00     0.127 HD
ENDBRANCH   8  33
TORSDOF 5
ENDMDL
MODEL 9
REMARK VINA RESULT:    -8.434      2.765      5.717
REMARK INTER + INTRA:         -11.906
REMARK INTER:                 -10.652
REMARK INTRA:                  -1.254
REMARK UNBOUND:                -1.254
REMARK  5 active torsions:
REMARK  status: ('A' for Active; 'I' for Inactive)
REMARK    1  A    between atoms: N_2  and  C_5 
REMARK    2  A    between atoms: C_5  and  C_6 
REMARK    3  A    between atoms: C_11  and  C_12 
REMARK    4  A    between atoms: C_19  and  N_20 
REMARK    5  A    between atoms: C_22  and  C_23 
REMARK       I    between atoms: C_23  and  N_25 
ROOT
HETATM    1  C   UNL     1       6.830  14.809  22.725  0.00  0.00    -0.024 C 
HETATM    2  C   UNL     1       6.144  13.594  22.579  0.00  0.00     0.028 C 
HETATM    3  C   UNL     1       6.040  15.888  23.141  0.00  0.00     0.014 C 
HETATM    4  C   UNL     1       4.675  15.734  23.425  0.00  0.00     0.033 C 
HETATM    5  C   UNL     1       4.057  14.492  23.424  0.00  0.00     0.073 A 
HETATM    6  C   UNL     1       4.813  13.385  23.049  0.00  0.00     0.028 A 
HETATM    7  N   UNL     1       2.790  14.408  23.821  0.00  0.00    -0.218 NA
HETATM    8  C   UNL     1       2.247  13.200  23.938  0.00  0.00     0.200 A 
HETATM    9  N   UNL     1       2.876  12.061  23.679  0.00  0.00    -0.212 NA
HETATM   10  C   UNL     1       4.149  12.152  23.246  0.00  0.00     0.140 A 
ENDROOT
BRANCH   1  11
HETATM   11  C   UNL     1       8.310  14.957  22.515  0.00  0.00    -0.018 A 
HETATM   12  C   UNL     1       8.984  14.749  21.265  0.00  0.00    -0.022 A 
HETATM   13  C   UNL     1      10.393  14.871  21.208  0.00  0.00     0.010 A 
HETATM   14  C   UNL     1      11.147  15.151  22.347  0.00  0.00     0.001 A 
HETATM   15  C   UNL     1      10.509  15.348  23.559  0.00  0.00     0.001 A 
HETATM   16  C   UNL     1       9.118  15.264  23.635  0.00  0.00     0.013 A 
BRANCH  12  17
HETATM   17  C   UNL     1       8.212  14.488  19.988  0.00  0.00     0.271 C 
BRANCH  17  18
HETATM   18  N   UNL     1       8.570  13.277  19.190  0.00  0.00    -0.075 N 
HETATM   19  C   UNL     1       8.316  12.023  19.957  0.00  0.00     0.267 C 
HETATM   20  H   UNL     1       9.564  13.338  18.937  0.00  0.00     0.277 HD
HETATM   21  H   UNL     1       8.032  13.253  18.322  0.00  0.00     0.277 HD
ENDBRANCH  17  18
ENDBRANCH  12  17
ENDBRANCH   1  11
BRANCH  10  22
HETATM   22  C   UNL     1       4.943  10.854  23.267  0.00  0.00     0.273 C 
HETATM   23  O   UNL     1       5.307  10.399  24.361  0.00  0.00    -0.266 OA
HETATM   24  N   UNL     1       5.202  10.125  22.111  0.00  0.00    -0.342 N 
HETATM   25  C   UNL     1       4.981  10.439  20.692  0.00  0.00     0.139 C 
HETATM   26  C   UNL     1       5.759   8.789  22.231  0.00  0.00     0.161 C 
HETATM   27  C   UNL     1       4.550   9.097  20.100  0.00  0.00     0.056 C 
HETATM   28  C   UNL     1       5.262   8.109  20.998  0.00  0.00    -0.056 C 
HETATM   29  C   UNL     1       4.807   8.795  18.650  0.00  0.00    -0.020 C 
HETATM   30  C   UNL     1       5.424   6.826  20.632  0.00  0.00    -0.018 C 
HETATM   31  C   UNL     1       5.004   6.370  19.255  0.00  0.00     0.054 C 
HETATM   32  C   UNL     1       4.973   7.514  18.262  0.00  0.00    -0.026 C 
ENDBRANCH  10  22
BRANCH   8  33
HETATM   33  N   UNL     1       0.942  13.133  24.369  0.00  0.00    -0.271 NA
HETATM   34  H   UNL     1       0.293  13.212  23.598  0.00  0.00     0.127 HD
HETATM   35  H   UNL     1       0.790  12.389  25.034  0.00  0.00     0.127 HD
ENDBRANCH   8  33
TORSDOF 5
ENDMDL
