MODEL 1
REMARK VINA RESULT:    -6.356      0.000      0.000
REMARK INTER + INTRA:          -9.156
REMARK INTER:                  -8.162
REMARK INTRA:                  -0.994
REMARK UNBOUND:                -0.942
REMARK  5 active torsions:
REMARK  status: ('A' for Active; 'I' for Inactive)
REMARK    1  A    between atoms: N8_1  and  C24_2 
REMARK    2  A    between atoms: N8_1  and  C7_8 
REMARK    3  A    between atoms: C2_13  and  N1_14 
REMARK    4  A    between atoms: N1_14  and  C17_15 
REMARK    5  A    between atoms: C14_16  and  C13_19 
ROOT
ATOM      1  C17 FTA A   1       5.691  17.978  21.567  1.00  0.00     0.142 C 
ATOM      2  C14 FTA A   1       5.064  17.132  20.726  1.00  0.00     0.158 C 
ATOM      3  C18 FTA A   1       3.773  16.581  21.077  1.00  0.00     0.069 C 
ATOM      4  N21 FTA A   1       2.766  16.170  21.516  1.00  0.00    -0.197 NA
ENDROOT
BRANCH   2   5
ATOM      5  C13 FTA A   1       5.700  16.784  19.434  1.00  0.00     0.197 A 
ATOM      6  N15 FTA A   1       5.065  16.218  18.331  1.00  0.00    -0.093 NA
ATOM      7  N19 FTA A   1       6.030  16.014  17.353  1.00  0.00    -0.231 N 
ATOM      8  N20 FTA A   1       7.260  16.442  17.831  1.00  0.00    -0.017 NA
ATOM      9  H15 FTA A   1       5.860  15.608  16.421  1.00  0.00     0.200 HD
ATOM     10  N16 FTA A   1       7.056  16.931  19.117  1.00  0.00    -0.090 NA
ENDBRANCH   2   5
BRANCH   1  11
ATOM     11  N1  FTA A   1       6.960  17.713  21.932  1.00  0.00    -0.389 N 
ATOM     12  H11 FTA A   1       7.267  16.729  21.906  1.00  0.00     0.159 HD
BRANCH  11  13
ATOM     13  C2  FTA A   1       7.909  18.686  22.349  1.00  0.00     0.028 A 
ATOM     14  C4  FTA A   1       9.281  18.493  22.204  1.00  0.00     0.031 A 
ATOM     15  C6  FTA A   1      10.162  19.378  22.840  1.00  0.00     0.031 A 
ATOM     16  C7  FTA A   1       9.711  20.444  23.614  1.00  0.00     0.032 A 
ATOM     17  C5  FTA A   1       8.345  20.636  23.728  1.00  0.00     0.031 A 
ATOM     18  C3  FTA A   1       7.455  19.762  23.116  1.00  0.00     0.031 A 
BRANCH  16  19
ATOM     19  N8  FTA A   1      10.572  21.220  24.431  1.00  0.00    -0.356 N 
ATOM     20  H1  FTA A   1      10.927  22.103  24.037  1.00  0.00     0.166 HD
BRANCH  19  21
ATOM     21  C24 FTA A   1      10.986  20.879  25.754  1.00  0.00     0.032 A 
ATOM     22  C26 FTA A   1      11.919  19.896  25.986  1.00  0.00     0.029 A 
ATOM     23  C28 FTA A   1      12.148  19.495  27.288  1.00  0.00     0.002 A 
ATOM     24  C30 FTA A   1      11.498  20.068  28.368  1.00  0.00     0.000 A 
ATOM     25  C29 FTA A   1      10.595  21.075  28.153  1.00  0.00     0.002 A 
ATOM     26  C27 FTA A   1      10.358  21.481  26.835  1.00  0.00     0.029 A 
ENDBRANCH  19  21
ENDBRANCH  16  19
ENDBRANCH  11  13
ENDBRANCH   1  11
TORSDOF 5
ENDMDL
MODEL 2
REMARK VINA RESULT:    -6.234      1.329      2.912
REMARK INTER + INTRA:          -8.999
REMARK INTER:                  -7.989
REMARK INTRA:                  -1.010
REMARK UNBOUND:                -0.942
REMARK  5 active torsions:
REMARK  status: ('A' for Active; 'I' for Inactive)
REMARK    1  A    between atoms: N8_1  and  C24_2 
REMARK    2  A    between atoms: N8_1  and  C7_8 
REMARK    3  A    between atoms: C2_13  and  N1_14 
REMARK    4  A    between atoms: N1_14  and  C17_15 
REMARK    5  A    between atoms: C14_16  and  C13_19 
ROOT
ATOM      1  C17 FTA A   1       7.639  17.586  19.378  1.00  0.00     0.142 C 
ATOM      2  C14 FTA A   1       6.468  17.009  19.044  1.00  0.00     0.158 C 
ATOM      3  C18 FTA A   1       6.261  16.507  17.702  1.00  0.00     0.069 C 
ATOM      4  N21 FTA A   1       6.215  16.202  16.571  1.00  0.00    -0.197 NA
ENDROOT
BRANCH   2   5
ATOM      5  C13 FTA A   1       5.403  16.877  20.065  1.00  0.00     0.197 A 
ATOM      6  N15 FTA A   1       5.458  17.348  21.375  1.00  0.00    -0.093 NA
ATOM      7  N19 FTA A   1       4.276  16.976  22.002  1.00  0.00    -0.231 N 
ATOM      8  N20 FTA A   1       3.484  16.276  21.103  1.00  0.00    -0.017 NA
ATOM      9  H15 FTA A   1       4.026  17.186  22.979  1.00  0.00     0.200 HD
ATOM     10  N16 FTA A   1       4.177  16.223  19.897  1.00  0.00    -0.090 NA
ENDBRANCH   2   5
BRANCH   1  11
ATOM     11  N1  FTA A   1       7.624  18.811  19.940  1.00  0.00    -0.389 N 
ATOM     12  H11 FTA A   1       7.001  19.518  19.524  1.00  0.00     0.159 HD
BRANCH  11  13
ATOM     13  C2  FTA A   1       8.403  19.201  21.063  1.00  0.00     0.028 A 
ATOM     14  C4  FTA A   1       8.826  20.515  21.251  1.00  0.00     0.031 A 
ATOM     15  C6  FTA A   1       9.776  20.788  22.244  1.00  0.00     0.031 A 
ATOM     16  C7  FTA A   1      10.313  19.787  23.050  1.00  0.00     0.032 A 
ATOM     17  C5  FTA A   1       9.864  18.491  22.868  1.00  0.00     0.031 A 
ATOM     18  C3  FTA A   1       8.933  18.198  21.879  1.00  0.00     0.031 A 
BRANCH  16  19
ATOM     19  N8  FTA A   1      11.419  20.003  23.911  1.00  0.00    -0.356 N 
ATOM     20  H1  FTA A   1      12.350  20.078  23.475  1.00  0.00     0.166 HD
BRANCH  19  21
ATOM     21  C24 FTA A   1      11.349  20.125  25.332  1.00  0.00     0.032 A 
ATOM     22  C26 FTA A   1      10.698  21.176  25.934  1.00  0.00     0.029 A 
ATOM     23  C28 FTA A   1      10.813  21.330  27.302  1.00  0.00     0.002 A 
ATOM     24  C30 FTA A   1      11.533  20.448  28.091  1.00  0.00     0.000 A 
ATOM     25  C29 FTA A   1      12.154  19.376  27.508  1.00  0.00     0.002 A 
ATOM     26  C27 FTA A   1      12.042  19.219  26.122  1.00  0.00     0.029 A 
ENDBRANCH  19  21
ENDBRANCH  16  19
ENDBRANCH  11  13
ENDBRANCH   1  11
TORSDOF 5
ENDMDL
MODEL 3
REMARK VINA RESULT:    -6.138      4.108     10.073
REMARK INTER + INTRA:          -8.875
REMARK INTER:                  -7.956
REMARK INTRA:                  -0.919
REMARK UNBOUND:                -0.942
REMARK  5 active torsions:
REMARK  status: ('A' for Active; 'I' for Inactive)
REMARK    1  A    between atoms: N8_1  and  C24_2 
REMARK    2  A    between atoms: N8_1  and  C7_8 
REMARK    3  A    between atoms: C2_13  and  N1_14 
REMARK    4  A    between atoms: N1_14  and  C17_15 
REMARK    5  A    between atoms: C14_16  and  C13_19 
ROOT
ATOM      1  C17 FTA A   1       8.905  17.967  20.144  1.00  0.00     0.142 C 
ATOM      2  C14 FTA A   1       8.516  18.136  21.424  1.00  0.00     0.158 C 
ATOM      3  C18 FTA A   1       9.503  18.244  22.476  1.00  0.00     0.069 C 
ATOM      4  N21 FTA A   1      10.404  18.258  23.226  1.00  0.00    -0.197 NA
ENDROOT
BRANCH   2   5
ATOM      5  C13 FTA A   1       7.072  18.225  21.739  1.00  0.00     0.197 A 
ATOM      6  N15 FTA A   1       6.486  19.071  22.678  1.00  0.00    -0.093 NA
ATOM      7  N19 FTA A   1       5.123  18.802  22.690  1.00  0.00    -0.231 N 
ATOM      8  N20 FTA A   1       4.849  17.797  21.774  1.00  0.00    -0.017 NA
ATOM      9  H15 FTA A   1       4.426  19.274  23.285  1.00  0.00     0.200 HD
ATOM     10  N16 FTA A   1       6.055  17.445  21.175  1.00  0.00    -0.090 NA
ENDBRANCH   2   5
BRANCH   1  11
ATOM     11  N1  FTA A   1       8.391  16.943  19.437  1.00  0.00    -0.389 N 
ATOM     12  H11 FTA A   1       8.490  15.995  19.830  1.00  0.00     0.159 HD
BRANCH  11  13
ATOM     13  C2  FTA A   1       7.722  17.069  18.189  1.00  0.00     0.028 A 
ATOM     14  C4  FTA A   1       6.566  16.352  17.891  1.00  0.00     0.031 A 
ATOM     15  C6  FTA A   1       6.090  16.345  16.573  1.00  0.00     0.031 A 
ATOM     16  C7  FTA A   1       6.737  17.032  15.549  1.00  0.00     0.032 A 
ATOM     17  C5  FTA A   1       7.870  17.760  15.866  1.00  0.00     0.031 A 
ATOM     18  C3  FTA A   1       8.366  17.769  17.164  1.00  0.00     0.031 A 
BRANCH  16  19
ATOM     19  N8  FTA A   1       6.399  16.871  14.181  1.00  0.00    -0.356 N 
ATOM     20  H1  FTA A   1       6.958  17.394  13.492  1.00  0.00     0.166 HD
BRANCH  19  21
ATOM     21  C24 FTA A   1       5.347  16.045  13.681  1.00  0.00     0.032 A 
ATOM     22  C26 FTA A   1       5.594  14.787  13.184  1.00  0.00     0.029 A 
ATOM     23  C28 FTA A   1       4.564  14.109  12.559  1.00  0.00     0.002 A 
ATOM     24  C30 FTA A   1       3.289  14.636  12.443  1.00  0.00     0.000 A 
ATOM     25  C29 FTA A   1       3.022  15.872  12.968  1.00  0.00     0.002 A 
ATOM     26  C27 FTA A   1       4.063  16.563  13.599  1.00  0.00     0.029 A 
ENDBRANCH  19  21
ENDBRANCH  16  19
ENDBRANCH  11  13
ENDBRANCH   1  11
TORSDOF 5
ENDMDL
MODEL 4
REMARK VINA RESULT:    -5.981      1.550      3.069
REMARK INTER + INTRA:          -8.672
REMARK INTER:                  -7.482
REMARK INTRA:                  -1.190
REMARK UNBOUND:                -0.942
REMARK  5 active torsions:
REMARK  status: ('A' for Active; 'I' for Inactive)
REMARK    1  A    between atoms: N8_1  and  C24_2 
REMARK    2  A    between atoms: N8_1  and  C7_8 
REMARK    3  A    between atoms: C2_13  and  N1_14 
REMARK    4  A    between atoms: N1_14  and  C17_15 
REMARK    5  A    between atoms: C14_16  and  C13_19 
ROOT
ATOM      1  C17 FTA A   1       7.630  17.880  20.219  1.00  0.00     0.142 C 
ATOM      2  C14 FTA A   1       6.304  17.730  20.409  1.00  0.00     0.158 C 
ATOM      3  C18 FTA A   1       5.483  17.141  19.373  1.00  0.00     0.069 C 
ATOM      4  N21 FTA A   1       4.938  16.704  18.432  1.00  0.00    -0.197 NA
ENDROOT
BRANCH   2   5
ATOM      5  C13 FTA A   1       5.699  18.160  21.690  1.00  0.00     0.197 A 
ATOM      6  N15 FTA A   1       4.976  17.356  22.568  1.00  0.00    -0.093 NA
ATOM      7  N19 FTA A   1       4.552  18.161  23.618  1.00  0.00    -0.231 N 
ATOM      8  N20 FTA A   1       4.997  19.457  23.407  1.00  0.00    -0.017 NA
ATOM      9  H15 FTA A   1       3.994  17.845  24.425  1.00  0.00     0.200 HD
ATOM     10  N16 FTA A   1       5.718  19.457  22.217  1.00  0.00    -0.090 NA
ENDBRANCH   2   5
BRANCH   1  11
ATOM     11  N1  FTA A   1       8.183  19.094  20.407  1.00  0.00    -0.389 N 
ATOM     12  H11 FTA A   1       7.830  19.871  19.829  1.00  0.00     0.159 HD
BRANCH  11  13
ATOM     13  C2  FTA A   1       9.214  19.384  21.341  1.00  0.00     0.028 A 
ATOM     14  C4  FTA A   1       9.501  18.543  22.413  1.00  0.00     0.031 A 
ATOM     15  C6  FTA A   1      10.364  18.996  23.420  1.00  0.00     0.031 A 
ATOM     16  C7  FTA A   1      10.943  20.262  23.385  1.00  0.00     0.032 A 
ATOM     17  C5  FTA A   1      10.667  21.076  22.301  1.00  0.00     0.031 A 
ATOM     18  C3  FTA A   1       9.803  20.651  21.299  1.00  0.00     0.031 A 
BRANCH  16  19
ATOM     19  N8  FTA A   1      11.645  20.818  24.485  1.00  0.00    -0.356 N 
ATOM     20  H1  FTA A   1      12.524  21.314  24.282  1.00  0.00     0.166 HD
BRANCH  19  21
ATOM     21  C24 FTA A   1      11.233  20.745  25.850  1.00  0.00     0.032 A 
ATOM     22  C26 FTA A   1      10.163  21.470  26.320  1.00  0.00     0.029 A 
ATOM     23  C28 FTA A   1       9.924  21.491  27.681  1.00  0.00     0.002 A 
ATOM     24  C30 FTA A   1      10.701  20.785  28.583  1.00  0.00     0.000 A 
ATOM     25  C29 FTA A   1      11.746  20.028  28.124  1.00  0.00     0.002 A 
ATOM     26  C27 FTA A   1      11.994  20.008  26.747  1.00  0.00     0.029 A 
ENDBRANCH  19  21
ENDBRANCH  16  19
ENDBRANCH  11  13
ENDBRANCH   1  11
TORSDOF 5
ENDMDL
MODEL 5
REMARK VINA RESULT:    -5.967      3.504      7.046
REMARK INTER + INTRA:          -8.653
REMARK INTER:                  -7.568
REMARK INTRA:                  -1.086
REMARK UNBOUND:                -0.942
REMARK  5 active torsions:
REMARK  status: ('A' for Active; 'I' for Inactive)
REMARK    1  A    between atoms: N8_1  and  C24_2 
REMARK    2  A    between atoms: N8_1  and  C7_8 
REMARK    3  A    between atoms: C2_13  and  N1_14 
REMARK    4  A    between atoms: N1_14  and  C17_15 
REMARK    5  A    between atoms: C14_16  and  C13_19 
ROOT
ATOM      1  C17 FTA A   1       6.933  21.273  23.371  1.00  0.00     0.142 C 
ATOM      2  C14 FTA A   1       5.754  20.681  23.645  1.00  0.00     0.158 C 
ATOM      3  C18 FTA A   1       4.893  21.216  24.679  1.00  0.00     0.069 C 
ATOM      4  N21 FTA A   1       4.331  21.722  25.574  1.00  0.00    -0.197 NA
ENDROOT
BRANCH   2   5
ATOM      5  C13 FTA A   1       5.339  19.489  22.869  1.00  0.00     0.197 A 
ATOM      6  N15 FTA A   1       4.988  18.247  23.395  1.00  0.00    -0.093 NA
ATOM      7  N19 FTA A   1       4.713  17.404  22.326  1.00  0.00    -0.231 N 
ATOM      8  N20 FTA A   1       4.891  18.101  21.139  1.00  0.00    -0.017 NA
ATOM      9  H15 FTA A   1       4.424  16.418  22.402  1.00  0.00     0.200 HD
ATOM     10  N16 FTA A   1       5.269  19.397  21.474  1.00  0.00    -0.090 NA
ENDBRANCH   2   5
BRANCH   1  11
ATOM     11  N1  FTA A   1       8.053  20.524  23.371  1.00  0.00    -0.389 N 
ATOM     12  H11 FTA A   1       8.581  20.457  24.254  1.00  0.00     0.159 HD
BRANCH  11  13
ATOM     13  C2  FTA A   1       8.562  19.820  22.246  1.00  0.00     0.028 A 
ATOM     14  C4  FTA A   1       8.597  20.383  20.973  1.00  0.00     0.031 A 
ATOM     15  C6  FTA A   1       8.892  19.563  19.875  1.00  0.00     0.031 A 
ATOM     16  C7  FTA A   1       9.149  18.201  20.016  1.00  0.00     0.032 A 
ATOM     17  C5  FTA A   1       9.135  17.663  21.290  1.00  0.00     0.031 A 
ATOM     18  C3  FTA A   1       8.832  18.456  22.390  1.00  0.00     0.031 A 
BRANCH  16  19
ATOM     19  N8  FTA A   1       9.242  17.318  18.910  1.00  0.00    -0.356 N 
ATOM     20  H1  FTA A   1      10.160  16.890  18.723  1.00  0.00     0.166 HD
BRANCH  19  21
ATOM     21  C24 FTA A   1       8.167  16.972  18.036  1.00  0.00     0.032 A 
ATOM     22  C26 FTA A   1       8.264  17.139  16.675  1.00  0.00     0.029 A 
ATOM     23  C28 FTA A   1       7.133  16.949  15.903  1.00  0.00     0.002 A 
ATOM     24  C30 FTA A   1       5.918  16.568  16.446  1.00  0.00     0.000 A 
ATOM     25  C29 FTA A   1       5.819  16.361  17.796  1.00  0.00     0.002 A 
ATOM     26  C27 FTA A   1       6.961  16.556  18.581  1.00  0.00     0.029 A 
ENDBRANCH  19  21
ENDBRANCH  16  19
ENDBRANCH  11  13
ENDBRANCH   1  11
TORSDOF 5
ENDMDL
MODEL 6
REMARK VINA RESULT:    -5.872      1.894      2.717
REMARK INTER + INTRA:          -8.531
REMARK INTER:                  -7.447
REMARK INTRA:                  -1.084
REMARK UNBOUND:                -0.942
REMARK  5 active torsions:
REMARK  status: ('A' for Active; 'I' for Inactive)
REMARK    1  A    between atoms: N8_1  and  C24_2 
REMARK    2  A    between atoms: N8_1  and  C7_8 
REMARK    3  A    between atoms: C2_13  and  N1_14 
REMARK    4  A    between atoms: N1_14  and  C17_15 
REMARK    5  A    between atoms: C14_16  and  C13_19 
ROOT
ATOM      1  C17 FTA A   1       5.453  16.946  21.262  1.00  0.00     0.142 C 
ATOM      2  C14 FTA A   1       5.244  17.413  20.015  1.00  0.00     0.158 C 
ATOM      3  C18 FTA A   1       5.918  16.803  18.888  1.00  0.00     0.069 C 
ATOM      4  N21 FTA A   1       6.572  16.254  18.085  1.00  0.00    -0.197 NA
ENDROOT
BRANCH   2   5
ATOM      5  C13 FTA A   1       4.309  18.541  19.806  1.00  0.00     0.197 A 
ATOM      6  N15 FTA A   1       4.495  19.854  20.235  1.00  0.00    -0.093 NA
ATOM      7  N19 FTA A   1       3.364  20.575  19.876  1.00  0.00    -0.231 N 
ATOM      8  N20 FTA A   1       2.472  19.732  19.230  1.00  0.00    -0.017 NA
ATOM      9  H15 FTA A   1       3.212  21.578  20.060  1.00  0.00     0.200 HD
ATOM     10  N16 FTA A   1       3.061  18.472  19.176  1.00  0.00    -0.090 NA
ENDBRANCH   2   5
BRANCH   1  11
ATOM     11  N1  FTA A   1       5.823  17.810  22.227  1.00  0.00    -0.389 N 
ATOM     12  H11 FTA A   1       5.171  17.954  23.013  1.00  0.00     0.159 HD
BRANCH  11  13
ATOM     13  C2  FTA A   1       7.043  18.539  22.245  1.00  0.00     0.028 A 
ATOM     14  C4  FTA A   1       8.225  18.018  21.725  1.00  0.00     0.031 A 
ATOM     15  C6  FTA A   1       9.431  18.685  21.979  1.00  0.00     0.031 A 
ATOM     16  C7  FTA A   1       9.487  19.852  22.737  1.00  0.00     0.032 A 
ATOM     17  C5  FTA A   1       8.301  20.371  23.224  1.00  0.00     0.031 A 
ATOM     18  C3  FTA A   1       7.096  19.717  22.995  1.00  0.00     0.031 A 
BRANCH  16  19
ATOM     19  N8  FTA A   1      10.706  20.424  23.180  1.00  0.00    -0.356 N 
ATOM     20  H1  FTA A   1      11.245  20.976  22.497  1.00  0.00     0.166 HD
BRANCH  19  21
ATOM     21  C24 FTA A   1      11.248  20.299  24.495  1.00  0.00     0.032 A 
ATOM     22  C26 FTA A   1      11.782  19.114  24.945  1.00  0.00     0.029 A 
ATOM     23  C28 FTA A   1      12.130  19.009  26.278  1.00  0.00     0.002 A 
ATOM     24  C30 FTA A   1      11.991  20.060  27.168  1.00  0.00     0.000 A 
ATOM     25  C29 FTA A   1      11.497  21.257  26.724  1.00  0.00     0.002 A 
ATOM     26  C27 FTA A   1      11.139  21.366  25.375  1.00  0.00     0.029 A 
ENDBRANCH  19  21
ENDBRANCH  16  19
ENDBRANCH  11  13
ENDBRANCH   1  11
TORSDOF 5
ENDMDL
MODEL 7
REMARK VINA RESULT:    -5.867      1.824      2.991
REMARK INTER + INTRA:          -8.525
REMARK INTER:                  -7.405
REMARK INTRA:                  -1.120
REMARK UNBOUND:                -0.942
REMARK  5 active torsions:
REMARK  status: ('A' for Active; 'I' for Inactive)
REMARK    1  A    between atoms: N8_1  and  C24_2 
REMARK    2  A    between atoms: N8_1  and  C7_8 
REMARK    3  A    between atoms: C2_13  and  N1_14 
REMARK    4  A    between atoms: N1_14  and  C17_15 
REMARK    5  A    between atoms: C14_16  and  C13_19 
ROOT
ATOM      1  C17 FTA A   1       7.054  18.731  19.130  1.00  0.00     0.142 C 
ATOM      2  C14 FTA A   1       5.873  19.110  19.656  1.00  0.00     0.158 C 
ATOM      3  C18 FTA A   1       5.411  20.472  19.500  1.00  0.00     0.069 C 
ATOM      4  N21 FTA A   1       5.193  21.614  19.346  1.00  0.00    -0.197 NA
ENDROOT
BRANCH   2   5
ATOM      5  C13 FTA A   1       5.047  18.118  20.382  1.00  0.00     0.197 A 
ATOM      6  N15 FTA A   1       5.286  17.628  21.664  1.00  0.00    -0.093 NA
ATOM      7  N19 FTA A   1       4.303  16.688  21.942  1.00  0.00    -0.231 N 
ATOM      8  N20 FTA A   1       3.454  16.580  20.851  1.00  0.00    -0.017 NA
ATOM      9  H15 FTA A   1       4.218  16.155  22.820  1.00  0.00     0.200 HD
ATOM     10  N16 FTA A   1       3.907  17.474  19.886  1.00  0.00    -0.090 NA
ENDBRANCH   2   5
BRANCH   1  11
ATOM     11  N1  FTA A   1       7.959  18.127  19.925  1.00  0.00    -0.389 N 
ATOM     12  H11 FTA A   1       8.163  17.134  19.745  1.00  0.00     0.159 HD
BRANCH  11  13
ATOM     13  C2  FTA A   1       8.653  18.757  20.994  1.00  0.00     0.028 A 
ATOM     14  C4  FTA A   1       9.115  20.068  20.907  1.00  0.00     0.031 A 
ATOM     15  C6  FTA A   1       9.986  20.549  21.894  1.00  0.00     0.031 A 
ATOM     16  C7  FTA A   1      10.406  19.757  22.960  1.00  0.00     0.032 A 
ATOM     17  C5  FTA A   1       9.918  18.465  23.045  1.00  0.00     0.031 A 
ATOM     18  C3  FTA A   1       9.065  17.965  22.070  1.00  0.00     0.031 A 
BRANCH  16  19
ATOM     19  N8  FTA A   1      11.441  20.148  23.847  1.00  0.00    -0.356 N 
ATOM     20  H1  FTA A   1      12.350  20.399  23.432  1.00  0.00     0.166 HD
BRANCH  19  21
ATOM     21  C24 FTA A   1      11.327  20.222  25.269  1.00  0.00     0.032 A 
ATOM     22  C26 FTA A   1      10.567  21.190  25.881  1.00  0.00     0.029 A 
ATOM     23  C28 FTA A   1      10.636  21.315  27.256  1.00  0.00     0.002 A 
ATOM     24  C30 FTA A   1      11.416  20.481  28.039  1.00  0.00     0.000 A 
ATOM     25  C29 FTA A   1      12.148  19.489  27.444  1.00  0.00     0.002 A 
ATOM     26  C27 FTA A   1      12.083  19.362  26.052  1.00  0.00     0.029 A 
ENDBRANCH  19  21
ENDBRANCH  16  19
ENDBRANCH  11  13
ENDBRANCH   1  11
TORSDOF 5
ENDMDL
MODEL 8
REMARK VINA RESULT:    -5.846      6.294     11.800
REMARK INTER + INTRA:          -8.496
REMARK INTER:                  -7.687
REMARK INTRA:                  -0.810
REMARK UNBOUND:                -0.942
REMARK  5 active torsions:
REMARK  status: ('A' for Active; 'I' for Inactive)
REMARK    1  A    between atoms: N8_1  and  C24_2 
REMARK    2  A    between atoms: N8_1  and  C7_8 
REMARK    3  A    between atoms: C2_13  and  N1_14 
REMARK    4  A    between atoms: N1_14  and  C17_15 
REMARK    5  A    between atoms: C14_16  and  C13_19 
ROOT
ATOM      1  C17 FTA A   1       4.863  18.685  18.350  1.00  0.00     0.142 C 
ATOM      2  C14 FTA A   1       5.223  17.567  19.010  1.00  0.00     0.158 C 
ATOM      3  C18 FTA A   1       6.364  16.795  18.565  1.00  0.00     0.069 C 
ATOM      4  N21 FTA A   1       7.267  16.243  18.060  1.00  0.00    -0.197 NA
ENDROOT
BRANCH   2   5
ATOM      5  C13 FTA A   1       4.453  17.145  20.202  1.00  0.00     0.197 A 
ATOM      6  N15 FTA A   1       4.881  17.216  21.526  1.00  0.00    -0.093 NA
ATOM      7  N19 FTA A   1       3.877  16.677  22.319  1.00  0.00    -0.231 N 
ATOM      8  N20 FTA A   1       2.828  16.267  21.510  1.00  0.00    -0.017 NA
ATOM      9  H15 FTA A   1       3.907  16.594  23.346  1.00  0.00     0.200 HD
ATOM     10  N16 FTA A   1       3.178  16.567  20.197  1.00  0.00    -0.090 NA
ENDBRANCH   2   5
BRANCH   1  11
ATOM     11  N1  FTA A   1       3.589  18.813  17.931  1.00  0.00    -0.389 N 
ATOM     12  H11 FTA A   1       2.911  19.224  18.588  1.00  0.00     0.159 HD
BRANCH  11  13
ATOM     13  C2  FTA A   1       3.109  18.422  16.651  1.00  0.00     0.028 A 
ATOM     14  C4  FTA A   1       1.821  18.727  16.217  1.00  0.00     0.031 A 
ATOM     15  C6  FTA A   1       1.335  18.120  15.052  1.00  0.00     0.031 A 
ATOM     16  C7  FTA A   1       2.097  17.219  14.312  1.00  0.00     0.032 A 
ATOM     17  C5  FTA A   1       3.384  16.947  14.742  1.00  0.00     0.031 A 
ATOM     18  C3  FTA A   1       3.880  17.528  15.903  1.00  0.00     0.031 A 
BRANCH  16  19
ATOM     19  N8  FTA A   1       1.559  16.439  13.257  1.00  0.00    -0.356 N 
ATOM     20  H1  FTA A   1       1.984  16.547  12.325  1.00  0.00     0.166 HD
BRANCH  19  21
ATOM     21  C24 FTA A   1       0.476  15.517  13.381  1.00  0.00     0.032 A 
ATOM     22  C26 FTA A   1      -0.224  15.076  12.283  1.00  0.00     0.029 A 
ATOM     23  C28 FTA A   1      -1.365  14.323  12.483  1.00  0.00     0.002 A 
ATOM     24  C30 FTA A   1      -1.810  13.970  13.746  1.00  0.00     0.000 A 
ATOM     25  C29 FTA A   1      -1.101  14.371  14.847  1.00  0.00     0.002 A 
ATOM     26  C27 FTA A   1       0.053  15.137  14.647  1.00  0.00     0.029 A 
ENDBRANCH  19  21
ENDBRANCH  16  19
ENDBRANCH  11  13
ENDBRANCH   1  11
TORSDOF 5
ENDMDL
MODEL 9
REMARK VINA RESULT:    -5.692      2.207      4.300
REMARK INTER + INTRA:          -8.297
REMARK INTER:                  -7.355
REMARK INTRA:                  -0.942
REMARK UNBOUND:                -0.942
REMARK  5 active torsions:
REMARK  status: ('A' for Active; 'I' for Inactive)
REMARK    1  A    between atoms: N8_1  and  C24_2 
REMARK    2  A    between atoms: N8_1  and  C7_8 
REMARK    3  A    between atoms: C2_13  and  N1_14 
REMARK    4  A    between atoms: N1_14  and  C17_15 
REMARK    5  A    between atoms: C14_16  and  C13_19 
ROOT
ATOM      1  C17 FTA A   1       9.675  18.545  22.212  1.00  0.00     0.142 C 
ATOM      2  C14 FTA A   1       8.625  18.333  21.394  1.00  0.00     0.158 C 
ATOM      3  C18 FTA A   1       8.843  17.968  20.011  1.00  0.00     0.069 C 
ATOM      4  N21 FTA A   1       9.168  17.736  18.908  1.00  0.00    -0.197 NA
ENDROOT
BRANCH   2   5
ATOM      5  C13 FTA A   1       7.250  18.461  21.926  1.00  0.00     0.197 A 
ATOM      6  N15 FTA A   1       6.835  19.333  22.931  1.00  0.00    -0.093 NA
ATOM      7  N19 FTA A   1       5.485  19.098  23.157  1.00  0.00    -0.231 N 
ATOM      8  N20 FTA A   1       5.050  18.090  22.309  1.00  0.00    -0.017 NA
ATOM      9  H15 FTA A   1       4.899  19.594  23.844  1.00  0.00     0.200 HD
ATOM     10  N16 FTA A   1       6.140  17.701  21.538  1.00  0.00    -0.090 NA
ENDBRANCH   2   5
BRANCH   1  11
ATOM     11  N1  FTA A   1       9.739  19.699  22.904  1.00  0.00    -0.389 N 
ATOM     12  H11 FTA A   1       9.153  20.482  22.579  1.00  0.00     0.159 HD
BRANCH  11  13
ATOM     13  C2  FTA A   1      10.554  19.920  24.048  1.00  0.00     0.028 A 
ATOM     14  C4  FTA A   1      11.462  18.968  24.506  1.00  0.00     0.031 A 
ATOM     15  C6  FTA A   1      12.061  19.148  25.760  1.00  0.00     0.031 A 
ATOM     16  C7  FTA A   1      11.777  20.249  26.564  1.00  0.00     0.032 A 
ATOM     17  C5  FTA A   1      10.892  21.198  26.084  1.00  0.00     0.031 A 
ATOM     18  C3  FTA A   1      10.277  21.031  24.849  1.00  0.00     0.031 A 
BRANCH  16  19
ATOM     19  N8  FTA A   1      12.205  20.347  27.913  1.00  0.00    -0.356 N 
ATOM     20  H1  FTA A   1      13.120  20.787  28.087  1.00  0.00     0.166 HD
BRANCH  19  21
ATOM     21  C24 FTA A   1      11.473  19.886  29.049  1.00  0.00     0.032 A 
ATOM     22  C26 FTA A   1      10.437  20.616  29.582  1.00  0.00     0.029 A 
ATOM     23  C28 FTA A   1       9.884  20.203  30.780  1.00  0.00     0.002 A 
ATOM     24  C30 FTA A   1      10.313  19.065  31.443  1.00  0.00     0.000 A 
ATOM     25  C29 FTA A   1      11.317  18.309  30.901  1.00  0.00     0.002 A 
ATOM     26  C27 FTA A   1      11.882  18.727  29.691  1.00  0.00     0.029 A 
ENDBRANCH  19  21
ENDBRANCH  16  19
ENDBRANCH  11  13
ENDBRANCH   1  11
TORSDOF 5
ENDMDL
