MODEL 1
REMARK VINA RESULT:    -6.000      0.000      0.000
REMARK INTER + INTRA:          -8.793
REMARK INTER:                  -7.881
REMARK INTRA:                  -0.912
REMARK UNBOUND:                -1.039
REMARK  5 active torsions:
REMARK  status: ('A' for Active; 'I' for Inactive)
REMARK    1  A    between atoms: N8_1  and  C24_2 
REMARK    2  A    between atoms: N8_1  and  C7_8 
REMARK    3  A    between atoms: C2_13  and  N1_14 
REMARK    4  A    between atoms: N1_14  and  C17_15 
REMARK    5  A    between atoms: C14_16  and  C13_19 
ROOT
ATOM      1  C17 FTA A   1       8.300  18.017  19.315  1.00  0.00     0.142 C 
ATOM      2  C14 FTA A   1       9.555  18.434  19.059  1.00  0.00     0.158 C 
ATOM      3  C18 FTA A   1      10.120  19.541  19.801  1.00  0.00     0.069 C 
ATOM      4  N21 FTA A   1      10.423  20.479  20.435  1.00  0.00    -0.197 NA
ENDROOT
BRANCH   2   5
ATOM      5  C13 FTA A   1      10.355  17.741  18.023  1.00  0.00     0.197 A 
ATOM      6  N15 FTA A   1      10.032  16.535  17.404  1.00  0.00    -0.093 NA
ATOM      7  N19 FTA A   1      11.069  16.221  16.536  1.00  0.00    -0.231 N 
ATOM      8  N20 FTA A   1      12.037  17.212  16.604  1.00  0.00    -0.017 NA
ATOM      9  H15 FTA A   1      11.112  15.384  15.935  1.00  0.00     0.200 HD
ATOM     10  N16 FTA A   1      11.592  18.161  17.518  1.00  0.00    -0.090 NA
ENDBRANCH   2   5
BRANCH   1  11
ATOM     11  N1  FTA A   1       7.426  17.914  18.295  1.00  0.00    -0.389 N 
ATOM     12  H11 FTA A   1       7.798  18.004  17.339  1.00  0.00     0.159 HD
BRANCH  11  13
ATOM     13  C2  FTA A   1       6.029  17.691  18.438  1.00  0.00     0.028 A 
ATOM     14  C4  FTA A   1       5.266  18.354  19.396  1.00  0.00     0.031 A 
ATOM     15  C6  FTA A   1       3.955  17.923  19.638  1.00  0.00     0.031 A 
ATOM     16  C7  FTA A   1       3.389  16.851  18.953  1.00  0.00     0.032 A 
ATOM     17  C5  FTA A   1       4.151  16.219  17.986  1.00  0.00     0.031 A 
ATOM     18  C3  FTA A   1       5.458  16.622  17.741  1.00  0.00     0.031 A 
BRANCH  16  19
ATOM     19  N8  FTA A   1       2.150  16.268  19.323  1.00  0.00    -0.356 N 
ATOM     20  H1  FTA A   1       1.801  16.465  20.272  1.00  0.00     0.166 HD
BRANCH  19  21
ATOM     21  C24 FTA A   1       1.349  15.431  18.489  1.00  0.00     0.032 A 
ATOM     22  C26 FTA A   1       0.449  15.958  17.593  1.00  0.00     0.029 A 
ATOM     23  C28 FTA A   1      -0.417  15.099  16.942  1.00  0.00     0.002 A 
ATOM     24  C30 FTA A   1      -0.390  13.728  17.137  1.00  0.00     0.000 A 
ATOM     25  C29 FTA A   1       0.527  13.188  17.999  1.00  0.00     0.002 A 
ATOM     26  C27 FTA A   1       1.403  14.056  18.662  1.00  0.00     0.029 A 
ENDBRANCH  19  21
ENDBRANCH  16  19
ENDBRANCH  11  13
ENDBRANCH   1  11
TORSDOF 5
ENDMDL
MODEL 2
REMARK VINA RESULT:    -5.998      1.696      2.784
REMARK INTER + INTRA:          -8.791
REMARK INTER:                  -7.752
REMARK INTRA:                  -1.039
REMARK UNBOUND:                -1.039
REMARK  5 active torsions:
REMARK  status: ('A' for Active; 'I' for Inactive)
REMARK    1  A    between atoms: N8_1  and  C24_2 
REMARK    2  A    between atoms: N8_1  and  C7_8 
REMARK    3  A    between atoms: C2_13  and  N1_14 
REMARK    4  A    between atoms: N1_14  and  C17_15 
REMARK    5  A    between atoms: C14_16  and  C13_19 
ROOT
ATOM      1  C17 FTA A   1       7.913  18.927  18.619  1.00  0.00     0.142 C 
ATOM      2  C14 FTA A   1       8.985  18.921  19.436  1.00  0.00     0.158 C 
ATOM      3  C18 FTA A   1      10.222  19.543  19.018  1.00  0.00     0.069 C 
ATOM      4  N21 FTA A   1      11.169  20.031  18.526  1.00  0.00    -0.197 NA
ENDROOT
BRANCH   2   5
ATOM      5  C13 FTA A   1       8.880  18.287  20.771  1.00  0.00     0.197 A 
ATOM      6  N15 FTA A   1       7.720  18.163  21.533  1.00  0.00    -0.093 NA
ATOM      7  N19 FTA A   1       8.070  17.552  22.730  1.00  0.00    -0.231 N 
ATOM      8  N20 FTA A   1       9.433  17.294  22.728  1.00  0.00    -0.017 NA
ATOM      9  H15 FTA A   1       7.421  17.326  23.498  1.00  0.00     0.200 HD
ATOM     10  N16 FTA A   1       9.935  17.740  21.509  1.00  0.00    -0.090 NA
ENDBRANCH   2   5
BRANCH   1  11
ATOM     11  N1  FTA A   1       7.302  17.759  18.338  1.00  0.00    -0.389 N 
ATOM     12  H11 FTA A   1       7.894  16.977  18.022  1.00  0.00     0.159 HD
BRANCH  11  13
ATOM     13  C2  FTA A   1       5.904  17.525  18.443  1.00  0.00     0.028 A 
ATOM     14  C4  FTA A   1       5.077  18.318  19.233  1.00  0.00     0.031 A 
ATOM     15  C6  FTA A   1       3.762  17.899  19.476  1.00  0.00     0.031 A 
ATOM     16  C7  FTA A   1       3.255  16.712  18.953  1.00  0.00     0.032 A 
ATOM     17  C5  FTA A   1       4.082  15.948  18.149  1.00  0.00     0.031 A 
ATOM     18  C3  FTA A   1       5.393  16.339  17.908  1.00  0.00     0.031 A 
BRANCH  16  19
ATOM     19  N8  FTA A   1       2.009  16.166  19.352  1.00  0.00    -0.356 N 
ATOM     20  H1  FTA A   1       1.696  16.356  20.315  1.00  0.00     0.166 HD
BRANCH  19  21
ATOM     21  C24 FTA A   1       1.151  15.375  18.528  1.00  0.00     0.032 A 
ATOM     22  C26 FTA A   1       1.129  14.004  18.620  1.00  0.00     0.029 A 
ATOM     23  C28 FTA A   1       0.409  13.289  17.681  1.00  0.00     0.002 A 
ATOM     24  C30 FTA A   1      -0.313  13.904  16.673  1.00  0.00     0.000 A 
ATOM     25  C29 FTA A   1      -0.330  15.271  16.594  1.00  0.00     0.002 A 
ATOM     26  C27 FTA A   1       0.401  15.998  17.541  1.00  0.00     0.029 A 
ENDBRANCH  19  21
ENDBRANCH  16  19
ENDBRANCH  11  13
ENDBRANCH   1  11
TORSDOF 5
ENDMDL
MODEL 3
REMARK VINA RESULT:    -5.995      2.016      3.387
REMARK INTER + INTRA:          -8.787
REMARK INTER:                  -7.788
REMARK INTRA:                  -0.998
REMARK UNBOUND:                -1.039
REMARK  5 active torsions:
REMARK  status: ('A' for Active; 'I' for Inactive)
REMARK    1  A    between atoms: N8_1  and  C24_2 
REMARK    2  A    between atoms: N8_1  and  C7_8 
REMARK    3  A    between atoms: C2_13  and  N1_14 
REMARK    4  A    between atoms: N1_14  and  C17_15 
REMARK    5  A    between atoms: C14_16  and  C13_19 
ROOT
ATOM      1  C17 FTA A   1       7.769  18.925  19.939  1.00  0.00     0.142 C 
ATOM      2  C14 FTA A   1       8.890  18.252  20.265  1.00  0.00     0.158 C 
ATOM      3  C18 FTA A   1       9.769  17.756  19.227  1.00  0.00     0.069 C 
ATOM      4  N21 FTA A   1      10.351  17.366  18.287  1.00  0.00    -0.197 NA
ENDROOT
BRANCH   2   5
ATOM      5  C13 FTA A   1       9.223  18.038  21.692  1.00  0.00     0.197 A 
ATOM      6  N15 FTA A   1       8.539  17.211  22.581  1.00  0.00    -0.093 NA
ATOM      7  N19 FTA A   1       9.149  17.337  23.822  1.00  0.00    -0.231 N 
ATOM      8  N20 FTA A   1      10.203  18.234  23.723  1.00  0.00    -0.017 NA
ATOM      9  H15 FTA A   1       8.864  16.844  24.681  1.00  0.00     0.200 HD
ATOM     10  N16 FTA A   1      10.257  18.661  22.400  1.00  0.00    -0.090 NA
ENDBRANCH   2   5
BRANCH   1  11
ATOM     11  N1  FTA A   1       6.592  18.517  20.453  1.00  0.00    -0.389 N 
ATOM     12  H11 FTA A   1       6.403  18.736  21.442  1.00  0.00     0.159 HD
BRANCH  11  13
ATOM     13  C2  FTA A   1       5.591  17.809  19.734  1.00  0.00     0.028 A 
ATOM     14  C4  FTA A   1       5.902  16.951  18.681  1.00  0.00     0.031 A 
ATOM     15  C6  FTA A   1       4.866  16.467  17.871  1.00  0.00     0.031 A 
ATOM     16  C7  FTA A   1       3.535  16.818  18.082  1.00  0.00     0.032 A 
ATOM     17  C5  FTA A   1       3.241  17.651  19.147  1.00  0.00     0.031 A 
ATOM     18  C3  FTA A   1       4.254  18.152  19.954  1.00  0.00     0.031 A 
BRANCH  16  19
ATOM     19  N8  FTA A   1       2.503  16.513  17.158  1.00  0.00    -0.356 N 
ATOM     20  H1  FTA A   1       2.489  17.042  16.274  1.00  0.00     0.166 HD
BRANCH  19  21
ATOM     21  C24 FTA A   1       1.481  15.535  17.353  1.00  0.00     0.032 A 
ATOM     22  C26 FTA A   1       1.650  14.479  18.218  1.00  0.00     0.029 A 
ATOM     23  C28 FTA A   1       0.699  13.477  18.232  1.00  0.00     0.002 A 
ATOM     24  C30 FTA A   1      -0.430  13.512  17.432  1.00  0.00     0.000 A 
ATOM     25  C29 FTA A   1      -0.629  14.577  16.594  1.00  0.00     0.002 A 
ATOM     26  C27 FTA A   1       0.334  15.592  16.575  1.00  0.00     0.029 A 
ENDBRANCH  19  21
ENDBRANCH  16  19
ENDBRANCH  11  13
ENDBRANCH   1  11
TORSDOF 5
ENDMDL
MODEL 4
REMARK VINA RESULT:    -5.750      2.857      5.798
REMARK INTER + INTRA:          -8.471
REMARK INTER:                  -7.411
REMARK INTRA:                  -1.060
REMARK UNBOUND:                -1.039
REMARK  5 active torsions:
REMARK  status: ('A' for Active; 'I' for Inactive)
REMARK    1  A    between atoms: N8_1  and  C24_2 
REMARK    2  A    between atoms: N8_1  and  C7_8 
REMARK    3  A    between atoms: C2_13  and  N1_14 
REMARK    4  A    between atoms: N1_14  and  C17_15 
REMARK    5  A    between atoms: C14_16  and  C13_19 
ROOT
ATOM      1  C17 FTA A   1       4.150  16.392  17.797  1.00  0.00     0.142 C 
ATOM      2  C14 FTA A   1       5.062  17.167  18.417  1.00  0.00     0.158 C 
ATOM      3  C18 FTA A   1       6.466  17.044  18.088  1.00  0.00     0.069 C 
ATOM      4  N21 FTA A   1       7.565  16.796  17.764  1.00  0.00    -0.197 NA
ENDROOT
BRANCH   2   5
ATOM      5  C13 FTA A   1       4.613  18.156  19.424  1.00  0.00     0.197 A 
ATOM      6  N15 FTA A   1       5.436  18.951  20.219  1.00  0.00    -0.093 NA
ATOM      7  N19 FTA A   1       4.615  19.698  21.053  1.00  0.00    -0.231 N 
ATOM      8  N20 FTA A   1       3.290  19.379  20.793  1.00  0.00    -0.017 NA
ATOM      9  H15 FTA A   1       4.937  20.381  21.754  1.00  0.00     0.200 HD
ATOM     10  N16 FTA A   1       3.286  18.431  19.775  1.00  0.00    -0.090 NA
ENDBRANCH   2   5
BRANCH   1  11
ATOM     11  N1  FTA A   1       3.290  15.673  18.545  1.00  0.00    -0.389 N 
ATOM     12  H11 FTA A   1       3.613  15.360  19.472  1.00  0.00     0.159 HD
BRANCH  11  13
ATOM     13  C2  FTA A   1       1.972  15.314  18.153  1.00  0.00     0.028 A 
ATOM     14  C4  FTA A   1       1.492  14.012  18.272  1.00  0.00     0.031 A 
ATOM     15  C6  FTA A   1       0.277  13.677  17.659  1.00  0.00     0.031 A 
ATOM     16  C7  FTA A   1      -0.466  14.604  16.932  1.00  0.00     0.032 A 
ATOM     17  C5  FTA A   1       0.012  15.899  16.844  1.00  0.00     0.031 A 
ATOM     18  C3  FTA A   1       1.221  16.248  17.433  1.00  0.00     0.031 A 
BRANCH  16  19
ATOM     19  N8  FTA A   1      -1.581  14.241  16.134  1.00  0.00    -0.356 N 
ATOM     20  H1  FTA A   1      -2.455  14.002  16.624  1.00  0.00     0.166 HD
BRANCH  19  21
ATOM     21  C24 FTA A   1      -1.591  14.179  14.708  1.00  0.00     0.032 A 
ATOM     22  C26 FTA A   1      -2.711  14.507  13.981  1.00  0.00     0.029 A 
ATOM     23  C28 FTA A   1      -2.713  14.262  12.621  1.00  0.00     0.002 A 
ATOM     24  C30 FTA A   1      -1.619  13.729  11.960  1.00  0.00     0.000 A 
ATOM     25  C29 FTA A   1      -0.484  13.433  12.667  1.00  0.00     0.002 A 
ATOM     26  C27 FTA A   1      -0.481  13.677  14.045  1.00  0.00     0.029 A 
ENDBRANCH  19  21
ENDBRANCH  16  19
ENDBRANCH  11  13
ENDBRANCH   1  11
TORSDOF 5
ENDMDL
MODEL 5
REMARK VINA RESULT:    -5.691      1.384      2.563
REMARK INTER + INTRA:          -8.394
REMARK INTER:                  -7.296
REMARK INTRA:                  -1.099
REMARK UNBOUND:                -1.039
REMARK  5 active torsions:
REMARK  status: ('A' for Active; 'I' for Inactive)
REMARK    1  A    between atoms: N8_1  and  C24_2 
REMARK    2  A    between atoms: N8_1  and  C7_8 
REMARK    3  A    between atoms: C2_13  and  N1_14 
REMARK    4  A    between atoms: N1_14  and  C17_15 
REMARK    5  A    between atoms: C14_16  and  C13_19 
ROOT
ATOM      1  C17 FTA A   1       8.961  17.003  16.779  1.00  0.00     0.142 C 
ATOM      2  C14 FTA A   1      10.078  17.324  17.462  1.00  0.00     0.158 C 
ATOM      3  C18 FTA A   1      11.380  17.015  16.912  1.00  0.00     0.069 C 
ATOM      4  N21 FTA A   1      12.358  16.655  16.375  1.00  0.00    -0.197 NA
ENDROOT
BRANCH   2   5
ATOM      5  C13 FTA A   1       9.960  18.008  18.770  1.00  0.00     0.197 A 
ATOM      6  N15 FTA A   1       9.634  17.409  19.985  1.00  0.00    -0.093 NA
ATOM      7  N19 FTA A   1       9.587  18.411  20.945  1.00  0.00    -0.231 N 
ATOM      8  N20 FTA A   1       9.876  19.629  20.348  1.00  0.00    -0.017 NA
ATOM      9  H15 FTA A   1       9.371  18.272  21.943  1.00  0.00     0.200 HD
ATOM     10  N16 FTA A   1      10.119  19.380  19.001  1.00  0.00    -0.090 NA
ENDBRANCH   2   5
BRANCH   1  11
ATOM     11  N1  FTA A   1       8.004  16.284  17.396  1.00  0.00    -0.389 N 
ATOM     12  H11 FTA A   1       8.281  15.385  17.816  1.00  0.00     0.159 HD
BRANCH  11  13
ATOM     13  C2  FTA A   1       6.641  16.671  17.513  1.00  0.00     0.028 A 
ATOM     14  C4  FTA A   1       6.076  17.038  18.732  1.00  0.00     0.031 A 
ATOM     15  C6  FTA A   1       4.685  17.184  18.821  1.00  0.00     0.031 A 
ATOM     16  C7  FTA A   1       3.848  16.971  17.729  1.00  0.00     0.032 A 
ATOM     17  C5  FTA A   1       4.426  16.632  16.518  1.00  0.00     0.031 A 
ATOM     18  C3  FTA A   1       5.802  16.470  16.413  1.00  0.00     0.031 A 
BRANCH  16  19
ATOM     19  N8  FTA A   1       2.436  16.907  17.843  1.00  0.00    -0.356 N 
ATOM     20  H1  FTA A   1       1.941  17.780  18.077  1.00  0.00     0.166 HD
BRANCH  19  21
ATOM     21  C24 FTA A   1       1.644  15.734  17.660  1.00  0.00     0.032 A 
ATOM     22  C26 FTA A   1       0.552  15.724  16.824  1.00  0.00     0.029 A 
ATOM     23  C28 FTA A   1      -0.271  14.614  16.822  1.00  0.00     0.002 A 
ATOM     24  C30 FTA A   1      -0.020  13.502  17.607  1.00  0.00     0.000 A 
ATOM     25  C29 FTA A   1       1.086  13.483  18.415  1.00  0.00     0.002 A 
ATOM     26  C27 FTA A   1       1.919  14.607  18.421  1.00  0.00     0.029 A 
ENDBRANCH  19  21
ENDBRANCH  16  19
ENDBRANCH  11  13
ENDBRANCH   1  11
TORSDOF 5
ENDMDL
MODEL 6
REMARK VINA RESULT:    -5.667      2.760      8.914
REMARK INTER + INTRA:          -8.363
REMARK INTER:                  -7.235
REMARK INTRA:                  -1.128
REMARK UNBOUND:                -1.039
REMARK  5 active torsions:
REMARK  status: ('A' for Active; 'I' for Inactive)
REMARK    1  A    between atoms: N8_1  and  C24_2 
REMARK    2  A    between atoms: N8_1  and  C7_8 
REMARK    3  A    between atoms: C2_13  and  N1_14 
REMARK    4  A    between atoms: N1_14  and  C17_15 
REMARK    5  A    between atoms: C14_16  and  C13_19 
ROOT
ATOM      1  C17 FTA A   1       1.166  15.871  18.532  1.00  0.00     0.142 C 
ATOM      2  C14 FTA A   1       0.875  14.703  17.926  1.00  0.00     0.158 C 
ATOM      3  C18 FTA A   1       1.305  13.452  18.514  1.00  0.00     0.069 C 
ATOM      4  N21 FTA A   1       1.763  12.528  19.070  1.00  0.00    -0.197 NA
ENDROOT
BRANCH   2   5
ATOM      5  C13 FTA A   1       0.101  14.710  16.664  1.00  0.00     0.197 A 
ATOM      6  N15 FTA A   1      -0.744  15.727  16.224  1.00  0.00    -0.093 NA
ATOM      7  N19 FTA A   1      -1.305  15.313  15.023  1.00  0.00    -0.231 N 
ATOM      8  N20 FTA A   1      -0.825  14.051  14.707  1.00  0.00    -0.017 NA
ATOM      9  H15 FTA A   1      -1.972  15.857  14.456  1.00  0.00     0.200 HD
ATOM     10  N16 FTA A   1       0.056  13.680  15.718  1.00  0.00    -0.090 NA
ENDBRANCH   2   5
BRANCH   1  11
ATOM     11  N1  FTA A   1       1.778  16.839  17.823  1.00  0.00    -0.389 N 
ATOM     12  H11 FTA A   1       1.207  17.641  17.520  1.00  0.00     0.159 HD
BRANCH  11  13
ATOM     13  C2  FTA A   1       3.153  16.837  17.459  1.00  0.00     0.028 A 
ATOM     14  C4  FTA A   1       3.571  17.009  16.142  1.00  0.00     0.031 A 
ATOM     15  C6  FTA A   1       4.913  16.768  15.818  1.00  0.00     0.031 A 
ATOM     16  C7  FTA A   1       5.843  16.360  16.771  1.00  0.00     0.032 A 
ATOM     17  C5  FTA A   1       5.417  16.218  18.080  1.00  0.00     0.031 A 
ATOM     18  C3  FTA A   1       4.088  16.439  18.419  1.00  0.00     0.031 A 
BRANCH  16  19
ATOM     19  N8  FTA A   1       7.145  15.911  16.433  1.00  0.00    -0.356 N 
ATOM     20  H1  FTA A   1       7.238  14.942  16.096  1.00  0.00     0.166 HD
BRANCH  19  21
ATOM     21  C24 FTA A   1       8.337  16.691  16.521  1.00  0.00     0.032 A 
ATOM     22  C26 FTA A   1       8.839  17.365  15.433  1.00  0.00     0.029 A 
ATOM     23  C28 FTA A   1      10.083  17.958  15.538  1.00  0.00     0.002 A 
ATOM     24  C30 FTA A   1      10.826  17.925  16.705  1.00  0.00     0.000 A 
ATOM     25  C29 FTA A   1      10.320  17.290  17.808  1.00  0.00     0.002 A 
ATOM     26  C27 FTA A   1       9.062  16.685  17.704  1.00  0.00     0.029 A 
ENDBRANCH  19  21
ENDBRANCH  16  19
ENDBRANCH  11  13
ENDBRANCH   1  11
TORSDOF 5
ENDMDL
MODEL 7
REMARK VINA RESULT:    -5.665      1.911      3.107
REMARK INTER + INTRA:          -8.361
REMARK INTER:                  -7.273
REMARK INTRA:                  -1.087
REMARK UNBOUND:                -1.039
REMARK  5 active torsions:
REMARK  status: ('A' for Active; 'I' for Inactive)
REMARK    1  A    between atoms: N8_1  and  C24_2 
REMARK    2  A    between atoms: N8_1  and  C7_8 
REMARK    3  A    between atoms: C2_13  and  N1_14 
REMARK    4  A    between atoms: N1_14  and  C17_15 
REMARK    5  A    between atoms: C14_16  and  C13_19 
ROOT
ATOM      1  C17 FTA A   1       7.078  18.445  16.026  1.00  0.00     0.142 C 
ATOM      2  C14 FTA A   1       7.754  17.461  15.402  1.00  0.00     0.158 C 
ATOM      3  C18 FTA A   1       7.162  16.774  14.273  1.00  0.00     0.069 C 
ATOM      4  N21 FTA A   1       6.540  16.271  13.417  1.00  0.00    -0.197 NA
ENDROOT
BRANCH   2   5
ATOM      5  C13 FTA A   1       9.112  17.100  15.869  1.00  0.00     0.197 A 
ATOM      6  N15 FTA A   1       9.424  16.430  17.051  1.00  0.00    -0.093 NA
ATOM      7  N19 FTA A   1      10.807  16.336  17.125  1.00  0.00    -0.231 N 
ATOM      8  N20 FTA A   1      11.365  16.940  16.008  1.00  0.00    -0.017 NA
ATOM      9  H15 FTA A   1      11.335  15.889  17.889  1.00  0.00     0.200 HD
ATOM     10  N16 FTA A   1      10.315  17.405  15.222  1.00  0.00    -0.090 NA
ENDBRANCH   2   5
BRANCH   1  11
ATOM     11  N1  FTA A   1       6.915  18.378  17.362  1.00  0.00    -0.389 N 
ATOM     12  H11 FTA A   1       7.634  18.822  17.952  1.00  0.00     0.159 HD
BRANCH  11  13
ATOM     13  C2  FTA A   1       5.828  17.741  18.019  1.00  0.00     0.028 A 
ATOM     14  C4  FTA A   1       5.492  16.411  17.778  1.00  0.00     0.031 A 
ATOM     15  C6  FTA A   1       4.280  15.915  18.278  1.00  0.00     0.031 A 
ATOM     16  C7  FTA A   1       3.399  16.709  19.007  1.00  0.00     0.032 A 
ATOM     17  C5  FTA A   1       3.759  18.021  19.259  1.00  0.00     0.031 A 
ATOM     18  C3  FTA A   1       4.949  18.536  18.761  1.00  0.00     0.031 A 
BRANCH  16  19
ATOM     19  N8  FTA A   1       2.084  16.294  19.340  1.00  0.00    -0.356 N 
ATOM     20  H1  FTA A   1       1.695  16.628  20.233  1.00  0.00     0.166 HD
BRANCH  19  21
ATOM     21  C24 FTA A   1       1.256  15.451  18.539  1.00  0.00     0.032 A 
ATOM     22  C26 FTA A   1       1.231  14.088  18.715  1.00  0.00     0.029 A 
ATOM     23  C28 FTA A   1       0.544  13.314  17.799  1.00  0.00     0.002 A 
ATOM     24  C30 FTA A   1      -0.144  13.863  16.731  1.00  0.00     0.000 A 
ATOM     25  C29 FTA A   1      -0.159  15.222  16.566  1.00  0.00     0.002 A 
ATOM     26  C27 FTA A   1       0.539  16.008  17.490  1.00  0.00     0.029 A 
ENDBRANCH  19  21
ENDBRANCH  16  19
ENDBRANCH  11  13
ENDBRANCH   1  11
TORSDOF 5
ENDMDL
MODEL 8
REMARK VINA RESULT:    -5.622      2.731      8.930
REMARK INTER + INTRA:          -8.305
REMARK INTER:                  -7.349
REMARK INTRA:                  -0.956
REMARK UNBOUND:                -1.039
REMARK  5 active torsions:
REMARK  status: ('A' for Active; 'I' for Inactive)
REMARK    1  A    between atoms: N8_1  and  C24_2 
REMARK    2  A    between atoms: N8_1  and  C7_8 
REMARK    3  A    between atoms: C2_13  and  N1_14 
REMARK    4  A    between atoms: N1_14  and  C17_15 
REMARK    5  A    between atoms: C14_16  and  C13_19 
ROOT
ATOM      1  C17 FTA A   1       1.356  15.563  18.916  1.00  0.00     0.142 C 
ATOM      2  C14 FTA A   1       0.952  14.471  18.237  1.00  0.00     0.158 C 
ATOM      3  C18 FTA A   1       1.131  13.153  18.807  1.00  0.00     0.069 C 
ATOM      4  N21 FTA A   1       1.390  12.154  19.363  1.00  0.00    -0.197 NA
ENDROOT
BRANCH   2   5
ATOM      5  C13 FTA A   1       0.312  14.633  16.912  1.00  0.00     0.197 A 
ATOM      6  N15 FTA A   1      -0.315  15.783  16.437  1.00  0.00    -0.093 NA
ATOM      7  N19 FTA A   1      -0.818  15.493  15.175  1.00  0.00    -0.231 N 
ATOM      8  N20 FTA A   1      -0.517  14.177  14.856  1.00  0.00    -0.017 NA
ATOM      9  H15 FTA A   1      -1.334  16.151  14.572  1.00  0.00     0.200 HD
ATOM     10  N16 FTA A   1       0.193  13.645  15.927  1.00  0.00    -0.090 NA
ENDBRANCH   2   5
BRANCH   1  11
ATOM     11  N1  FTA A   1       2.171  16.445  18.306  1.00  0.00    -0.389 N 
ATOM     12  H11 FTA A   1       1.909  16.761  17.361  1.00  0.00     0.159 HD
BRANCH  11  13
ATOM     13  C2  FTA A   1       3.366  16.974  18.867  1.00  0.00     0.028 A 
ATOM     14  C4  FTA A   1       3.364  18.093  19.695  1.00  0.00     0.031 A 
ATOM     15  C6  FTA A   1       4.584  18.698  20.025  1.00  0.00     0.031 A 
ATOM     16  C7  FTA A   1       5.801  18.216  19.549  1.00  0.00     0.032 A 
ATOM     17  C5  FTA A   1       5.788  17.088  18.748  1.00  0.00     0.031 A 
ATOM     18  C3  FTA A   1       4.587  16.482  18.399  1.00  0.00     0.031 A 
BRANCH  16  19
ATOM     19  N8  FTA A   1       7.020  18.926  19.695  1.00  0.00    -0.356 N 
ATOM     20  H1  FTA A   1       7.275  19.585  18.945  1.00  0.00     0.166 HD
BRANCH  19  21
ATOM     21  C24 FTA A   1       7.923  18.802  20.794  1.00  0.00     0.032 A 
ATOM     22  C26 FTA A   1       8.927  17.862  20.799  1.00  0.00     0.029 A 
ATOM     23  C28 FTA A   1       9.654  17.678  21.960  1.00  0.00     0.002 A 
ATOM     24  C30 FTA A   1       9.430  18.424  23.104  1.00  0.00     0.000 A 
ATOM     25  C29 FTA A   1       8.459  19.389  23.099  1.00  0.00     0.002 A 
ATOM     26  C27 FTA A   1       7.718  19.576  21.927  1.00  0.00     0.029 A 
ENDBRANCH  19  21
ENDBRANCH  16  19
ENDBRANCH  11  13
ENDBRANCH   1  11
TORSDOF 5
ENDMDL
MODEL 9
REMARK VINA RESULT:    -5.617      1.974      2.676
REMARK INTER + INTRA:          -8.298
REMARK INTER:                  -7.259
REMARK INTRA:                  -1.039
REMARK UNBOUND:                -1.039
REMARK  5 active torsions:
REMARK  status: ('A' for Active; 'I' for Inactive)
REMARK    1  A    between atoms: N8_1  and  C24_2 
REMARK    2  A    between atoms: N8_1  and  C7_8 
REMARK    3  A    between atoms: C2_13  and  N1_14 
REMARK    4  A    between atoms: N1_14  and  C17_15 
REMARK    5  A    between atoms: C14_16  and  C13_19 
ROOT
ATOM      1  C17 FTA A   1       8.762  16.598  17.486  1.00  0.00     0.142 C 
ATOM      2  C14 FTA A   1       9.552  17.051  16.492  1.00  0.00     0.158 C 
ATOM      3  C18 FTA A   1      10.971  16.768  16.505  1.00  0.00     0.069 C 
ATOM      4  N21 FTA A   1      12.103  16.514  16.676  1.00  0.00    -0.197 NA
ENDROOT
BRANCH   2   5
ATOM      5  C13 FTA A   1       8.953  17.825  15.380  1.00  0.00     0.197 A 
ATOM      6  N15 FTA A   1       8.334  19.069  15.484  1.00  0.00    -0.093 NA
ATOM      7  N19 FTA A   1       7.874  19.413  14.220  1.00  0.00    -0.231 N 
ATOM      8  N20 FTA A   1       8.194  18.401  13.328  1.00  0.00    -0.017 NA
ATOM      9  H15 FTA A   1       7.374  20.283  13.983  1.00  0.00     0.200 HD
ATOM     10  N16 FTA A   1       8.872  17.420  14.043  1.00  0.00    -0.090 NA
ENDBRANCH   2   5
BRANCH   1  11
ATOM     11  N1  FTA A   1       7.968  17.471  18.136  1.00  0.00    -0.389 N 
ATOM     12  H11 FTA A   1       8.420  18.278  18.590  1.00  0.00     0.159 HD
BRANCH  11  13
ATOM     13  C2  FTA A   1       6.555  17.365  18.242  1.00  0.00     0.028 A 
ATOM     14  C4  FTA A   1       5.817  18.146  19.129  1.00  0.00     0.031 A 
ATOM     15  C6  FTA A   1       4.469  17.833  19.351  1.00  0.00     0.031 A 
ATOM     16  C7  FTA A   1       3.842  16.765  18.714  1.00  0.00     0.032 A 
ATOM     17  C5  FTA A   1       4.582  16.015  17.817  1.00  0.00     0.031 A 
ATOM     18  C3  FTA A   1       5.923  16.300  17.594  1.00  0.00     0.031 A 
BRANCH  16  19
ATOM     19  N8  FTA A   1       2.551  16.304  19.076  1.00  0.00    -0.356 N 
ATOM     20  H1  FTA A   1       2.182  16.603  19.991  1.00  0.00     0.166 HD
BRANCH  19  21
ATOM     21  C24 FTA A   1       1.721  15.460  18.278  1.00  0.00     0.032 A 
ATOM     22  C26 FTA A   1       1.016  15.951  17.204  1.00  0.00     0.029 A 
ATOM     23  C28 FTA A   1       0.100  15.125  16.580  1.00  0.00     0.002 A 
ATOM     24  C30 FTA A   1      -0.110  13.815  16.977  1.00  0.00     0.000 A 
ATOM     25  C29 FTA A   1       0.613  13.303  18.021  1.00  0.00     0.002 A 
ATOM     26  C27 FTA A   1       1.538  14.138  18.657  1.00  0.00     0.029 A 
ENDBRANCH  19  21
ENDBRANCH  16  19
ENDBRANCH  11  13
ENDBRANCH   1  11
TORSDOF 5
ENDMDL
