MODEL 1
REMARK VINA RESULT:    -6.807      0.000      0.000
REMARK INTER + INTRA:          -8.720
REMARK INTER:                  -7.837
REMARK INTRA:                  -0.883
REMARK UNBOUND:                -0.719
REMARK  4 active torsions:
REMARK  status: ('A' for Active; 'I' for Inactive)
REMARK    1  A    between atoms: O_1  and  C_2 
REMARK    2  A    between atoms: C_5  and  C_6 
REMARK    3  A    between atoms: C_10  and  C_11 
REMARK    4  A    between atoms: C_17  and  O_18 
ROOT
HETATM    1  C   UNL     1      -0.977  12.532  23.351  0.00  0.00     0.110 A 
HETATM    2  N   UNL     1      -1.473  11.665  24.255  0.00  0.00    -0.127 NA
HETATM    3  O   UNL     1      -0.399  11.172  24.959  0.00  0.00    -0.224 OA
HETATM    4  C   UNL     1       0.742  11.723  24.487  0.00  0.00     0.184 A 
HETATM    5  C   UNL     1       0.455  12.597  23.463  0.00  0.00     0.030 A 
ENDROOT
BRANCH   1   6
HETATM    6  C   UNL     1      -1.882  13.204  22.407  0.00  0.00     0.029 A 
HETATM    7  C   UNL     1      -1.983  14.606  22.388  0.00  0.00     0.019 A 
HETATM    8  C   UNL     1      -2.678  15.267  21.369  0.00  0.00     0.037 A 
HETATM    9  C   UNL     1      -3.317  14.522  20.386  0.00  0.00     0.068 A 
HETATM   10  C   UNL     1      -3.320  13.133  20.438  0.00  0.00     0.074 A 
HETATM   11  C   UNL     1      -2.618  12.480  21.450  0.00  0.00     0.081 A 
BRANCH   9  12
HETATM   12  O   UNL     1      -3.952  15.129  19.343  0.00  0.00    -0.361 OA
HETATM   13  H   UNL     1      -4.890  14.879  19.357  0.00  0.00     0.217 HD
ENDBRANCH   9  12
BRANCH  11  14
HETATM   14  O   UNL     1      -2.684  11.112  21.436  0.00  0.00    -0.360 OA
HETATM   15  H   UNL     1      -2.046  10.778  22.101  0.00  0.00     0.217 HD
ENDBRANCH  11  14
ENDBRANCH   1   6
BRANCH   5  16
HETATM   16  C   UNL     1       1.474  13.354  22.749  0.00  0.00    -0.022 A 
HETATM   17  C   UNL     1       2.550  13.941  23.432  0.00  0.00     0.012 A 
HETATM   18  C   UNL     1       3.615  14.511  22.730  0.00  0.00     0.001 A 
HETATM   19  C   UNL     1       3.588  14.557  21.339  0.00  0.00     0.000 A 
HETATM   20  C   UNL     1       2.489  14.051  20.651  0.00  0.00     0.001 A 
HETATM   21  C   UNL     1       1.438  13.451  21.350  0.00  0.00     0.012 A 
ENDBRANCH   5  16
TORSDOF 4
ENDMDL
MODEL 2
REMARK VINA RESULT:    -6.778      2.839      4.477
REMARK INTER + INTRA:          -8.686
REMARK INTER:                  -7.767
REMARK INTRA:                  -0.920
REMARK UNBOUND:                -0.719
REMARK  4 active torsions:
REMARK  status: ('A' for Active; 'I' for Inactive)
REMARK    1  A    between atoms: O_1  and  C_2 
REMARK    2  A    between atoms: C_5  and  C_6 
REMARK    3  A    between atoms: C_10  and  C_11 
REMARK    4  A    between atoms: C_17  and  O_18 
ROOT
HETATM    1  C   UNL     1      -2.067  11.640  22.908  0.00  0.00     0.110 A 
HETATM    2  N   UNL     1      -2.537  11.144  21.747  0.00  0.00    -0.127 NA
HETATM    3  O   UNL     1      -1.705  11.608  20.755  0.00  0.00    -0.224 OA
HETATM    4  C   UNL     1      -0.742  12.387  21.299  0.00  0.00     0.184 A 
HETATM    5  C   UNL     1      -0.907  12.455  22.663  0.00  0.00     0.030 A 
ENDROOT
BRANCH   1   6
HETATM    6  C   UNL     1      -2.773  11.355  24.166  0.00  0.00     0.029 A 
HETATM    7  C   UNL     1      -2.086  10.799  25.259  0.00  0.00     0.019 A 
HETATM    8  C   UNL     1      -2.688  10.711  26.520  0.00  0.00     0.037 A 
HETATM    9  C   UNL     1      -4.000  11.138  26.681  0.00  0.00     0.068 A 
HETATM   10  C   UNL     1      -4.735  11.597  25.594  0.00  0.00     0.074 A 
HETATM   11  C   UNL     1      -4.128  11.691  24.342  0.00  0.00     0.081 A 
BRANCH   9  12
HETATM   12  O   UNL     1      -4.599  11.126  27.906  0.00  0.00    -0.361 OA
HETATM   13  H   UNL     1      -4.949  10.236  28.075  0.00  0.00     0.217 HD
ENDBRANCH   9  12
BRANCH  11  14
HETATM   14  O   UNL     1      -4.926  12.139  23.324  0.00  0.00    -0.360 OA
HETATM   15  H   UNL     1      -4.367  12.674  22.723  0.00  0.00     0.217 HD
ENDBRANCH  11  14
ENDBRANCH   1   6
BRANCH   5  16
HETATM   16  C   UNL     1      -0.024  13.215  23.538  0.00  0.00    -0.022 A 
HETATM   17  C   UNL     1       1.355  12.962  23.569  0.00  0.00     0.012 A 
HETATM   18  C   UNL     1       2.219  13.806  24.271  0.00  0.00     0.001 A 
HETATM   19  C   UNL     1       1.709  14.877  25.001  0.00  0.00     0.000 A 
HETATM   20  C   UNL     1       0.334  15.091  25.044  0.00  0.00     0.001 A 
HETATM   21  C   UNL     1      -0.528  14.268  24.316  0.00  0.00     0.012 A 
ENDBRANCH   5  16
TORSDOF 4
ENDMDL
MODEL 3
REMARK VINA RESULT:    -6.679      2.377      4.086
REMARK INTER + INTRA:          -8.570
REMARK INTER:                  -7.902
REMARK INTRA:                  -0.667
REMARK UNBOUND:                -0.719
REMARK  4 active torsions:
REMARK  status: ('A' for Active; 'I' for Inactive)
REMARK    1  A    between atoms: O_1  and  C_2 
REMARK    2  A    between atoms: C_5  and  C_6 
REMARK    3  A    between atoms: C_10  and  C_11 
REMARK    4  A    between atoms: C_17  and  O_18 
ROOT
HETATM    1  C   UNL     1      -1.894  12.162  23.284  0.00  0.00     0.110 A 
HETATM    2  N   UNL     1      -2.959  11.499  22.796  0.00  0.00    -0.127 NA
HETATM    3  O   UNL     1      -2.636  11.126  21.511  0.00  0.00    -0.224 OA
HETATM    4  C   UNL     1      -1.392  11.564  21.213  0.00  0.00     0.184 A 
HETATM    5  C   UNL     1      -0.857  12.232  22.290  0.00  0.00     0.030 A 
ENDROOT
BRANCH   1   6
HETATM    6  C   UNL     1      -1.944  12.732  24.639  0.00  0.00     0.029 A 
HETATM    7  C   UNL     1      -1.795  14.115  24.838  0.00  0.00     0.019 A 
HETATM    8  C   UNL     1      -2.041  14.695  26.088  0.00  0.00     0.037 A 
HETATM    9  C   UNL     1      -2.393  13.884  27.159  0.00  0.00     0.068 A 
HETATM   10  C   UNL     1      -2.447  12.503  27.015  0.00  0.00     0.074 A 
HETATM   11  C   UNL     1      -2.210  11.931  25.765  0.00  0.00     0.081 A 
BRANCH   9  12
HETATM   12  O   UNL     1      -2.700  14.417  28.376  0.00  0.00    -0.361 OA
HETATM   13  H   UNL     1      -3.647  14.288  28.546  0.00  0.00     0.217 HD
ENDBRANCH   9  12
BRANCH  11  14
HETATM   14  O   UNL     1      -2.270  10.563  25.713  0.00  0.00    -0.360 OA
HETATM   15  H   UNL     1      -3.161  10.294  26.019  0.00  0.00     0.217 HD
ENDBRANCH  11  14
ENDBRANCH   1   6
BRANCH   5  16
HETATM   16  C   UNL     1       0.476  12.819  22.285  0.00  0.00    -0.022 A 
HETATM   17  C   UNL     1       1.041  13.319  21.103  0.00  0.00     0.012 A 
HETATM   18  C   UNL     1       2.238  14.039  21.132  0.00  0.00     0.001 A 
HETATM   19  C   UNL     1       2.916  14.216  22.336  0.00  0.00     0.000 A 
HETATM   20  C   UNL     1       2.408  13.656  23.505  0.00  0.00     0.001 A 
HETATM   21  C   UNL     1       1.194  12.964  23.481  0.00  0.00     0.012 A 
ENDBRANCH   5  16
TORSDOF 4
ENDMDL
MODEL 4
REMARK VINA RESULT:    -6.626      2.654      4.521
REMARK INTER + INTRA:          -8.507
REMARK INTER:                  -7.593
REMARK INTRA:                  -0.914
REMARK UNBOUND:                -0.719
REMARK  4 active torsions:
REMARK  status: ('A' for Active; 'I' for Inactive)
REMARK    1  A    between atoms: O_1  and  C_2 
REMARK    2  A    between atoms: C_5  and  C_6 
REMARK    3  A    between atoms: C_10  and  C_11 
REMARK    4  A    between atoms: C_17  and  O_18 
ROOT
HETATM    1  C   UNL     1      -3.667  13.345  22.353  0.00  0.00     0.110 A 
HETATM    2  N   UNL     1      -4.926  13.398  21.876  0.00  0.00    -0.127 NA
HETATM    3  O   UNL     1      -4.828  13.724  20.543  0.00  0.00    -0.224 OA
HETATM    4  C   UNL     1      -3.527  13.878  20.209  0.00  0.00     0.184 A 
HETATM    5  C   UNL     1      -2.729  13.654  21.308  0.00  0.00     0.030 A 
ENDROOT
BRANCH   1   6
HETATM    6  C   UNL     1      -3.435  13.057  23.776  0.00  0.00     0.029 A 
HETATM    7  C   UNL     1      -2.557  13.854  24.532  0.00  0.00     0.019 A 
HETATM    8  C   UNL     1      -2.480  13.723  25.923  0.00  0.00     0.037 A 
HETATM    9  C   UNL     1      -3.249  12.757  26.561  0.00  0.00     0.068 A 
HETATM   10  C   UNL     1      -4.047  11.888  25.827  0.00  0.00     0.074 A 
HETATM   11  C   UNL     1      -4.128  12.030  24.442  0.00  0.00     0.081 A 
BRANCH   9  12
HETATM   12  O   UNL     1      -3.247  12.640  27.919  0.00  0.00    -0.361 OA
HETATM   13  H   UNL     1      -4.054  12.176  28.196  0.00  0.00     0.217 HD
ENDBRANCH   9  12
BRANCH  11  14
HETATM   14  O   UNL     1      -4.926  11.124  23.795  0.00  0.00    -0.360 OA
HETATM   15  H   UNL     1      -5.384  10.592  24.478  0.00  0.00     0.217 HD
ENDBRANCH  11  14
ENDBRANCH   1   6
BRANCH   5  16
HETATM   16  C   UNL     1      -1.275  13.740  21.270  0.00  0.00    -0.022 A 
HETATM   17  C   UNL     1      -0.617  14.959  21.485  0.00  0.00     0.012 A 
HETATM   18  C   UNL     1       0.772  15.005  21.626  0.00  0.00     0.001 A 
HETATM   19  C   UNL     1       1.526  13.841  21.492  0.00  0.00     0.000 A 
HETATM   20  C   UNL     1       0.892  12.637  21.198  0.00  0.00     0.001 A 
HETATM   21  C   UNL     1      -0.500  12.584  21.090  0.00  0.00     0.012 A 
ENDBRANCH   5  16
TORSDOF 4
ENDMDL
MODEL 5
REMARK VINA RESULT:    -6.313      2.762      4.819
REMARK INTER + INTRA:          -8.139
REMARK INTER:                  -7.178
REMARK INTRA:                  -0.961
REMARK UNBOUND:                -0.719
REMARK  4 active torsions:
REMARK  status: ('A' for Active; 'I' for Inactive)
REMARK    1  A    between atoms: O_1  and  C_2 
REMARK    2  A    between atoms: C_5  and  C_6 
REMARK    3  A    between atoms: C_10  and  C_11 
REMARK    4  A    between atoms: C_17  and  O_18 
ROOT
HETATM    1  C   UNL     1      -2.745  12.428  23.265  0.00  0.00     0.110 A 
HETATM    2  N   UNL     1      -3.786  12.216  22.438  0.00  0.00    -0.127 NA
HETATM    3  O   UNL     1      -3.535  12.939  21.295  0.00  0.00    -0.224 OA
HETATM    4  C   UNL     1      -2.358  13.593  21.423  0.00  0.00     0.184 A 
HETATM    5  C   UNL     1      -1.798  13.319  22.649  0.00  0.00     0.030 A 
ENDROOT
BRANCH   1   6
HETATM    6  C   UNL     1      -2.735  11.818  24.603  0.00  0.00     0.029 A 
HETATM    7  C   UNL     1      -1.707  10.936  24.978  0.00  0.00     0.019 A 
HETATM    8  C   UNL     1      -1.570  10.508  26.303  0.00  0.00     0.037 A 
HETATM    9  C   UNL     1      -2.493  10.927  27.254  0.00  0.00     0.068 A 
HETATM   10  C   UNL     1      -3.577  11.716  26.889  0.00  0.00     0.074 A 
HETATM   11  C   UNL     1      -3.703  12.146  25.569  0.00  0.00     0.081 A 
BRANCH   9  12
HETATM   12  O   UNL     1      -2.358  10.582  28.566  0.00  0.00    -0.361 OA
HETATM   13  H   UNL     1      -3.186  10.175  28.870  0.00  0.00     0.217 HD
ENDBRANCH   9  12
BRANCH  11  14
HETATM   14  O   UNL     1      -4.808  12.908  25.292  0.00  0.00    -0.360 OA
HETATM   15  H   UNL     1      -5.000  12.814  24.336  0.00  0.00     0.217 HD
ENDBRANCH  11  14
ENDBRANCH   1   6
BRANCH   5  16
HETATM   16  C   UNL     1      -0.523  13.871  23.086  0.00  0.00    -0.022 A 
HETATM   17  C   UNL     1      -0.447  14.721  24.199  0.00  0.00     0.012 A 
HETATM   18  C   UNL     1       0.791  15.104  24.721  0.00  0.00     0.001 A 
HETATM   19  C   UNL     1       1.968  14.691  24.101  0.00  0.00     0.000 A 
HETATM   20  C   UNL     1       1.906  13.913  22.948  0.00  0.00     0.001 A 
HETATM   21  C   UNL     1       0.669  13.503  22.444  0.00  0.00     0.012 A 
ENDBRANCH   5  16
TORSDOF 4
ENDMDL
MODEL 6
REMARK VINA RESULT:    -6.306      2.221      2.427
REMARK INTER + INTRA:          -8.131
REMARK INTER:                  -7.208
REMARK INTRA:                  -0.922
REMARK UNBOUND:                -0.719
REMARK  4 active torsions:
REMARK  status: ('A' for Active; 'I' for Inactive)
REMARK    1  A    between atoms: O_1  and  C_2 
REMARK    2  A    between atoms: C_5  and  C_6 
REMARK    3  A    between atoms: C_10  and  C_11 
REMARK    4  A    between atoms: C_17  and  O_18 
ROOT
HETATM    1  C   UNL     1      -0.553  11.289  24.973  0.00  0.00     0.110 A 
HETATM    2  N   UNL     1      -0.638  10.112  25.621  0.00  0.00    -0.127 NA
HETATM    3  O   UNL     1       0.635   9.592  25.662  0.00  0.00    -0.224 OA
HETATM    4  C   UNL     1       1.489  10.436  25.040  0.00  0.00     0.184 A 
HETATM    5  C   UNL     1       0.807  11.537  24.575  0.00  0.00     0.030 A 
ENDROOT
BRANCH   1   6
HETATM    6  C   UNL     1      -1.768  12.080  24.727  0.00  0.00     0.029 A 
HETATM    7  C   UNL     1      -1.930  13.344  25.319  0.00  0.00     0.019 A 
HETATM    8  C   UNL     1      -2.977  14.191  24.938  0.00  0.00     0.037 A 
HETATM    9  C   UNL     1      -3.897  13.756  23.992  0.00  0.00     0.068 A 
HETATM   10  C   UNL     1      -3.820  12.472  23.467  0.00  0.00     0.074 A 
HETATM   11  C   UNL     1      -2.769  11.636  23.843  0.00  0.00     0.081 A 
BRANCH   9  12
HETATM   12  O   UNL     1      -4.894  14.575  23.551  0.00  0.00    -0.361 OA
HETATM   13  H   UNL     1      -4.526  15.195  22.900  0.00  0.00     0.217 HD
ENDBRANCH   9  12
BRANCH  11  14
HETATM   14  O   UNL     1      -2.775  10.383  23.289  0.00  0.00    -0.360 OA
HETATM   15  H   UNL     1      -1.879  10.213  22.930  0.00  0.00     0.217 HD
ENDBRANCH  11  14
ENDBRANCH   1   6
BRANCH   5  16
HETATM   16  C   UNL     1       1.449  12.633  23.862  0.00  0.00    -0.022 A 
HETATM   17  C   UNL     1       2.510  13.347  24.438  0.00  0.00     0.012 A 
HETATM   18  C   UNL     1       3.237  14.274  23.688  0.00  0.00     0.001 A 
HETATM   19  C   UNL     1       2.875  14.543  22.371  0.00  0.00     0.000 A 
HETATM   20  C   UNL     1       1.774  13.901  21.811  0.00  0.00     0.001 A 
HETATM   21  C   UNL     1       1.066  12.950  22.550  0.00  0.00     0.012 A 
ENDBRANCH   5  16
TORSDOF 4
ENDMDL
MODEL 7
REMARK VINA RESULT:    -6.285      2.652      5.329
REMARK INTER + INTRA:          -8.107
REMARK INTER:                  -7.388
REMARK INTRA:                  -0.719
REMARK UNBOUND:                -0.719
REMARK  4 active torsions:
REMARK  status: ('A' for Active; 'I' for Inactive)
REMARK    1  A    between atoms: O_1  and  C_2 
REMARK    2  A    between atoms: C_5  and  C_6 
REMARK    3  A    between atoms: C_10  and  C_11 
REMARK    4  A    between atoms: C_17  and  O_18 
ROOT
HETATM    1  C   UNL     1      -0.918  12.518  23.847  0.00  0.00     0.110 A 
HETATM    2  N   UNL     1       0.388  12.207  23.952  0.00  0.00    -0.127 NA
HETATM    3  O   UNL     1       0.991  12.642  22.794  0.00  0.00    -0.224 OA
HETATM    4  C   UNL     1       0.064  13.203  21.986  0.00  0.00     0.184 A 
HETATM    5  C   UNL     1      -1.173  13.161  22.586  0.00  0.00     0.030 A 
ENDROOT
BRANCH   1   6
HETATM    6  C   UNL     1      -1.849  12.143  24.922  0.00  0.00     0.029 A 
HETATM    7  C   UNL     1      -1.846  12.837  26.144  0.00  0.00     0.019 A 
HETATM    8  C   UNL     1      -2.854  12.630  27.094  0.00  0.00     0.037 A 
HETATM    9  C   UNL     1      -3.845  11.690  26.843  0.00  0.00     0.068 A 
HETATM   10  C   UNL     1      -3.814  10.918  25.688  0.00  0.00     0.074 A 
HETATM   11  C   UNL     1      -2.813  11.134  24.741  0.00  0.00     0.081 A 
BRANCH   9  12
HETATM   12  O   UNL     1      -4.876  11.505  27.715  0.00  0.00    -0.361 OA
HETATM   13  H   UNL     1      -5.470  12.272  27.668  0.00  0.00     0.217 HD
ENDBRANCH   9  12
BRANCH  11  14
HETATM   14  O   UNL     1      -2.847  10.321  23.639  0.00  0.00    -0.360 OA
HETATM   15  H   UNL     1      -2.359  10.774  22.922  0.00  0.00     0.217 HD
ENDBRANCH  11  14
ENDBRANCH   1   6
BRANCH   5  16
HETATM   16  C   UNL     1      -2.380  13.692  21.968  0.00  0.00    -0.022 A 
HETATM   17  C   UNL     1      -2.718  13.369  20.646  0.00  0.00     0.012 A 
HETATM   18  C   UNL     1      -3.959  13.733  20.117  0.00  0.00     0.001 A 
HETATM   19  C   UNL     1      -4.853  14.478  20.883  0.00  0.00     0.000 A 
HETATM   20  C   UNL     1      -4.497  14.875  22.170  0.00  0.00     0.001 A 
HETATM   21  C   UNL     1      -3.270  14.483  22.711  0.00  0.00     0.012 A 
ENDBRANCH   5  16
TORSDOF 4
ENDMDL
MODEL 8
REMARK VINA RESULT:    -6.259      2.051      5.054
REMARK INTER + INTRA:          -8.076
REMARK INTER:                  -7.198
REMARK INTRA:                  -0.878
REMARK UNBOUND:                -0.719
REMARK  4 active torsions:
REMARK  status: ('A' for Active; 'I' for Inactive)
REMARK    1  A    between atoms: O_1  and  C_2 
REMARK    2  A    between atoms: C_5  and  C_6 
REMARK    3  A    between atoms: C_10  and  C_11 
REMARK    4  A    between atoms: C_17  and  O_18 
ROOT
HETATM    1  C   UNL     1      -1.499  11.066  22.865  0.00  0.00     0.110 A 
HETATM    2  N   UNL     1      -2.773  10.846  22.490  0.00  0.00    -0.127 NA
HETATM    3  O   UNL     1      -3.041  11.727  21.468  0.00  0.00    -0.224 OA
HETATM    4  C   UNL     1      -1.947  12.484  21.225  0.00  0.00     0.184 A 
HETATM    5  C   UNL     1      -0.926  12.122  22.074  0.00  0.00     0.030 A 
ENDROOT
BRANCH   1   6
HETATM    6  C   UNL     1      -0.920  10.300  23.979  0.00  0.00     0.029 A 
HETATM    7  C   UNL     1       0.250   9.543  23.793  0.00  0.00     0.019 A 
HETATM    8  C   UNL     1       0.924   8.977  24.882  0.00  0.00     0.037 A 
HETATM    9  C   UNL     1       0.402   9.128  26.160  0.00  0.00     0.068 A 
HETATM   10  C   UNL     1      -0.807   9.783  26.360  0.00  0.00     0.074 A 
HETATM   11  C   UNL     1      -1.470  10.353  25.273  0.00  0.00     0.081 A 
BRANCH   9  12
HETATM   12  O   UNL     1       1.061   8.644  27.251  0.00  0.00    -0.361 OA
HETATM   13  H   UNL     1       0.856   7.700  27.349  0.00  0.00     0.217 HD
ENDBRANCH   9  12
BRANCH  11  14
HETATM   14  O   UNL     1      -2.661  10.967  25.555  0.00  0.00    -0.360 OA
HETATM   15  H   UNL     1      -3.378  10.337  25.334  0.00  0.00     0.217 HD
ENDBRANCH  11  14
ENDBRANCH   1   6
BRANCH   5  16
HETATM   16  C   UNL     1       0.388  12.750  22.058  0.00  0.00    -0.022 A 
HETATM   17  C   UNL     1       1.033  13.046  20.848  0.00  0.00     0.012 A 
HETATM   18  C   UNL     1       2.206  13.805  20.831  0.00  0.00     0.001 A 
HETATM   19  C   UNL     1       2.781  14.226  22.028  0.00  0.00     0.000 A 
HETATM   20  C   UNL     1       2.196  13.871  23.240  0.00  0.00     0.001 A 
HETATM   21  C   UNL     1       1.005  13.139  23.256  0.00  0.00     0.012 A 
ENDBRANCH   5  16
TORSDOF 4
ENDMDL
MODEL 9
REMARK VINA RESULT:    -6.237      3.495      4.527
REMARK INTER + INTRA:          -8.050
REMARK INTER:                  -7.202
REMARK INTRA:                  -0.848
REMARK UNBOUND:                -0.719
REMARK  4 active torsions:
REMARK  status: ('A' for Active; 'I' for Inactive)
REMARK    1  A    between atoms: O_1  and  C_2 
REMARK    2  A    between atoms: C_5  and  C_6 
REMARK    3  A    between atoms: C_10  and  C_11 
REMARK    4  A    between atoms: C_17  and  O_18 
ROOT
HETATM    1  C   UNL     1      -3.397  12.093  25.816  0.00  0.00     0.110 A 
HETATM    2  N   UNL     1      -4.471  12.274  26.608  0.00  0.00    -0.127 NA
HETATM    3  O   UNL     1      -4.463  11.246  27.523  0.00  0.00    -0.224 OA
HETATM    4  C   UNL     1      -3.403  10.440  27.288  0.00  0.00     0.184 A 
HETATM    5  C   UNL     1      -2.680  10.914  26.218  0.00  0.00     0.030 A 
ENDROOT
BRANCH   1   6
HETATM    6  C   UNL     1      -3.146  13.016  24.699  0.00  0.00     0.029 A 
HETATM    7  C   UNL     1      -2.139  13.993  24.791  0.00  0.00     0.019 A 
HETATM    8  C   UNL     1      -1.753  14.739  23.672  0.00  0.00     0.037 A 
HETATM    9  C   UNL     1      -2.407  14.543  22.462  0.00  0.00     0.068 A 
HETATM   10  C   UNL     1      -3.474  13.658  22.369  0.00  0.00     0.074 A 
HETATM   11  C   UNL     1      -3.849  12.910  23.485  0.00  0.00     0.081 A 
BRANCH   9  12
HETATM   12  O   UNL     1      -2.018  15.206  21.336  0.00  0.00    -0.361 OA
HETATM   13  H   UNL     1      -2.776  15.704  20.987  0.00  0.00     0.217 HD
ENDBRANCH   9  12
BRANCH  11  14
HETATM   14  O   UNL     1      -4.919  12.072  23.310  0.00  0.00    -0.360 OA
HETATM   15  H   UNL     1      -5.094  12.013  22.348  0.00  0.00     0.217 HD
ENDBRANCH  11  14
ENDBRANCH   1   6
BRANCH   5  16
HETATM   16  C   UNL     1      -1.473  10.266  25.720  0.00  0.00    -0.022 A 
HETATM   17  C   UNL     1      -1.272  10.071  24.345  0.00  0.00     0.012 A 
HETATM   18  C   UNL     1      -0.044   9.615  23.861  0.00  0.00     0.001 A 
HETATM   19  C   UNL     1       0.978   9.288  24.749  0.00  0.00     0.000 A 
HETATM   20  C   UNL     1       0.764   9.400  26.121  0.00  0.00     0.001 A 
HETATM   21  C   UNL     1      -0.452   9.888  26.604  0.00  0.00     0.012 A 
ENDBRANCH   5  16
TORSDOF 4
ENDMDL
