REMARK  4 active torsions:
REMARK  status: ('A' for Active; 'I' for Inactive)
REMARK    1  A    between atoms: O_1  and  C_2 
REMARK    2  A    between atoms: C_5  and  C_6 
REMARK    3  A    between atoms: C_10  and  C_11 
REMARK    4  A    between atoms: C_17  and  O_18 
ROOT
HETATM    1  C   UNL     1       6.422  -0.156  -0.533  0.00  0.00     0.110 A 
HETATM    2  N   UNL     1       7.206   0.938  -0.489  0.00  0.00    -0.127 NA
HETATM    3  O   UNL     1       8.468   0.533  -0.858  0.00  0.00    -0.224 OA
HETATM    4  C   UNL     1       8.460  -0.794  -1.116  0.00  0.00     0.184 A 
HETATM    5  C   UNL     1       7.195  -1.302  -0.930  0.00  0.00     0.030 A 
ENDROOT
BRANCH   1   6
HETATM    6  C   UNL     1       5.006  -0.059  -0.148  0.00  0.00     0.029 A 
HETATM    7  C   UNL     1       4.046  -0.899  -0.739  0.00  0.00     0.019 A 
HETATM    8  C   UNL     1       2.739  -0.962  -0.243  0.00  0.00     0.037 A 
HETATM    9  C   UNL     1       2.373  -0.147   0.821  0.00  0.00     0.068 A 
HETATM   10  C   UNL     1       3.273   0.766   1.357  0.00  0.00     0.074 A 
HETATM   11  C   UNL     1       4.577   0.818   0.865  0.00  0.00     0.081 A 
BRANCH   9  12
HETATM   12  O   UNL     1       1.128  -0.224   1.371  0.00  0.00    -0.361 OA
HETATM   13  H   UNL     1       0.649  -0.964   0.963  0.00  0.00     0.217 HD
ENDBRANCH   9  12
BRANCH  11  14
HETATM   14  O   UNL     1       5.395   1.755   1.439  0.00  0.00    -0.360 OA
HETATM   15  H   UNL     1       6.197   1.829   0.881  0.00  0.00     0.217 HD
ENDBRANCH  11  14
ENDBRANCH   1   6
BRANCH   5  16
HETATM   16  C   UNL     1       6.859  -2.705  -1.134  0.00  0.00    -0.022 A 
HETATM   17  C   UNL     1       5.959  -3.364  -0.284  0.00  0.00     0.012 A 
HETATM   18  C   UNL     1       5.504  -4.650  -0.585  0.00  0.00     0.001 A 
HETATM   19  C   UNL     1       5.990  -5.317  -1.707  0.00  0.00     0.000 A 
HETATM   20  C   UNL     1       6.945  -4.706  -2.515  0.00  0.00     0.001 A 
HETATM   21  C   UNL     1       7.376  -3.407  -2.233  0.00  0.00     0.012 A 
ENDBRANCH   5  16
TORSDOF 4
