MODEL 1
REMARK VINA RESULT:    -6.101      0.000      0.000
REMARK INTER + INTRA:          -8.838
REMARK INTER:                  -7.956
REMARK INTRA:                  -0.882
REMARK UNBOUND:                -0.954
REMARK  5 active torsions:
REMARK  status: ('A' for Active; 'I' for Inactive)
REMARK    1  A    between atoms: N8_1  and  C24_2 
REMARK    2  A    between atoms: N8_1  and  C7_8 
REMARK    3  A    between atoms: C2_13  and  N1_14 
REMARK    4  A    between atoms: N1_14  and  C17_15 
REMARK    5  A    between atoms: C14_16  and  C13_19 
ROOT
ATOM      1  C17 FTA A   1       8.095  13.101  11.398  1.00  0.00     0.142 C 
ATOM      2  C14 FTA A   1       8.769  12.114  10.776  1.00  0.00     0.158 C 
ATOM      3  C18 FTA A   1      10.215  12.147  10.714  1.00  0.00     0.069 C 
ATOM      4  N21 FTA A   1      11.372  12.334  10.692  1.00  0.00    -0.197 NA
ENDROOT
BRANCH   2   5
ATOM      5  C13 FTA A   1       8.020  10.990  10.170  1.00  0.00     0.197 A 
ATOM      6  N15 FTA A   1       6.779  11.072   9.542  1.00  0.00    -0.093 NA
ATOM      7  N19 FTA A   1       6.417   9.787   9.161  1.00  0.00    -0.231 N 
ATOM      8  N20 FTA A   1       7.413   8.901   9.545  1.00  0.00    -0.017 NA
ATOM      9  H15 FTA A   1       5.547   9.531   8.672  1.00  0.00     0.200 HD
ATOM     10  N16 FTA A   1       8.413   9.646  10.161  1.00  0.00    -0.090 NA
ENDBRANCH   2   5
BRANCH   1  11
ATOM     11  N1  FTA A   1       7.109  13.735  10.736  1.00  0.00    -0.389 N 
ATOM     12  H11 FTA A   1       7.255  13.927   9.734  1.00  0.00     0.159 HD
BRANCH  11  13
ATOM     13  C2  FTA A   1       5.880  14.159  11.312  1.00  0.00     0.028 A 
ATOM     14  C4  FTA A   1       5.834  14.981  12.435  1.00  0.00     0.031 A 
ATOM     15  C6  FTA A   1       4.608  15.172  13.088  1.00  0.00     0.031 A 
ATOM     16  C7  FTA A   1       3.434  14.564  12.651  1.00  0.00     0.032 A 
ATOM     17  C5  FTA A   1       3.493  13.770  11.519  1.00  0.00     0.031 A 
ATOM     18  C3  FTA A   1       4.700  13.557  10.866  1.00  0.00     0.031 A 
BRANCH  16  19
ATOM     19  N8  FTA A   1       2.235  14.572  13.408  1.00  0.00    -0.356 N 
ATOM     20  H1  FTA A   1       2.313  14.385  14.418  1.00  0.00     0.166 HD
BRANCH  19  21
ATOM     21  C24 FTA A   1       0.929  14.818  12.886  1.00  0.00     0.032 A 
ATOM     22  C26 FTA A   1       0.716  15.732  11.882  1.00  0.00     0.029 A 
ATOM     23  C28 FTA A   1      -0.586  16.049  11.541  1.00  0.00     0.002 A 
ATOM     24  C30 FTA A   1      -1.679  15.458  12.152  1.00  0.00     0.000 A 
ATOM     25  C29 FTA A   1      -1.478  14.518  13.127  1.00  0.00     0.002 A 
ATOM     26  C27 FTA A   1      -0.162  14.197  13.477  1.00  0.00     0.029 A 
ENDBRANCH  19  21
ENDBRANCH  16  19
ENDBRANCH  11  13
ENDBRANCH   1  11
TORSDOF 5
ENDMDL
MODEL 2
REMARK VINA RESULT:    -6.025      3.235      6.092
REMARK INTER + INTRA:          -8.740
REMARK INTER:                  -7.841
REMARK INTRA:                  -0.899
REMARK UNBOUND:                -0.954
REMARK  5 active torsions:
REMARK  status: ('A' for Active; 'I' for Inactive)
REMARK    1  A    between atoms: N8_1  and  C24_2 
REMARK    2  A    between atoms: N8_1  and  C7_8 
REMARK    3  A    between atoms: C2_13  and  N1_14 
REMARK    4  A    between atoms: N1_14  and  C17_15 
REMARK    5  A    between atoms: C14_16  and  C13_19 
ROOT
ATOM      1  C17 FTA A   1       2.278  14.269  12.056  1.00  0.00     0.142 C 
ATOM      2  C14 FTA A   1       3.434  13.599  11.877  1.00  0.00     0.158 C 
ATOM      3  C18 FTA A   1       3.510  12.524  10.912  1.00  0.00     0.069 C 
ATOM      4  N21 FTA A   1       3.409  11.645  10.142  1.00  0.00    -0.197 NA
ENDROOT
BRANCH   2   5
ATOM      5  C13 FTA A   1       4.627  13.983  12.666  1.00  0.00     0.197 A 
ATOM      6  N15 FTA A   1       5.696  13.152  12.998  1.00  0.00    -0.093 NA
ATOM      7  N19 FTA A   1       6.573  13.892  13.780  1.00  0.00    -0.231 N 
ATOM      8  N20 FTA A   1       6.066  15.173  13.944  1.00  0.00    -0.017 NA
ATOM      9  H15 FTA A   1       7.458  13.546  14.176  1.00  0.00     0.200 HD
ATOM     10  N16 FTA A   1       4.865  15.235  13.245  1.00  0.00    -0.090 NA
ENDBRANCH   2   5
BRANCH   1  11
ATOM     11  N1  FTA A   1       1.777  14.384  13.301  1.00  0.00    -0.389 N 
ATOM     12  H11 FTA A   1       2.388  14.117  14.086  1.00  0.00     0.159 HD
BRANCH  11  13
ATOM     13  C2  FTA A   1       0.469  14.845  13.614  1.00  0.00     0.028 A 
ATOM     14  C4  FTA A   1       0.100  15.205  14.907  1.00  0.00     0.031 A 
ATOM     15  C6  FTA A   1      -1.254  15.427  15.191  1.00  0.00     0.031 A 
ATOM     16  C7  FTA A   1      -2.244  15.298  14.221  1.00  0.00     0.032 A 
ATOM     17  C5  FTA A   1      -1.859  14.964  12.935  1.00  0.00     0.031 A 
ATOM     18  C3  FTA A   1      -0.523  14.726  12.636  1.00  0.00     0.031 A 
BRANCH  16  19
ATOM     19  N8  FTA A   1      -3.629  15.312  14.528  1.00  0.00    -0.356 N 
ATOM     20  H1  FTA A   1      -3.959  16.031  15.188  1.00  0.00     0.166 HD
BRANCH  19  21
ATOM     21  C24 FTA A   1      -4.602  14.411  13.999  1.00  0.00     0.032 A 
ATOM     22  C26 FTA A   1      -5.743  14.865  13.381  1.00  0.00     0.029 A 
ATOM     23  C28 FTA A   1      -6.724  13.951  13.046  1.00  0.00     0.002 A 
ATOM     24  C30 FTA A   1      -6.585  12.594  13.281  1.00  0.00     0.000 A 
ATOM     25  C29 FTA A   1      -5.437  12.124  13.862  1.00  0.00     0.002 A 
ATOM     26  C27 FTA A   1      -4.444  13.048  14.205  1.00  0.00     0.029 A 
ENDBRANCH  19  21
ENDBRANCH  16  19
ENDBRANCH  11  13
ENDBRANCH   1  11
TORSDOF 5
ENDMDL
MODEL 3
REMARK VINA RESULT:    -5.999     11.046     13.566
REMARK INTER + INTRA:          -8.706
REMARK INTER:                  -7.670
REMARK INTRA:                  -1.036
REMARK UNBOUND:                -0.954
REMARK  5 active torsions:
REMARK  status: ('A' for Active; 'I' for Inactive)
REMARK    1  A    between atoms: N8_1  and  C24_2 
REMARK    2  A    between atoms: N8_1  and  C7_8 
REMARK    3  A    between atoms: C2_13  and  N1_14 
REMARK    4  A    between atoms: N1_14  and  C17_15 
REMARK    5  A    between atoms: C14_16  and  C13_19 
ROOT
ATOM      1  C17 FTA A   1       8.624  16.949  18.406  1.00  0.00     0.142 C 
ATOM      2  C14 FTA A   1       7.310  16.867  18.116  1.00  0.00     0.158 C 
ATOM      3  C18 FTA A   1       6.878  16.295  16.859  1.00  0.00     0.069 C 
ATOM      4  N21 FTA A   1       6.678  15.865  15.787  1.00  0.00    -0.197 NA
ENDROOT
BRANCH   2   5
ATOM      5  C13 FTA A   1       6.315  17.351  19.100  1.00  0.00     0.197 A 
ATOM      6  N15 FTA A   1       5.474  16.558  19.877  1.00  0.00    -0.093 NA
ATOM      7  N19 FTA A   1       4.671  17.409  20.626  1.00  0.00    -0.231 N 
ATOM      8  N20 FTA A   1       4.998  18.724  20.326  1.00  0.00    -0.017 NA
ATOM      9  H15 FTA A   1       3.948  17.112  21.297  1.00  0.00     0.200 HD
ATOM     10  N16 FTA A   1       6.024  18.690  19.388  1.00  0.00    -0.090 NA
ENDBRANCH   2   5
BRANCH   1  11
ATOM     11  N1  FTA A   1       9.136  18.139  18.774  1.00  0.00    -0.389 N 
ATOM     12  H11 FTA A   1       9.285  18.842  18.035  1.00  0.00     0.159 HD
BRANCH  11  13
ATOM     13  C2  FTA A   1       9.487  18.500  20.104  1.00  0.00     0.028 A 
ATOM     14  C4  FTA A   1      10.073  19.726  20.409  1.00  0.00     0.031 A 
ATOM     15  C6  FTA A   1      10.602  19.926  21.691  1.00  0.00     0.031 A 
ATOM     16  C7  FTA A   1      10.563  18.937  22.671  1.00  0.00     0.032 A 
ATOM     17  C5  FTA A   1       9.955  17.734  22.360  1.00  0.00     0.031 A 
ATOM     18  C3  FTA A   1       9.436  17.511  21.090  1.00  0.00     0.031 A 
BRANCH  16  19
ATOM     19  N8  FTA A   1      11.271  19.039  23.895  1.00  0.00    -0.356 N 
ATOM     20  H1  FTA A   1      12.283  18.850  23.873  1.00  0.00     0.166 HD
BRANCH  19  21
ATOM     21  C24 FTA A   1      10.696  19.381  25.157  1.00  0.00     0.032 A 
ATOM     22  C26 FTA A   1       9.447  19.948  25.249  1.00  0.00     0.029 A 
ATOM     23  C28 FTA A   1       9.020  20.414  26.478  1.00  0.00     0.002 A 
ATOM     24  C30 FTA A   1       9.790  20.302  27.623  1.00  0.00     0.000 A 
ATOM     25  C29 FTA A   1      11.021  19.704  27.551  1.00  0.00     0.002 A 
ATOM     26  C27 FTA A   1      11.457  19.235  26.307  1.00  0.00     0.029 A 
ENDBRANCH  19  21
ENDBRANCH  16  19
ENDBRANCH  11  13
ENDBRANCH   1  11
TORSDOF 5
ENDMDL
MODEL 4
REMARK VINA RESULT:    -5.942      2.699      4.959
REMARK INTER + INTRA:          -8.633
REMARK INTER:                  -7.619
REMARK INTRA:                  -1.014
REMARK UNBOUND:                -0.954
REMARK  5 active torsions:
REMARK  status: ('A' for Active; 'I' for Inactive)
REMARK    1  A    between atoms: N8_1  and  C24_2 
REMARK    2  A    between atoms: N8_1  and  C7_8 
REMARK    3  A    between atoms: C2_13  and  N1_14 
REMARK    4  A    between atoms: N1_14  and  C17_15 
REMARK    5  A    between atoms: C14_16  and  C13_19 
ROOT
ATOM      1  C17 FTA A   1       3.469  14.559  12.824  1.00  0.00     0.142 C 
ATOM      2  C14 FTA A   1       4.617  14.087  12.298  1.00  0.00     0.158 C 
ATOM      3  C18 FTA A   1       5.882  14.692  12.655  1.00  0.00     0.069 C 
ATOM      4  N21 FTA A   1       6.820  15.312  12.987  1.00  0.00    -0.197 NA
ENDROOT
BRANCH   2   5
ATOM      5  C13 FTA A   1       4.572  12.937  11.367  1.00  0.00     0.197 A 
ATOM      6  N15 FTA A   1       5.671  12.297  10.797  1.00  0.00    -0.093 NA
ATOM      7  N19 FTA A   1       5.187  11.305   9.955  1.00  0.00    -0.231 N 
ATOM      8  N20 FTA A   1       3.800  11.317   9.988  1.00  0.00    -0.017 NA
ATOM      9  H15 FTA A   1       5.765  10.663   9.394  1.00  0.00     0.200 HD
ATOM     10  N16 FTA A   1       3.417  12.321  10.872  1.00  0.00    -0.090 NA
ENDBRANCH   2   5
BRANCH   1  11
ATOM     11  N1  FTA A   1       2.463  14.897  11.994  1.00  0.00    -0.389 N 
ATOM     12  H11 FTA A   1       2.697  15.057  11.003  1.00  0.00     0.159 HD
BRANCH  11  13
ATOM     13  C2  FTA A   1       1.104  15.050  12.380  1.00  0.00     0.028 A 
ATOM     14  C4  FTA A   1       0.543  14.318  13.423  1.00  0.00     0.031 A 
ATOM     15  C6  FTA A   1      -0.847  14.344  13.602  1.00  0.00     0.031 A 
ATOM     16  C7  FTA A   1      -1.687  15.079  12.769  1.00  0.00     0.032 A 
ATOM     17  C5  FTA A   1      -1.112  15.821  11.753  1.00  0.00     0.031 A 
ATOM     18  C3  FTA A   1       0.263  15.797  11.550  1.00  0.00     0.031 A 
BRANCH  16  19
ATOM     19  N8  FTA A   1      -3.099  14.956  12.798  1.00  0.00    -0.356 N 
ATOM     20  H1  FTA A   1      -3.648  15.827  12.835  1.00  0.00     0.166 HD
BRANCH  19  21
ATOM     21  C24 FTA A   1      -3.823  13.726  12.782  1.00  0.00     0.032 A 
ATOM     22  C26 FTA A   1      -3.954  12.982  11.632  1.00  0.00     0.029 A 
ATOM     23  C28 FTA A   1      -4.807  11.895  11.640  1.00  0.00     0.002 A 
ATOM     24  C30 FTA A   1      -5.510  11.511  12.770  1.00  0.00     0.000 A 
ATOM     25  C29 FTA A   1      -5.359  12.220  13.931  1.00  0.00     0.002 A 
ATOM     26  C27 FTA A   1      -4.498  13.324  13.925  1.00  0.00     0.029 A 
ENDBRANCH  19  21
ENDBRANCH  16  19
ENDBRANCH  11  13
ENDBRANCH   1  11
TORSDOF 5
ENDMDL
MODEL 5
REMARK VINA RESULT:    -5.822      2.639      4.996
REMARK INTER + INTRA:          -8.477
REMARK INTER:                  -7.442
REMARK INTRA:                  -1.035
REMARK UNBOUND:                -0.954
REMARK  5 active torsions:
REMARK  status: ('A' for Active; 'I' for Inactive)
REMARK    1  A    between atoms: N8_1  and  C24_2 
REMARK    2  A    between atoms: N8_1  and  C7_8 
REMARK    3  A    between atoms: C2_13  and  N1_14 
REMARK    4  A    between atoms: N1_14  and  C17_15 
REMARK    5  A    between atoms: C14_16  and  C13_19 
ROOT
ATOM      1  C17 FTA A   1       3.435  14.459  12.879  1.00  0.00     0.142 C 
ATOM      2  C14 FTA A   1       4.593  14.008  12.358  1.00  0.00     0.158 C 
ATOM      3  C18 FTA A   1       5.851  14.603  12.756  1.00  0.00     0.069 C 
ATOM      4  N21 FTA A   1       6.781  15.215  13.124  1.00  0.00    -0.197 NA
ENDROOT
BRANCH   2   5
ATOM      5  C13 FTA A   1       4.568  12.888  11.389  1.00  0.00     0.197 A 
ATOM      6  N15 FTA A   1       5.679  12.259  10.831  1.00  0.00    -0.093 NA
ATOM      7  N19 FTA A   1       5.213  11.299   9.943  1.00  0.00    -0.231 N 
ATOM      8  N20 FTA A   1       3.826  11.321   9.935  1.00  0.00    -0.017 NA
ATOM      9  H15 FTA A   1       5.803  10.670   9.379  1.00  0.00     0.200 HD
ATOM     10  N16 FTA A   1       3.424  12.299  10.839  1.00  0.00    -0.090 NA
ENDBRANCH   2   5
BRANCH   1  11
ATOM     11  N1  FTA A   1       2.443  14.822  12.043  1.00  0.00    -0.389 N 
ATOM     12  H11 FTA A   1       2.679  14.941  11.047  1.00  0.00     0.159 HD
BRANCH  11  13
ATOM     13  C2  FTA A   1       1.094  15.053  12.431  1.00  0.00     0.028 A 
ATOM     14  C4  FTA A   1       0.476  14.317  13.438  1.00  0.00     0.031 A 
ATOM     15  C6  FTA A   1      -0.909  14.433  13.613  1.00  0.00     0.031 A 
ATOM     16  C7  FTA A   1      -1.690  15.260  12.809  1.00  0.00     0.032 A 
ATOM     17  C5  FTA A   1      -1.057  16.003  11.828  1.00  0.00     0.031 A 
ATOM     18  C3  FTA A   1       0.314  15.892  11.631  1.00  0.00     0.031 A 
BRANCH  16  19
ATOM     19  N8  FTA A   1      -3.108  15.235  12.827  1.00  0.00    -0.356 N 
ATOM     20  H1  FTA A   1      -3.595  16.142  12.863  1.00  0.00     0.166 HD
BRANCH  19  21
ATOM     21  C24 FTA A   1      -3.915  14.058  12.800  1.00  0.00     0.032 A 
ATOM     22  C26 FTA A   1      -4.585  13.618  13.917  1.00  0.00     0.029 A 
ATOM     23  C28 FTA A   1      -5.206  12.384  13.873  1.00  0.00     0.002 A 
ATOM     24  C30 FTA A   1      -5.204  11.591  12.738  1.00  0.00     0.000 A 
ATOM     25  C29 FTA A   1      -4.573  12.035  11.607  1.00  0.00     0.002 A 
ATOM     26  C27 FTA A   1      -3.940  13.283  11.649  1.00  0.00     0.029 A 
ENDBRANCH  19  21
ENDBRANCH  16  19
ENDBRANCH  11  13
ENDBRANCH   1  11
TORSDOF 5
ENDMDL
MODEL 6
REMARK VINA RESULT:    -5.680      3.810      4.541
REMARK INTER + INTRA:          -8.295
REMARK INTER:                  -7.379
REMARK INTRA:                  -0.915
REMARK UNBOUND:                -0.954
REMARK  5 active torsions:
REMARK  status: ('A' for Active; 'I' for Inactive)
REMARK    1  A    between atoms: N8_1  and  C24_2 
REMARK    2  A    between atoms: N8_1  and  C7_8 
REMARK    3  A    between atoms: C2_13  and  N1_14 
REMARK    4  A    between atoms: N1_14  and  C17_15 
REMARK    5  A    between atoms: C14_16  and  C13_19 
ROOT
ATOM      1  C17 FTA A   1       8.813  12.666  11.325  1.00  0.00     0.142 C 
ATOM      2  C14 FTA A   1       9.082  11.631  10.505  1.00  0.00     0.158 C 
ATOM      3  C18 FTA A   1      10.453  11.282  10.200  1.00  0.00     0.069 C 
ATOM      4  N21 FTA A   1      11.600  11.151   9.998  1.00  0.00    -0.197 NA
ENDROOT
BRANCH   2   5
ATOM      5  C13 FTA A   1       7.964  10.845   9.933  1.00  0.00     0.197 A 
ATOM      6  N15 FTA A   1       6.690  11.324   9.635  1.00  0.00    -0.093 NA
ATOM      7  N19 FTA A   1       5.942  10.254   9.163  1.00  0.00    -0.231 N 
ATOM      8  N20 FTA A   1       6.729   9.112   9.163  1.00  0.00    -0.017 NA
ATOM      9  H15 FTA A   1       4.958  10.301   8.860  1.00  0.00     0.200 HD
ATOM     10  N16 FTA A   1       7.987   9.479   9.630  1.00  0.00    -0.090 NA
ENDBRANCH   2   5
BRANCH   1  11
ATOM     11  N1  FTA A   1       7.969  13.628  10.904  1.00  0.00    -0.389 N 
ATOM     12  H11 FTA A   1       7.623  13.567   9.935  1.00  0.00     0.159 HD
BRANCH  11  13
ATOM     13  C2  FTA A   1       7.518  14.720  11.695  1.00  0.00     0.028 A 
ATOM     14  C4  FTA A   1       8.210  15.927  11.755  1.00  0.00     0.031 A 
ATOM     15  C6  FTA A   1       7.844  16.872  12.723  1.00  0.00     0.031 A 
ATOM     16  C7  FTA A   1       6.812  16.643  13.629  1.00  0.00     0.032 A 
ATOM     17  C5  FTA A   1       6.118  15.449  13.540  1.00  0.00     0.031 A 
ATOM     18  C3  FTA A   1       6.474  14.493  12.596  1.00  0.00     0.031 A 
BRANCH  16  19
ATOM     19  N8  FTA A   1       6.563  17.487  14.741  1.00  0.00    -0.356 N 
ATOM     20  H1  FTA A   1       6.836  18.477  14.654  1.00  0.00     0.166 HD
BRANCH  19  21
ATOM     21  C24 FTA A   1       5.967  17.077  15.972  1.00  0.00     0.032 A 
ATOM     22  C26 FTA A   1       4.656  17.367  16.269  1.00  0.00     0.029 A 
ATOM     23  C28 FTA A   1       4.191  17.097  17.542  1.00  0.00     0.002 A 
ATOM     24  C30 FTA A   1       4.985  16.518  18.517  1.00  0.00     0.000 A 
ATOM     25  C29 FTA A   1       6.282  16.190  18.221  1.00  0.00     0.002 A 
ATOM     26  C27 FTA A   1       6.757  16.465  16.935  1.00  0.00     0.029 A 
ENDBRANCH  19  21
ENDBRANCH  16  19
ENDBRANCH  11  13
ENDBRANCH   1  11
TORSDOF 5
ENDMDL
MODEL 7
REMARK VINA RESULT:    -5.648      6.586      9.190
REMARK INTER + INTRA:          -8.253
REMARK INTER:                  -7.241
REMARK INTRA:                  -1.012
REMARK UNBOUND:                -0.954
REMARK  5 active torsions:
REMARK  status: ('A' for Active; 'I' for Inactive)
REMARK    1  A    between atoms: N8_1  and  C24_2 
REMARK    2  A    between atoms: N8_1  and  C7_8 
REMARK    3  A    between atoms: C2_13  and  N1_14 
REMARK    4  A    between atoms: N1_14  and  C17_15 
REMARK    5  A    between atoms: C14_16  and  C13_19 
ROOT
ATOM      1  C17 FTA A   1       9.150  17.639  19.170  1.00  0.00     0.142 C 
ATOM      2  C14 FTA A   1       8.646  17.909  20.391  1.00  0.00     0.158 C 
ATOM      3  C18 FTA A   1       9.524  17.997  21.537  1.00  0.00     0.069 C 
ATOM      4  N21 FTA A   1      10.341  17.982  22.378  1.00  0.00    -0.197 NA
ENDROOT
BRANCH   2   5
ATOM      5  C13 FTA A   1       7.189  18.129  20.544  1.00  0.00     0.197 A 
ATOM      6  N15 FTA A   1       6.193  17.165  20.406  1.00  0.00    -0.093 NA
ATOM      7  N19 FTA A   1       4.970  17.799  20.585  1.00  0.00    -0.231 N 
ATOM      8  N20 FTA A   1       5.188  19.147  20.830  1.00  0.00    -0.017 NA
ATOM      9  H15 FTA A   1       4.048  17.342  20.542  1.00  0.00     0.200 HD
ATOM     10  N16 FTA A   1       6.564  19.352  20.816  1.00  0.00    -0.090 NA
ENDBRANCH   2   5
BRANCH   1  11
ATOM     11  N1  FTA A   1       8.627  16.621  18.460  1.00  0.00    -0.389 N 
ATOM     12  H11 FTA A   1       8.777  15.666  18.816  1.00  0.00     0.159 HD
BRANCH  11  13
ATOM     13  C2  FTA A   1       7.884  16.764  17.256  1.00  0.00     0.028 A 
ATOM     14  C4  FTA A   1       6.599  16.246  17.113  1.00  0.00     0.031 A 
ATOM     15  C6  FTA A   1       6.016  16.218  15.838  1.00  0.00     0.031 A 
ATOM     16  C7  FTA A   1       6.681  16.690  14.709  1.00  0.00     0.032 A 
ATOM     17  C5  FTA A   1       7.947  17.224  14.873  1.00  0.00     0.031 A 
ATOM     18  C3  FTA A   1       8.548  17.249  16.126  1.00  0.00     0.031 A 
BRANCH  16  19
ATOM     19  N8  FTA A   1       6.202  16.482  13.391  1.00  0.00    -0.356 N 
ATOM     20  H1  FTA A   1       6.487  17.162  12.672  1.00  0.00     0.166 HD
BRANCH  19  21
ATOM     21  C24 FTA A   1       5.357  15.407  12.978  1.00  0.00     0.032 A 
ATOM     22  C26 FTA A   1       5.868  14.171  12.658  1.00  0.00     0.029 A 
ATOM     23  C28 FTA A   1       5.023  13.229  12.102  1.00  0.00     0.002 A 
ATOM     24  C30 FTA A   1       3.678  13.474  11.886  1.00  0.00     0.000 A 
ATOM     25  C29 FTA A   1       3.149  14.688  12.236  1.00  0.00     0.002 A 
ATOM     26  C27 FTA A   1       4.003  15.645  12.796  1.00  0.00     0.029 A 
ENDBRANCH  19  21
ENDBRANCH  16  19
ENDBRANCH  11  13
ENDBRANCH   1  11
TORSDOF 5
ENDMDL
MODEL 8
REMARK VINA RESULT:    -5.632      1.093      2.661
REMARK INTER + INTRA:          -8.232
REMARK INTER:                  -7.281
REMARK INTRA:                  -0.951
REMARK UNBOUND:                -0.954
REMARK  5 active torsions:
REMARK  status: ('A' for Active; 'I' for Inactive)
REMARK    1  A    between atoms: N8_1  and  C24_2 
REMARK    2  A    between atoms: N8_1  and  C7_8 
REMARK    3  A    between atoms: C2_13  and  N1_14 
REMARK    4  A    between atoms: N1_14  and  C17_15 
REMARK    5  A    between atoms: C14_16  and  C13_19 
ROOT
ATOM      1  C17 FTA A   1       6.927  12.183  10.866  1.00  0.00     0.142 C 
ATOM      2  C14 FTA A   1       8.155  11.673  10.646  1.00  0.00     0.158 C 
ATOM      3  C18 FTA A   1       8.321  10.254  10.413  1.00  0.00     0.069 C 
ATOM      4  N21 FTA A   1       8.312   9.087  10.297  1.00  0.00    -0.197 NA
ENDROOT
BRANCH   2   5
ATOM      5  C13 FTA A   1       9.327  12.577  10.629  1.00  0.00     0.197 A 
ATOM      6  N15 FTA A   1      10.665  12.190  10.677  1.00  0.00    -0.093 NA
ATOM      7  N19 FTA A   1      11.434  13.346  10.687  1.00  0.00    -0.231 N 
ATOM      8  N20 FTA A   1      10.596  14.451  10.649  1.00  0.00    -0.017 NA
ATOM      9  H15 FTA A   1      12.463  13.379  10.717  1.00  0.00     0.200 HD
ATOM     10  N16 FTA A   1       9.289  13.976  10.602  1.00  0.00    -0.090 NA
ENDBRANCH   2   5
BRANCH   1  11
ATOM     11  N1  FTA A   1       6.723  12.941  11.961  1.00  0.00    -0.389 N 
ATOM     12  H11 FTA A   1       7.445  12.920  12.695  1.00  0.00     0.159 HD
BRANCH  11  13
ATOM     13  C2  FTA A   1       5.588  13.769  12.180  1.00  0.00     0.028 A 
ATOM     14  C4  FTA A   1       5.654  14.929  12.947  1.00  0.00     0.031 A 
ATOM     15  C6  FTA A   1       4.463  15.570  13.314  1.00  0.00     0.031 A 
ATOM     16  C7  FTA A   1       3.214  15.082  12.938  1.00  0.00     0.032 A 
ATOM     17  C5  FTA A   1       3.167  13.943  12.154  1.00  0.00     0.031 A 
ATOM     18  C3  FTA A   1       4.335  13.286  11.791  1.00  0.00     0.031 A 
BRANCH  16  19
ATOM     19  N8  FTA A   1       1.999  15.588  13.467  1.00  0.00    -0.356 N 
ATOM     20  H1  FTA A   1       2.062  16.193  14.299  1.00  0.00     0.166 HD
BRANCH  19  21
ATOM     21  C24 FTA A   1       0.697  15.329  12.942  1.00  0.00     0.032 A 
ATOM     22  C26 FTA A   1       0.202  16.026  11.865  1.00  0.00     0.029 A 
ATOM     23  C28 FTA A   1      -1.123  15.850  11.515  1.00  0.00     0.002 A 
ATOM     24  C30 FTA A   1      -1.960  14.976  12.187  1.00  0.00     0.000 A 
ATOM     25  C29 FTA A   1      -1.468  14.247  13.237  1.00  0.00     0.002 A 
ATOM     26  C27 FTA A   1      -0.128  14.426  13.597  1.00  0.00     0.029 A 
ENDBRANCH  19  21
ENDBRANCH  16  19
ENDBRANCH  11  13
ENDBRANCH   1  11
TORSDOF 5
ENDMDL
MODEL 9
REMARK VINA RESULT:    -5.533      3.950      4.966
REMARK INTER + INTRA:          -8.104
REMARK INTER:                  -7.150
REMARK INTRA:                  -0.954
REMARK UNBOUND:                -0.954
REMARK  5 active torsions:
REMARK  status: ('A' for Active; 'I' for Inactive)
REMARK    1  A    between atoms: N8_1  and  C24_2 
REMARK    2  A    between atoms: N8_1  and  C7_8 
REMARK    3  A    between atoms: C2_13  and  N1_14 
REMARK    4  A    between atoms: N1_14  and  C17_15 
REMARK    5  A    between atoms: C14_16  and  C13_19 
ROOT
ATOM      1  C17 FTA A   1       6.598  13.469  10.089  1.00  0.00     0.142 C 
ATOM      2  C14 FTA A   1       6.367  12.151   9.927  1.00  0.00     0.158 C 
ATOM      3  C18 FTA A   1       5.010  11.649   9.898  1.00  0.00     0.069 C 
ATOM      4  N21 FTA A   1       3.870  11.380   9.951  1.00  0.00    -0.197 NA
ENDROOT
BRANCH   2   5
ATOM      5  C13 FTA A   1       7.512  11.226   9.763  1.00  0.00     0.197 A 
ATOM      6  N15 FTA A   1       7.436   9.843   9.611  1.00  0.00    -0.093 NA
ATOM      7  N19 FTA A   1       8.735   9.359   9.537  1.00  0.00    -0.231 N 
ATOM      8  N20 FTA A   1       9.623  10.420   9.643  1.00  0.00    -0.017 NA
ATOM      9  H15 FTA A   1       8.999   8.369   9.422  1.00  0.00     0.200 HD
ATOM     10  N16 FTA A   1       8.866  11.580   9.772  1.00  0.00    -0.090 NA
ENDBRANCH   2   5
BRANCH   1  11
ATOM     11  N1  FTA A   1       7.435  13.868  11.066  1.00  0.00    -0.389 N 
ATOM     12  H11 FTA A   1       8.396  13.496  11.052  1.00  0.00     0.159 HD
BRANCH  11  13
ATOM     13  C2  FTA A   1       7.094  14.764  12.116  1.00  0.00     0.028 A 
ATOM     14  C4  FTA A   1       7.593  16.063  12.173  1.00  0.00     0.031 A 
ATOM     15  C6  FTA A   1       7.407  16.812  13.342  1.00  0.00     0.031 A 
ATOM     16  C7  FTA A   1       6.740  16.299  14.452  1.00  0.00     0.032 A 
ATOM     17  C5  FTA A   1       6.228  15.016  14.370  1.00  0.00     0.031 A 
ATOM     18  C3  FTA A   1       6.414  14.253  13.224  1.00  0.00     0.031 A 
BRANCH  16  19
ATOM     19  N8  FTA A   1       6.722  16.954  15.710  1.00  0.00    -0.356 N 
ATOM     20  H1  FTA A   1       7.488  17.613  15.910  1.00  0.00     0.166 HD
BRANCH  19  21
ATOM     21  C24 FTA A   1       5.730  16.774  16.721  1.00  0.00     0.032 A 
ATOM     22  C26 FTA A   1       4.455  17.268  16.575  1.00  0.00     0.029 A 
ATOM     23  C28 FTA A   1       3.596  17.213  17.656  1.00  0.00     0.002 A 
ATOM     24  C30 FTA A   1       3.962  16.652  18.868  1.00  0.00     0.000 A 
ATOM     25  C29 FTA A   1       5.217  16.123  19.014  1.00  0.00     0.002 A 
ATOM     26  C27 FTA A   1       6.090  16.180  17.922  1.00  0.00     0.029 A 
ENDBRANCH  19  21
ENDBRANCH  16  19
ENDBRANCH  11  13
ENDBRANCH   1  11
TORSDOF 5
ENDMDL
