MODEL 1
REMARK VINA RESULT:    -8.237      0.000      0.000
REMARK INTER + INTRA:          -8.478
REMARK INTER:                  -8.478
REMARK INTRA:                   0.000
REMARK UNBOUND:                 0.000
REMARK  2 active torsions:
REMARK  status: ('A' for Active; 'I' for Inactive)
REMARK    1  A    between atoms: C_17  and  O_18 
REMARK    2  A    between atoms: C_20  and  O_21 
ROOT
HETATM    1  C   UNL     1      11.996  13.264  23.033  0.00  0.00     0.040 C 
HETATM    2  C   UNL     1       9.932  13.199  23.604  0.00  0.00     0.130 C 
HETATM    3  C   UNL     1      11.247  14.232  24.717  0.00  0.00     0.067 C 
HETATM    4  C   UNL     1      11.028  13.775  26.040  0.00  0.00     0.157 A 
HETATM    5  O   UNL     1      11.205  14.470  27.263  0.00  0.00    -0.371 OA
HETATM    6  C   UNL     1      10.092  14.821  26.452  0.00  0.00     0.174 A 
HETATM    7  C   UNL     1       8.730  14.395  26.467  0.00  0.00     0.007 C 
HETATM    8  C   UNL     1       7.862  14.796  25.540  0.00  0.00    -0.001 C 
HETATM    9  C   UNL     1       6.490  14.510  25.664  0.00  0.00     0.003 C 
HETATM   10  C   UNL     1       5.659  15.040  24.779  0.00  0.00     0.050 C 
HETATM   11  C   UNL     1       4.326  14.600  24.914  0.00  0.00     0.150 C 
HETATM   12  O   UNL     1       4.110  13.646  25.698  0.00  0.00    -0.293 OA
HETATM   13  C   UNL     1       3.417  15.100  23.785  0.00  0.00     0.107 C 
HETATM   14  C   UNL     1       2.648  13.944  24.099  0.00  0.00     0.079 A 
HETATM   15  C   UNL     1       1.469  14.311  25.363  0.00  0.00     0.062 C 
HETATM   16 CL   UNL     1       2.119  15.090  26.830  0.00  0.00    -0.085 Cl
HETATM   17  C   UNL     1       0.276  13.733  25.688  0.00  0.00     0.084 C 
HETATM   18  C   UNL     1       0.084  12.941  24.647  0.00  0.00     0.055 C 
HETATM   19  C   UNL     1       1.590  12.590  23.715  0.00  0.00     0.126 A 
HETATM   20  C   UNL     1       3.543  12.771  23.370  0.00  0.00     0.053 A 
HETATM   21  C   UNL     1       5.762  12.917  23.351  0.00  0.00     0.290 C 
HETATM   22  O   UNL     1       5.495  13.337  22.236  0.00  0.00    -0.260 OA
HETATM   23  O   UNL     1       7.863  13.053  23.334  0.00  0.00    -0.313 OA
ENDROOT
BRANCH  17  24
HETATM   24  O   UNL     1      -0.392  13.721  26.870  0.00  0.00    -0.359 OA
HETATM   25  H   UNL     1       0.272  13.503  27.568  0.00  0.00     0.217 HD
ENDBRANCH  17  24
BRANCH  19  26
HETATM   26  O   UNL     1       0.143  12.697  22.522  0.00  0.00    -0.379 OA
HETATM   27  H   UNL     1       0.013  12.134  21.578  0.00  0.00     0.211 HD
ENDBRANCH  19  26
TORSDOF 2
ENDMDL
MODEL 2
REMARK VINA RESULT:    -7.854      2.648      8.434
REMARK INTER + INTRA:          -8.084
REMARK INTER:                  -8.084
REMARK INTRA:                   0.000
REMARK UNBOUND:                 0.000
REMARK  2 active torsions:
REMARK  status: ('A' for Active; 'I' for Inactive)
REMARK    1  A    between atoms: C_17  and  O_18 
REMARK    2  A    between atoms: C_20  and  O_21 
ROOT
HETATM    1  C   UNL     1       0.592  14.494  27.240  0.00  0.00     0.040 C 
HETATM    2  C   UNL     1       2.423  14.031  26.228  0.00  0.00     0.130 C 
HETATM    3  C   UNL     1       0.673  13.870  25.255  0.00  0.00     0.067 C 
HETATM    4  C   UNL     1       0.703  12.575  24.681  0.00  0.00     0.157 A 
HETATM    5  O   UNL     1       0.086  12.113  23.491  0.00  0.00    -0.371 OA
HETATM    6  C   UNL     1       1.221  12.959  23.368  0.00  0.00     0.174 A 
HETATM    7  C   UNL     1       2.608  12.672  23.196  0.00  0.00     0.007 C 
HETATM    8  C   UNL     1       3.526  13.637  23.193  0.00  0.00    -0.001 C 
HETATM    9  C   UNL     1       4.863  13.361  22.851  0.00  0.00     0.003 C 
HETATM   10  C   UNL     1       5.703  14.380  22.743  0.00  0.00     0.050 C 
HETATM   11  C   UNL     1       7.040  13.993  22.516  0.00  0.00     0.150 C 
HETATM   12  O   UNL     1       7.317  12.775  22.629  0.00  0.00    -0.293 OA
HETATM   13  C   UNL     1       8.016  15.176  22.555  0.00  0.00     0.107 C 
HETATM   14  C   UNL     1       8.969  14.180  22.914  0.00  0.00     0.079 A 
HETATM   15  C   UNL     1       9.702  13.476  21.468  0.00  0.00     0.062 C 
HETATM   16 CL   UNL     1       8.564  12.886  20.228  0.00  0.00    -0.085 Cl
HETATM   17  C   UNL     1      10.901  12.856  21.268  0.00  0.00     0.084 C 
HETATM   18  C   UNL     1      11.517  13.118  22.408  0.00  0.00     0.055 C 
HETATM   19  C   UNL     1      10.399  13.580  23.748  0.00  0.00     0.126 A 
HETATM   20  C   UNL     1       8.592  13.951  24.499  0.00  0.00     0.053 A 
HETATM   21  C   UNL     1       6.472  14.052  25.164  0.00  0.00     0.290 C 
HETATM   22  O   UNL     1       6.861  15.168  25.469  0.00  0.00    -0.260 OA
HETATM   23  O   UNL     1       4.466  14.146  25.794  0.00  0.00    -0.313 OA
ENDROOT
BRANCH  17  24
HETATM   24  O   UNL     1      11.271  11.963  20.314  0.00  0.00    -0.359 OA
HETATM   25  H   UNL     1      12.245  11.830  20.416  0.00  0.00     0.217 HD
ENDBRANCH  17  24
BRANCH  19  26
HETATM   26  O   UNL     1      11.996  14.554  23.921  0.00  0.00    -0.379 OA
HETATM   27  H   UNL     1      12.323  15.152  24.793  0.00  0.00     0.211 HD
ENDBRANCH  19  26
TORSDOF 2
ENDMDL
MODEL 3
REMARK VINA RESULT:    -7.776      2.346      3.707
REMARK INTER + INTRA:          -8.003
REMARK INTER:                  -8.003
REMARK INTRA:                   0.000
REMARK UNBOUND:                 0.000
REMARK  2 active torsions:
REMARK  status: ('A' for Active; 'I' for Inactive)
REMARK    1  A    between atoms: C_17  and  O_18 
REMARK    2  A    between atoms: C_20  and  O_21 
ROOT
HETATM    1  C   UNL     1      11.875  15.838  23.599  0.00  0.00     0.040 C 
HETATM    2  C   UNL     1       9.755  15.611  23.807  0.00  0.00     0.130 C 
HETATM    3  C   UNL     1      10.665  15.017  22.117  0.00  0.00     0.067 C 
HETATM    4  C   UNL     1       9.915  15.623  21.078  0.00  0.00     0.157 A 
HETATM    5  O   UNL     1       9.699  15.167  19.753  0.00  0.00    -0.371 OA
HETATM    6  C   UNL     1       9.019  14.499  20.808  0.00  0.00     0.174 A 
HETATM    7  C   UNL     1       7.712  14.667  21.355  0.00  0.00     0.007 C 
HETATM    8  C   UNL     1       7.307  13.977  22.420  0.00  0.00    -0.001 C 
HETATM    9  C   UNL     1       5.966  14.024  22.843  0.00  0.00     0.003 C 
HETATM   10  C   UNL     1       5.594  13.222  23.830  0.00  0.00     0.050 C 
HETATM   11  C   UNL     1       4.266  13.427  24.261  0.00  0.00     0.150 C 
HETATM   12  O   UNL     1       3.664  14.434  23.817  0.00  0.00    -0.293 OA
HETATM   13  C   UNL     1       3.911  12.604  25.504  0.00  0.00     0.107 C 
HETATM   14  C   UNL     1       2.953  13.634  25.725  0.00  0.00     0.079 A 
HETATM   15  C   UNL     1       1.436  13.255  24.901  0.00  0.00     0.062 C 
HETATM   16 CL   UNL     1       1.573  12.840  23.172  0.00  0.00    -0.085 Cl
HETATM   17  C   UNL     1       0.151  13.648  25.139  0.00  0.00     0.084 C 
HETATM   18  C   UNL     1       0.275  14.223  26.322  0.00  0.00     0.055 C 
HETATM   19  C   UNL     1       1.969  14.698  26.726  0.00  0.00     0.126 A 
HETATM   20  C   UNL     1       3.916  14.825  26.326  0.00  0.00     0.053 A 
HETATM   21  C   UNL     1       5.982  15.086  25.543  0.00  0.00     0.290 C 
HETATM   22  O   UNL     1       6.202  14.459  26.567  0.00  0.00    -0.260 OA
HETATM   23  O   UNL     1       7.936  15.335  24.801  0.00  0.00    -0.313 OA
ENDROOT
BRANCH  17  24
HETATM   24  O   UNL     1      -0.909  13.717  24.292  0.00  0.00    -0.359 OA
HETATM   25  H   UNL     1      -0.537  13.830  23.383  0.00  0.00     0.217 HD
ENDBRANCH  17  24
BRANCH  19  26
HETATM   26  O   UNL     1       1.098  14.148  28.296  0.00  0.00    -0.379 OA
HETATM   27  H   UNL     1       0.587  13.182  28.474  0.00  0.00     0.211 HD
ENDBRANCH  19  26
TORSDOF 2
ENDMDL
MODEL 4
REMARK VINA RESULT:    -7.446      4.129      8.092
REMARK INTER + INTRA:          -7.663
REMARK INTER:                  -7.663
REMARK INTRA:                   0.000
REMARK UNBOUND:                 0.000
REMARK  2 active torsions:
REMARK  status: ('A' for Active; 'I' for Inactive)
REMARK    1  A    between atoms: C_17  and  O_18 
REMARK    2  A    between atoms: C_20  and  O_21 
ROOT
HETATM    1  C   UNL     1       3.117   6.226  21.626  0.00  0.00     0.040 C 
HETATM    2  C   UNL     1       4.455   7.846  22.044  0.00  0.00     0.130 C 
HETATM    3  C   UNL     1       3.762   7.575  20.178  0.00  0.00     0.067 C 
HETATM    4  C   UNL     1       4.921   7.592  19.364  0.00  0.00     0.157 A 
HETATM    5  O   UNL     1       5.056   8.006  18.014  0.00  0.00    -0.371 OA
HETATM    6  C   UNL     1       4.885   9.010  19.006  0.00  0.00     0.174 A 
HETATM    7  C   UNL     1       5.824   9.804  19.728  0.00  0.00     0.007 C 
HETATM    8  C   UNL     1       5.438  10.638  20.693  0.00  0.00    -0.001 C 
HETATM    9  C   UNL     1       6.348  11.538  21.276  0.00  0.00     0.003 C 
HETATM   10  C   UNL     1       5.881  12.427  22.140  0.00  0.00     0.050 C 
HETATM   11  C   UNL     1       6.883  13.203  22.758  0.00  0.00     0.150 C 
HETATM   12  O   UNL     1       8.075  12.855  22.579  0.00  0.00    -0.293 OA
HETATM   13  C   UNL     1       6.336  14.109  23.867  0.00  0.00     0.107 C 
HETATM   14  C   UNL     1       7.660  14.020  24.383  0.00  0.00     0.079 A 
HETATM   15  C   UNL     1       8.679  15.288  23.694  0.00  0.00     0.062 C 
HETATM   16 CL   UNL     1       8.670  15.412  21.915  0.00  0.00    -0.085 Cl
HETATM   17  C   UNL     1       9.816  15.888  24.152  0.00  0.00     0.084 C 
HETATM   18  C   UNL     1       9.856  15.444  25.396  0.00  0.00     0.055 C 
HETATM   19  C   UNL     1       8.860  13.963  25.671  0.00  0.00     0.126 A 
HETATM   20  C   UNL     1       7.623  12.524  25.068  0.00  0.00     0.053 A 
HETATM   21  C   UNL     1       6.468  10.887  24.101  0.00  0.00     0.290 C 
HETATM   22  O   UNL     1       5.680  11.246  24.961  0.00  0.00    -0.260 OA
HETATM   23  O   UNL     1       5.377   9.337  23.185  0.00  0.00    -0.313 OA
ENDROOT
BRANCH  17  24
HETATM   24  O   UNL     1      10.805  16.518  23.466  0.00  0.00    -0.359 OA
HETATM   25  H   UNL     1      11.289  17.078  24.120  0.00  0.00     0.217 HD
ENDBRANCH  17  24
BRANCH  19  26
HETATM   26  O   UNL     1       8.796  15.037  27.210  0.00  0.00    -0.379 OA
HETATM   27  H   UNL     1       8.109  15.882  27.407  0.00  0.00     0.211 HD
ENDBRANCH  19  26
TORSDOF 2
ENDMDL
MODEL 5
REMARK VINA RESULT:    -7.443      4.753      8.683
REMARK INTER + INTRA:          -7.661
REMARK INTER:                  -7.661
REMARK INTRA:                   0.000
REMARK UNBOUND:                 0.000
REMARK  2 active torsions:
REMARK  status: ('A' for Active; 'I' for Inactive)
REMARK    1  A    between atoms: C_17  and  O_18 
REMARK    2  A    between atoms: C_20  and  O_21 
ROOT
HETATM    1  C   UNL     1       4.386   5.234  20.160  0.00  0.00     0.040 C 
HETATM    2  C   UNL     1       5.627   6.776  20.980  0.00  0.00     0.130 C 
HETATM    3  C   UNL     1       4.185   7.246  19.662  0.00  0.00     0.067 C 
HETATM    4  C   UNL     1       4.839   8.039  18.688  0.00  0.00     0.157 A 
HETATM    5  O   UNL     1       4.309   9.080  17.884  0.00  0.00    -0.371 OA
HETATM    6  C   UNL     1       4.526   9.347  19.263  0.00  0.00     0.174 A 
HETATM    7  C   UNL     1       5.621   9.942  19.957  0.00  0.00     0.007 C 
HETATM    8  C   UNL     1       5.649  10.014  21.287  0.00  0.00    -0.001 C 
HETATM    9  C   UNL     1       6.646  10.754  21.949  0.00  0.00     0.003 C 
HETATM   10  C   UNL     1       6.552  10.894  23.263  0.00  0.00     0.050 C 
HETATM   11  C   UNL     1       7.657  11.546  23.847  0.00  0.00     0.150 C 
HETATM   12  O   UNL     1       8.660  11.745  23.121  0.00  0.00    -0.293 OA
HETATM   13  C   UNL     1       7.602  11.553  25.379  0.00  0.00     0.107 C 
HETATM   14  C   UNL     1       9.018  11.663  25.278  0.00  0.00     0.079 A 
HETATM   15  C   UNL     1       9.501  13.360  25.174  0.00  0.00     0.062 C 
HETATM   16 CL   UNL     1       8.672  14.330  23.928  0.00  0.00    -0.085 Cl
HETATM   17  C   UNL     1      10.667  13.993  25.494  0.00  0.00     0.084 C 
HETATM   18  C   UNL     1      11.307  13.037  26.144  0.00  0.00     0.055 C 
HETATM   19  C   UNL     1      10.673  11.380  25.808  0.00  0.00     0.126 A 
HETATM   20  C   UNL     1       9.422  10.108  24.924  0.00  0.00     0.053 A 
HETATM   21  C   UNL     1       8.094   8.882  23.626  0.00  0.00     0.290 C 
HETATM   22  O   UNL     1       7.758   8.491  24.733  0.00  0.00    -0.260 OA
HETATM   23  O   UNL     1       6.839   7.722  22.398  0.00  0.00    -0.313 OA
ENDROOT
BRANCH  17  24
HETATM   24  O   UNL     1      11.178  15.162  25.028  0.00  0.00    -0.359 OA
HETATM   25  H   UNL     1      10.851  15.873  25.633  0.00  0.00     0.217 HD
ENDBRANCH  17  24
BRANCH  19  26
HETATM   26  O   UNL     1      11.228  11.470  27.600  0.00  0.00    -0.379 OA
HETATM   27  H   UNL     1      11.251  10.643  28.335  0.00  0.00     0.211 HD
ENDBRANCH  19  26
TORSDOF 2
ENDMDL
MODEL 6
REMARK VINA RESULT:    -7.374      3.056      3.802
REMARK INTER + INTRA:          -7.590
REMARK INTER:                  -7.590
REMARK INTRA:                   0.000
REMARK UNBOUND:                 0.000
REMARK  2 active torsions:
REMARK  status: ('A' for Active; 'I' for Inactive)
REMARK    1  A    between atoms: C_17  and  O_18 
REMARK    2  A    between atoms: C_20  and  O_21 
ROOT
HETATM    1  C   UNL     1      10.478  16.666  21.516  0.00  0.00     0.040 C 
HETATM    2  C   UNL     1       8.632  15.633  21.851  0.00  0.00     0.130 C 
HETATM    3  C   UNL     1      10.318  14.590  21.526  0.00  0.00     0.067 C 
HETATM    4  C   UNL     1       9.976  13.672  20.503  0.00  0.00     0.157 A 
HETATM    5  O   UNL     1      10.499  12.378  20.255  0.00  0.00    -0.371 OA
HETATM    6  C   UNL     1       9.627  12.543  21.365  0.00  0.00     0.174 A 
HETATM    7  C   UNL     1       8.221  12.348  21.508  0.00  0.00     0.007 C 
HETATM    8  C   UNL     1       7.585  12.654  22.638  0.00  0.00    -0.001 C 
HETATM    9  C   UNL     1       6.237  12.298  22.827  0.00  0.00     0.003 C 
HETATM   10  C   UNL     1       5.694  12.516  24.015  0.00  0.00     0.050 C 
HETATM   11  C   UNL     1       4.312  12.238  24.070  0.00  0.00     0.150 C 
HETATM   12  O   UNL     1       3.726  12.009  22.985  0.00  0.00    -0.293 OA
HETATM   13  C   UNL     1       3.675  12.649  25.403  0.00  0.00     0.107 C 
HETATM   14  C   UNL     1       2.483  12.744  24.629  0.00  0.00     0.079 A 
HETATM   15  C   UNL     1       1.651  11.186  24.581  0.00  0.00     0.062 C 
HETATM   16 CL   UNL     1       2.646   9.788  24.094  0.00  0.00    -0.085 Cl
HETATM   17  C   UNL     1       0.342  10.862  24.376  0.00  0.00     0.084 C 
HETATM   18  C   UNL     1      -0.230  12.051  24.452  0.00  0.00     0.055 C 
HETATM   19  C   UNL     1       0.915  13.425  24.208  0.00  0.00     0.126 A 
HETATM   20  C   UNL     1       2.725  14.183  23.868  0.00  0.00     0.053 A 
HETATM   21  C   UNL     1       4.771  14.770  23.223  0.00  0.00     0.290 C 
HETATM   22  O   UNL     1       4.672  15.395  24.267  0.00  0.00    -0.260 OA
HETATM   23  O   UNL     1       6.707  15.325  22.610  0.00  0.00    -0.313 OA
ENDROOT
BRANCH  17  24
HETATM   24  O   UNL     1      -0.209   9.708  23.919  0.00  0.00    -0.359 OA
HETATM   25  H   UNL     1       0.481   9.266  23.366  0.00  0.00     0.217 HD
ENDBRANCH  17  24
BRANCH  19  26
HETATM   26  O   UNL     1      -0.381  13.927  25.471  0.00  0.00    -0.379 OA
HETATM   27  H   UNL     1      -0.720  13.344  26.349  0.00  0.00     0.211 HD
ENDBRANCH  19  26
TORSDOF 2
ENDMDL
MODEL 7
REMARK VINA RESULT:    -7.329      5.521      7.238
REMARK INTER + INTRA:          -7.543
REMARK INTER:                  -7.543
REMARK INTRA:                   0.000
REMARK UNBOUND:                 0.000
REMARK  2 active torsions:
REMARK  status: ('A' for Active; 'I' for Inactive)
REMARK    1  A    between atoms: C_17  and  O_18 
REMARK    2  A    between atoms: C_20  and  O_21 
ROOT
HETATM    1  C   UNL     1       6.805  13.963  26.761  0.00  0.00     0.040 C 
HETATM    2  C   UNL     1       5.969  12.693  25.253  0.00  0.00     0.130 C 
HETATM    3  C   UNL     1       7.278  14.128  24.741  0.00  0.00     0.067 C 
HETATM    4  C   UNL     1       6.643  14.827  23.684  0.00  0.00     0.157 A 
HETATM    5  O   UNL     1       7.230  15.513  22.591  0.00  0.00    -0.371 OA
HETATM    6  C   UNL     1       7.252  14.092  22.575  0.00  0.00     0.174 A 
HETATM    7  C   UNL     1       6.378  13.133  21.980  0.00  0.00     0.007 C 
HETATM    8  C   UNL     1       6.544  11.825  22.170  0.00  0.00    -0.001 C 
HETATM    9  C   UNL     1       5.787  10.889  21.442  0.00  0.00     0.003 C 
HETATM   10  C   UNL     1       6.081   9.604  21.582  0.00  0.00     0.050 C 
HETATM   11  C   UNL     1       5.193   8.740  20.908  0.00  0.00     0.150 C 
HETATM   12  O   UNL     1       4.150   9.244  20.428  0.00  0.00    -0.293 OA
HETATM   13  C   UNL     1       5.456   7.261  21.214  0.00  0.00     0.107 C 
HETATM   14  C   UNL     1       4.079   7.106  20.885  0.00  0.00     0.079 A 
HETATM   15  C   UNL     1       3.884   6.830  19.151  0.00  0.00     0.062 C 
HETATM   16 CL   UNL     1       4.690   8.008  18.081  0.00  0.00    -0.085 Cl
HETATM   17  C   UNL     1       2.898   6.217  18.434  0.00  0.00     0.084 C 
HETATM   18  C   UNL     1       2.198   5.647  19.399  0.00  0.00     0.055 C 
HETATM   19  C   UNL     1       2.487   6.367  21.029  0.00  0.00     0.126 A 
HETATM   20  C   UNL     1       3.371   7.655  22.265  0.00  0.00     0.053 A 
HETATM   21  C   UNL     1       4.281   9.348  23.385  0.00  0.00     0.290 C 
HETATM   22  O   UNL     1       4.691   8.398  24.032  0.00  0.00    -0.260 OA
HETATM   23  O   UNL     1       5.140  10.951  24.444  0.00  0.00    -0.313 OA
ENDROOT
BRANCH  17  24
HETATM   24  O   UNL     1       2.536   6.380  17.135  0.00  0.00    -0.359 OA
HETATM   25  H   UNL     1       1.903   5.650  16.925  0.00  0.00     0.217 HD
ENDBRANCH  17  24
BRANCH  19  26
HETATM   26  O   UNL     1       2.204   4.520  21.219  0.00  0.00    -0.379 OA
HETATM   27  H   UNL     1       2.796   3.703  20.765  0.00  0.00     0.211 HD
ENDBRANCH  19  26
TORSDOF 2
ENDMDL
MODEL 8
REMARK VINA RESULT:    -7.252      2.940      8.294
REMARK INTER + INTRA:          -7.464
REMARK INTER:                  -7.464
REMARK INTRA:                   0.000
REMARK UNBOUND:                 0.000
REMARK  2 active torsions:
REMARK  status: ('A' for Active; 'I' for Inactive)
REMARK    1  A    between atoms: C_17  and  O_18 
REMARK    2  A    between atoms: C_20  and  O_21 
ROOT
HETATM    1  C   UNL     1      -0.324   9.302  25.559  0.00  0.00     0.040 C 
HETATM    2  C   UNL     1       1.369  10.195  24.597  0.00  0.00     0.130 C 
HETATM    3  C   UNL     1      -0.227  11.323  25.065  0.00  0.00     0.067 C 
HETATM    4  C   UNL     1      -0.540  12.010  23.867  0.00  0.00     0.157 A 
HETATM    5  O   UNL     1      -1.137  13.285  23.701  0.00  0.00    -0.371 OA
HETATM    6  C   UNL     1       0.212  13.233  24.145  0.00  0.00     0.174 A 
HETATM    7  C   UNL     1       1.450  13.314  23.440  0.00  0.00     0.007 C 
HETATM    8  C   UNL     1       2.618  13.150  24.059  0.00  0.00    -0.001 C 
HETATM    9  C   UNL     1       3.831  13.403  23.391  0.00  0.00     0.003 C 
HETATM   10  C   UNL     1       4.954  13.345  24.091  0.00  0.00     0.050 C 
HETATM   11  C   UNL     1       6.120  13.494  23.312  0.00  0.00     0.150 C 
HETATM   12  O   UNL     1       5.988  13.472  22.065  0.00  0.00    -0.293 OA
HETATM   13  C   UNL     1       7.405  13.263  24.115  0.00  0.00     0.107 C 
HETATM   14  C   UNL     1       7.954  12.920  22.846  0.00  0.00     0.079 A 
HETATM   15  C   UNL     1       8.584  14.358  22.036  0.00  0.00     0.062 C 
HETATM   16 CL   UNL     1       7.461  15.739  21.918  0.00  0.00    -0.085 Cl
HETATM   17  C   UNL     1       9.544  14.513  21.078  0.00  0.00     0.084 C 
HETATM   18  C   UNL     1      10.082  13.306  21.058  0.00  0.00     0.055 C 
HETATM   19  C   UNL     1       9.026  12.028  21.770  0.00  0.00     0.126 A 
HETATM   20  C   UNL     1       7.354  11.400  22.653  0.00  0.00     0.053 A 
HETATM   21  C   UNL     1       5.313  10.908  23.386  0.00  0.00     0.290 C 
HETATM   22  O   UNL     1       5.995  10.470  24.298  0.00  0.00    -0.260 OA
HETATM   23  O   UNL     1       3.380  10.444  24.079  0.00  0.00    -0.313 OA
ENDROOT
BRANCH  17  24
HETATM   24  O   UNL     1       9.718  15.512  20.174  0.00  0.00    -0.359 OA
HETATM   25  H   UNL     1      10.588  15.347  19.736  0.00  0.00     0.217 HD
ENDBRANCH  17  24
BRANCH  19  26
HETATM   26  O   UNL     1      10.818  11.632  22.169  0.00  0.00    -0.379 OA
HETATM   27  H   UNL     1      11.400  10.755  21.828  0.00  0.00     0.211 HD
ENDBRANCH  19  26
TORSDOF 2
ENDMDL
MODEL 9
REMARK VINA RESULT:    -7.230      1.821      2.434
REMARK INTER + INTRA:          -7.441
REMARK INTER:                  -7.441
REMARK INTRA:                   0.000
REMARK UNBOUND:                 0.000
REMARK  2 active torsions:
REMARK  status: ('A' for Active; 'I' for Inactive)
REMARK    1  A    between atoms: C_17  and  O_18 
REMARK    2  A    between atoms: C_20  and  O_21 
ROOT
HETATM    1  C   UNL     1       9.317  13.149  20.389  0.00  0.00     0.040 C 
HETATM    2  C   UNL     1       7.597  13.014  21.659  0.00  0.00     0.130 C 
HETATM    3  C   UNL     1       9.040  14.351  22.066  0.00  0.00     0.067 C 
HETATM    4  C   UNL     1       9.347  14.137  23.432  0.00  0.00     0.157 A 
HETATM    5  O   UNL     1       9.818  15.065  24.396  0.00  0.00    -0.371 OA
HETATM    6  C   UNL     1       8.459  15.157  23.991  0.00  0.00     0.174 A 
HETATM    7  C   UNL     1       7.260  14.623  24.552  0.00  0.00     0.007 C 
HETATM    8  C   UNL     1       6.083  14.764  23.945  0.00  0.00    -0.001 C 
HETATM    9  C   UNL     1       4.890  14.387  24.590  0.00  0.00     0.003 C 
HETATM   10  C   UNL     1       3.741  14.664  23.990  0.00  0.00     0.050 C 
HETATM   11  C   UNL     1       2.612  14.143  24.654  0.00  0.00     0.150 C 
HETATM   12  O   UNL     1       2.814  13.340  25.596  0.00  0.00    -0.293 OA
HETATM   13  C   UNL     1       1.314  14.337  23.861  0.00  0.00     0.107 C 
HETATM   14  C   UNL     1       0.874  13.199  24.596  0.00  0.00     0.079 A 
HETATM   15  C   UNL     1       0.146  13.696  26.127  0.00  0.00     0.062 C 
HETATM   16 CL   UNL     1       1.126  14.795  27.134  0.00  0.00    -0.085 Cl
HETATM   17  C   UNL     1      -0.769  13.088  26.936  0.00  0.00     0.084 C 
HETATM   18  C   UNL     1      -1.179  12.099  26.161  0.00  0.00     0.055 C 
HETATM   19  C   UNL     1      -0.038  11.709  24.818  0.00  0.00     0.126 A 
HETATM   20  C   UNL     1       1.637  11.992  23.778  0.00  0.00     0.053 A 
HETATM   21  C   UNL     1       3.675  12.325  22.950  0.00  0.00     0.290 C 
HETATM   22  O   UNL     1       2.991  12.500  21.954  0.00  0.00    -0.260 OA
HETATM   23  O   UNL     1       5.603  12.639  22.168  0.00  0.00    -0.313 OA
ENDROOT
BRANCH  17  24
HETATM   24  O   UNL     1      -0.995  13.244  28.267  0.00  0.00    -0.359 OA
HETATM   25  H   UNL     1      -0.219  13.739  28.628  0.00  0.00     0.217 HD
ENDBRANCH  17  24
BRANCH  19  26
HETATM   26  O   UNL     1      -1.799  11.460  24.215  0.00  0.00    -0.379 OA
HETATM   27  H   UNL     1      -2.717  11.923  24.625  0.00  0.00     0.211 HD
ENDBRANCH  19  26
TORSDOF 2
ENDMDL
