REMARK  2 active torsions:
REMARK  status: ('A' for Active; 'I' for Inactive)
REMARK    1  A    between atoms: C_17  and  O_18 
REMARK    2  A    between atoms: C_20  and  O_21 
ROOT
HETATM    1  C   UNL     1       2.419  -1.304   0.747  0.00  0.00     0.040 C 
HETATM    2  C   UNL     1       4.346  -2.004   1.368  0.00  0.00     0.130 C 
HETATM    3  C   UNL     1       3.801  -0.107   1.743  0.00  0.00     0.067 C 
HETATM    4  C   UNL     1       4.881   0.674   1.263  0.00  0.00     0.157 A 
HETATM    5  O   UNL     1       5.341   1.935   1.720  0.00  0.00    -0.371 OA
HETATM    6  C   UNL     1       5.607   0.796   2.527  0.00  0.00     0.174 A 
HETATM    7  C   UNL     1       6.743  -0.063   2.617  0.00  0.00     0.007 C 
HETATM    8  C   UNL     1       6.741  -1.144   3.395  0.00  0.00    -0.001 C 
HETATM    9  C   UNL     1       7.920  -1.882   3.608  0.00  0.00     0.003 C 
HETATM   10  C   UNL     1       7.887  -2.872   4.488  0.00  0.00     0.050 C 
HETATM   11  C   UNL     1       9.078  -3.625   4.543  0.00  0.00     0.150 C 
HETATM   12  O   UNL     1       9.938  -3.412   3.655  0.00  0.00    -0.293 OA
HETATM   13  C   UNL     1       8.961  -4.858   5.447  0.00  0.00     0.107 C 
HETATM   14  C   UNL     1       9.997  -5.375   4.618  0.00  0.00     0.079 A 
HETATM   15  C   UNL     1      11.582  -4.920   5.252  0.00  0.00     0.062 C 
HETATM   16 CL   UNL     1      11.814  -3.185   5.594  0.00  0.00    -0.085 Cl
HETATM   17  C   UNL     1      12.814  -5.489   5.110  0.00  0.00     0.084 C 
HETATM   18  C   UNL     1      12.499  -6.644   4.550  0.00  0.00     0.055 C 
HETATM   19  C   UNL     1      10.867  -6.656   3.779  0.00  0.00     0.126 A 
HETATM   20  C   UNL     1       9.136  -5.805   3.283  0.00  0.00     0.053 A 
HETATM   21  C   UNL     1       7.411  -4.564   2.625  0.00  0.00     0.290 C 
HETATM   22  O   UNL     1       6.835  -5.458   3.224  0.00  0.00    -0.260 OA
HETATM   23  O   UNL     1       5.780  -3.389   2.001  0.00  0.00    -0.313 OA
ENDROOT
BRANCH  17  24
HETATM   24  O   UNL     1      14.048  -4.932   5.219  0.00  0.00    -0.359 OA
HETATM   25  H   UNL     1      13.921  -3.953   5.168  0.00  0.00     0.217 HD
ENDBRANCH  17  24
BRANCH  19  26
HETATM   26  O   UNL     1      11.206  -8.349   4.518  0.00  0.00    -0.379 OA
HETATM   27  H   UNL     1      12.186  -8.758   4.829  0.00  0.00     0.211 HD
ENDBRANCH  19  26
TORSDOF 2
