MODEL 1
REMARK VINA RESULT:    -9.457      0.000      0.000
REMARK INTER + INTRA:         -14.133
REMARK INTER:                 -12.605
REMARK INTRA:                  -1.528
REMARK UNBOUND:                -1.635
REMARK  6 active torsions:
REMARK  status: ('A' for Active; 'I' for Inactive)
REMARK    1  A    between atoms: N_8  and  C_9 
REMARK    2  A    between atoms: C_14  and  N_15 
REMARK       I    between atoms: N_15  and  C_17 
REMARK    3  A    between atoms: C_17  and  C_19 
REMARK    4  A    between atoms: C_21  and  O_22 
REMARK    5  A    between atoms: C_29  and  C_30 
REMARK    6  A    between atoms: C_30  and  C_31 
ROOT
HETATM    1  C   UNL     1      -2.876  13.438  21.616  0.00  0.00     0.066 C 
HETATM    2  C   UNL     1      -2.054  14.284  20.836  0.00  0.00     0.035 C 
HETATM    3  C   UNL     1      -4.230  13.804  21.778  0.00  0.00     0.083 C 
HETATM    4  C   UNL     1      -4.743  15.006  21.280  0.00  0.00     0.069 C 
HETATM    5  C   UNL     1      -3.833  15.880  20.682  0.00  0.00     0.065 A 
HETATM    6  C   UNL     1      -2.493  15.573  20.481  0.00  0.00     0.020 A 
HETATM    7  N   UNL     1      -3.991  17.136  20.160  0.00  0.00    -0.277 N 
HETATM    8  H   UNL     1      -4.852  17.664  20.071  0.00  0.00     0.189 HD
HETATM    9  N   UNL     1      -2.845  17.712  19.760  0.00  0.00    -0.178 NA
HETATM   10  C   UNL     1      -1.903  16.775  19.968  0.00  0.00     0.071 A 
ENDROOT
BRANCH   1  11
HETATM   11  C   UNL     1      -2.365  12.189  22.299  0.00  0.00     0.260 C 
HETATM   12  N   UNL     1      -1.506  12.258  23.441  0.00  0.00    -0.318 N 
HETATM   13  C   UNL     1      -1.164  13.549  24.051  0.00  0.00     0.159 C 
HETATM   14  O   UNL     1      -2.803  11.137  21.824  0.00  0.00    -0.267 OA
BRANCH  12  15
HETATM   15  C   UNL     1      -1.017  11.084  24.160  0.00  0.00     0.037 A 
HETATM   16  C   UNL     1      -1.449  10.809  25.466  0.00  0.00     0.032 A 
HETATM   17  C   UNL     1      -1.184   9.587  26.120  0.00  0.00     0.031 A 
HETATM   18  C   UNL     1      -0.424   8.589  25.525  0.00  0.00     0.030 A 
HETATM   19  C   UNL     1       0.132   8.926  24.284  0.00  0.00     0.031 A 
HETATM   20  C   UNL     1      -0.160  10.135  23.606  0.00  0.00     0.032 A 
BRANCH  18  21
HETATM   21  N   UNL     1      -0.189   7.364  26.125  0.00  0.00    -0.378 N 
HETATM   22  C   UNL     1      -0.441   7.102  27.553  0.00  0.00     0.150 C 
HETATM   23  C   UNL     1       0.744   6.298  28.131  0.00  0.00     0.252 C 
HETATM   24  N   UNL     1       1.025   5.064  27.300  0.00  0.00    -0.072 N 
HETATM   25  H   UNL     1       0.250   4.396  27.412  0.00  0.00     0.277 HD
HETATM   26  H   UNL     1       1.872   4.602  27.651  0.00  0.00     0.277 HD
HETATM   27  C   UNL     1       1.202   5.375  25.828  0.00  0.00     0.252 C 
HETATM   28  C   UNL     1      -0.019   6.151  25.305  0.00  0.00     0.150 C 
ENDBRANCH  18  21
ENDBRANCH  12  15
ENDBRANCH   1  11
BRANCH   3  29
HETATM   29  O   UNL     1      -5.147  13.016  22.437  0.00  0.00    -0.360 OA
HETATM   30  H   UNL     1      -5.991  13.515  22.493  0.00  0.00     0.217 HD
ENDBRANCH   3  29
BRANCH  10  31
HETATM   31  C   UNL     1      -0.464  17.110  19.651  0.00  0.00     0.100 C 
BRANCH  31  32
HETATM   32  C   UNL     1       0.493  16.645  20.748  0.00  0.00    -0.052 A 
HETATM   33  C   UNL     1       0.485  17.169  22.049  0.00  0.00     0.007 A 
HETATM   34  C   UNL     1       1.384  16.714  23.018  0.00  0.00     0.001 A 
HETATM   35  C   UNL     1       2.372  15.794  22.689  0.00  0.00     0.007 A 
HETATM   36  C   UNL     1       2.502  15.348  21.372  0.00  0.00    -0.061 A 
HETATM   37  C   UNL     1       1.536  15.742  20.422  0.00  0.00     0.014 A 
HETATM   38  C   UNL     1       3.675  14.476  21.014  0.00  0.00     0.048 C 
ENDBRANCH  31  32
ENDBRANCH  10  31
TORSDOF 6
ENDMDL
MODEL 2
REMARK VINA RESULT:    -9.354      0.918      1.342
REMARK INTER + INTRA:         -13.996
REMARK INTER:                 -12.532
REMARK INTRA:                  -1.464
REMARK UNBOUND:                -1.635
REMARK  6 active torsions:
REMARK  status: ('A' for Active; 'I' for Inactive)
REMARK    1  A    between atoms: N_8  and  C_9 
REMARK    2  A    between atoms: C_14  and  N_15 
REMARK       I    between atoms: N_15  and  C_17 
REMARK    3  A    between atoms: C_17  and  C_19 
REMARK    4  A    between atoms: C_21  and  O_22 
REMARK    5  A    between atoms: C_29  and  C_30 
REMARK    6  A    between atoms: C_30  and  C_31 
ROOT
HETATM    1  C   UNL     1      -2.959  13.458  21.716  0.00  0.00     0.066 C 
HETATM    2  C   UNL     1      -2.040  14.276  21.019  0.00  0.00     0.035 C 
HETATM    3  C   UNL     1      -4.315  13.854  21.725  0.00  0.00     0.083 C 
HETATM    4  C   UNL     1      -4.745  15.059  21.158  0.00  0.00     0.069 C 
HETATM    5  C   UNL     1      -3.756  15.905  20.653  0.00  0.00     0.065 A 
HETATM    6  C   UNL     1      -2.409  15.569  20.603  0.00  0.00     0.020 A 
HETATM    7  N   UNL     1      -3.828  17.157  20.102  0.00  0.00    -0.277 N 
HETATM    8  H   UNL     1      -4.663  17.700  19.912  0.00  0.00     0.189 HD
HETATM    9  N   UNL     1      -2.634  17.704  19.822  0.00  0.00    -0.178 NA
HETATM   10  C   UNL     1      -1.741  16.750  20.143  0.00  0.00     0.071 A 
ENDROOT
BRANCH   1  11
HETATM   11  C   UNL     1      -2.553  12.209  22.466  0.00  0.00     0.260 C 
HETATM   12  N   UNL     1      -1.916  12.277  23.745  0.00  0.00    -0.318 N 
HETATM   13  C   UNL     1      -1.717  13.566  24.420  0.00  0.00     0.159 C 
HETATM   14  O   UNL     1      -2.875  11.156  21.907  0.00  0.00    -0.267 OA
BRANCH  12  15
HETATM   15  C   UNL     1      -1.539  11.103  24.527  0.00  0.00     0.037 A 
HETATM   16  C   UNL     1      -0.548  10.222  24.069  0.00  0.00     0.032 A 
HETATM   17  C   UNL     1       0.006   9.204  24.875  0.00  0.00     0.031 A 
HETATM   18  C   UNL     1      -0.439   8.974  26.170  0.00  0.00     0.030 A 
HETATM   19  C   UNL     1      -1.530   9.756  26.571  0.00  0.00     0.031 A 
HETATM   20  C   UNL     1      -2.066  10.802  25.781  0.00  0.00     0.032 A 
BRANCH  18  21
HETATM   21  N   UNL     1       0.119   8.015  26.998  0.00  0.00    -0.378 N 
HETATM   22  C   UNL     1      -0.607   6.816  27.448  0.00  0.00     0.150 C 
HETATM   23  C   UNL     1      -0.328   6.596  28.951  0.00  0.00     0.252 C 
HETATM   24  N   UNL     1       1.159   6.580  29.235  0.00  0.00    -0.072 N 
HETATM   25  H   UNL     1       1.574   5.734  28.824  0.00  0.00     0.277 HD
HETATM   26  H   UNL     1       1.312   6.527  30.249  0.00  0.00     0.277 HD
HETATM   27  C   UNL     1       1.874   7.799  28.687  0.00  0.00     0.252 C 
HETATM   28  C   UNL     1       1.580   7.948  27.184  0.00  0.00     0.150 C 
ENDBRANCH  18  21
ENDBRANCH  12  15
ENDBRANCH   1  11
BRANCH   3  29
HETATM   29  O   UNL     1      -5.315  13.094  22.289  0.00  0.00    -0.360 OA
HETATM   30  H   UNL     1      -5.943  12.843  21.578  0.00  0.00     0.217 HD
ENDBRANCH   3  29
BRANCH  10  31
HETATM   31  C   UNL     1      -0.269  17.052  19.980  0.00  0.00     0.100 C 
BRANCH  31  32
HETATM   32  C   UNL     1       0.571  16.459  21.111  0.00  0.00    -0.052 A 
HETATM   33  C   UNL     1       0.347  16.743  22.466  0.00  0.00     0.007 A 
HETATM   34  C   UNL     1       1.145  16.179  23.466  0.00  0.00     0.001 A 
HETATM   35  C   UNL     1       2.242  15.393  23.135  0.00  0.00     0.007 A 
HETATM   36  C   UNL     1       2.582  15.195  21.795  0.00  0.00    -0.061 A 
HETATM   37  C   UNL     1       1.720  15.691  20.794  0.00  0.00     0.014 A 
HETATM   38  C   UNL     1       3.861  14.472  21.470  0.00  0.00     0.048 C 
ENDBRANCH  31  32
ENDBRANCH  10  31
TORSDOF 6
ENDMDL
MODEL 3
REMARK VINA RESULT:    -8.846      1.842      2.269
REMARK INTER + INTRA:         -13.325
REMARK INTER:                 -12.194
REMARK INTRA:                  -1.130
REMARK UNBOUND:                -1.635
REMARK  6 active torsions:
REMARK  status: ('A' for Active; 'I' for Inactive)
REMARK    1  A    between atoms: N_8  and  C_9 
REMARK    2  A    between atoms: C_14  and  N_15 
REMARK       I    between atoms: N_15  and  C_17 
REMARK    3  A    between atoms: C_17  and  C_19 
REMARK    4  A    between atoms: C_21  and  O_22 
REMARK    5  A    between atoms: C_29  and  C_30 
REMARK    6  A    between atoms: C_30  and  C_31 
ROOT
HETATM    1  C   UNL     1      -2.714  13.623  22.909  0.00  0.00     0.066 C 
HETATM    2  C   UNL     1      -1.883  14.488  22.159  0.00  0.00     0.035 C 
HETATM    3  C   UNL     1      -4.072  13.528  22.532  0.00  0.00     0.083 C 
HETATM    4  C   UNL     1      -4.625  14.323  21.523  0.00  0.00     0.069 C 
HETATM    5  C   UNL     1      -3.791  15.287  20.953  0.00  0.00     0.065 A 
HETATM    6  C   UNL     1      -2.445  15.423  21.270  0.00  0.00     0.020 A 
HETATM    7  N   UNL     1      -4.031  16.249  20.008  0.00  0.00    -0.277 N 
HETATM    8  H   UNL     1      -4.891  16.410  19.495  0.00  0.00     0.189 HD
HETATM    9  N   UNL     1      -2.992  17.071  19.785  0.00  0.00    -0.178 NA
HETATM   10  C   UNL     1      -2.008  16.594  20.569  0.00  0.00     0.071 A 
ENDROOT
BRANCH   1  11
HETATM   11  C   UNL     1      -2.223  12.829  24.098  0.00  0.00     0.260 C 
HETATM   12  N   UNL     1      -1.845  11.455  23.977  0.00  0.00    -0.318 N 
HETATM   13  C   UNL     1      -1.830  10.789  22.668  0.00  0.00     0.159 C 
HETATM   14  O   UNL     1      -2.125  13.486  25.139  0.00  0.00    -0.267 OA
BRANCH  12  15
HETATM   15  C   UNL     1      -1.328  10.655  25.084  0.00  0.00     0.037 A 
HETATM   16  C   UNL     1      -0.021  10.146  25.055  0.00  0.00     0.032 A 
HETATM   17  C   UNL     1       0.599   9.560  26.179  0.00  0.00     0.031 A 
HETATM   18  C   UNL     1      -0.073   9.401  27.385  0.00  0.00     0.030 A 
HETATM   19  C   UNL     1      -1.423   9.773  27.366  0.00  0.00     0.031 A 
HETATM   20  C   UNL     1      -2.041  10.395  26.253  0.00  0.00     0.032 A 
BRANCH  18  21
HETATM   21  N   UNL     1       0.527   8.874  28.515  0.00  0.00    -0.378 N 
HETATM   22  C   UNL     1      -0.064   8.967  29.861  0.00  0.00     0.150 C 
HETATM   23  C   UNL     1       1.044   9.338  30.871  0.00  0.00     0.252 C 
HETATM   24  N   UNL     1       2.222   8.394  30.761  0.00  0.00    -0.072 N 
HETATM   25  H   UNL     1       1.944   7.463  31.096  0.00  0.00     0.277 HD
HETATM   26  H   UNL     1       2.978   8.720  31.374  0.00  0.00     0.277 HD
HETATM   27  C   UNL     1       2.748   8.275  29.344  0.00  0.00     0.252 C 
HETATM   28  C   UNL     1       1.606   7.877  28.393  0.00  0.00     0.150 C 
ENDBRANCH  18  21
ENDBRANCH  12  15
ENDBRANCH   1  11
BRANCH   3  29
HETATM   29  O   UNL     1      -4.955  12.654  23.125  0.00  0.00    -0.360 OA
HETATM   30  H   UNL     1      -4.917  11.805  22.636  0.00  0.00     0.217 HD
ENDBRANCH   3  29
BRANCH  10  31
HETATM   31  C   UNL     1      -0.682  17.318  20.588  0.00  0.00     0.100 C 
BRANCH  31  32
HETATM   32  C   UNL     1       0.350  16.610  21.465  0.00  0.00    -0.052 A 
HETATM   33  C   UNL     1       0.532  16.899  22.826  0.00  0.00     0.007 A 
HETATM   34  C   UNL     1       1.493  16.226  23.586  0.00  0.00     0.001 A 
HETATM   35  C   UNL     1       2.358  15.317  22.989  0.00  0.00     0.007 A 
HETATM   36  C   UNL     1       2.301  15.099  21.611  0.00  0.00    -0.061 A 
HETATM   37  C   UNL     1       1.271  15.713  20.867  0.00  0.00     0.014 A 
HETATM   38  C   UNL     1       3.349  14.231  20.970  0.00  0.00     0.048 C 
ENDBRANCH  31  32
ENDBRANCH  10  31
TORSDOF 6
ENDMDL
MODEL 4
REMARK VINA RESULT:    -8.759      2.027      2.682
REMARK INTER + INTRA:         -13.210
REMARK INTER:                 -11.896
REMARK INTRA:                  -1.314
REMARK UNBOUND:                -1.635
REMARK  6 active torsions:
REMARK  status: ('A' for Active; 'I' for Inactive)
REMARK    1  A    between atoms: N_8  and  C_9 
REMARK    2  A    between atoms: C_14  and  N_15 
REMARK       I    between atoms: N_15  and  C_17 
REMARK    3  A    between atoms: C_17  and  C_19 
REMARK    4  A    between atoms: C_21  and  O_22 
REMARK    5  A    between atoms: C_29  and  C_30 
REMARK    6  A    between atoms: C_30  and  C_31 
ROOT
HETATM    1  C   UNL     1      -1.088  12.592  22.064  0.00  0.00     0.066 C 
HETATM    2  C   UNL     1      -0.484  13.845  21.812  0.00  0.00     0.035 C 
HETATM    3  C   UNL     1      -2.348  12.340  21.475  0.00  0.00     0.083 C 
HETATM    4  C   UNL     1      -3.040  13.313  20.747  0.00  0.00     0.069 C 
HETATM    5  C   UNL     1      -2.469  14.585  20.696  0.00  0.00     0.065 A 
HETATM    6  C   UNL     1      -1.230  14.894  21.243  0.00  0.00     0.020 A 
HETATM    7  N   UNL     1      -2.909  15.755  20.134  0.00  0.00    -0.277 N 
HETATM    8  H   UNL     1      -3.751  15.899  19.588  0.00  0.00     0.189 HD
HETATM    9  N   UNL     1      -2.121  16.814  20.384  0.00  0.00    -0.178 NA
HETATM   10  C   UNL     1      -1.089  16.312  21.085  0.00  0.00     0.071 A 
ENDROOT
BRANCH   1  11
HETATM   11  C   UNL     1      -0.466  11.536  22.949  0.00  0.00     0.260 C 
HETATM   12  N   UNL     1      -0.430  11.677  24.372  0.00  0.00    -0.318 N 
HETATM   13  C   UNL     1      -1.083  12.813  25.034  0.00  0.00     0.159 C 
HETATM   14  O   UNL     1      -0.061  10.540  22.341  0.00  0.00    -0.267 OA
BRANCH  12  15
HETATM   15  C   UNL     1       0.124  10.669  25.273  0.00  0.00     0.037 A 
HETATM   16  C   UNL     1       1.467  10.276  25.173  0.00  0.00     0.032 A 
HETATM   17  C   UNL     1       2.107   9.478  26.145  0.00  0.00     0.031 A 
HETATM   18  C   UNL     1       1.425   8.983  27.249  0.00  0.00     0.030 A 
HETATM   19  C   UNL     1       0.050   9.252  27.268  0.00  0.00     0.031 A 
HETATM   20  C   UNL     1      -0.590  10.082  26.315  0.00  0.00     0.032 A 
BRANCH  18  21
HETATM   21  N   UNL     1       2.040   8.239  28.241  0.00  0.00    -0.378 N 
HETATM   22  C   UNL     1       1.310   7.639  29.371  0.00  0.00     0.150 C 
HETATM   23  C   UNL     1       2.115   7.871  30.669  0.00  0.00     0.252 C 
HETATM   24  N   UNL     1       3.546   7.398  30.516  0.00  0.00    -0.072 N 
HETATM   25  H   UNL     1       3.558   6.373  30.447  0.00  0.00     0.277 HD
HETATM   26  H   UNL     1       4.079   7.650  31.356  0.00  0.00     0.277 HD
HETATM   27  C   UNL     1       4.231   7.985  29.298  0.00  0.00     0.252 C 
HETATM   28  C   UNL     1       3.396   7.699  28.038  0.00  0.00     0.150 C 
ENDBRANCH  18  21
ENDBRANCH  12  15
ENDBRANCH   1  11
BRANCH   3  29
HETATM   29  O   UNL     1      -2.992  11.127  21.572  0.00  0.00    -0.360 OA
HETATM   30  H   UNL     1      -2.344  10.421  21.356  0.00  0.00     0.217 HD
ENDBRANCH   3  29
BRANCH  10  31
HETATM   31  C   UNL     1      -0.012  17.256  21.567  0.00  0.00     0.100 C 
BRANCH  31  32
HETATM   32  C   UNL     1       1.392  16.699  21.334  0.00  0.00    -0.052 A 
HETATM   33  C   UNL     1       2.016  16.684  20.078  0.00  0.00     0.007 A 
HETATM   34  C   UNL     1       3.301  16.159  19.914  0.00  0.00     0.001 A 
HETATM   35  C   UNL     1       3.957  15.551  20.978  0.00  0.00     0.007 A 
HETATM   36  C   UNL     1       3.318  15.423  22.213  0.00  0.00    -0.061 A 
HETATM   37  C   UNL     1       2.060  16.035  22.395  0.00  0.00     0.014 A 
HETATM   38  C   UNL     1       3.989  14.625  23.298  0.00  0.00     0.048 C 
ENDBRANCH  31  32
ENDBRANCH  10  31
TORSDOF 6
ENDMDL
MODEL 5
REMARK VINA RESULT:    -8.745      2.941      4.781
REMARK INTER + INTRA:         -13.192
REMARK INTER:                 -12.008
REMARK INTRA:                  -1.184
REMARK UNBOUND:                -1.635
REMARK  6 active torsions:
REMARK  status: ('A' for Active; 'I' for Inactive)
REMARK    1  A    between atoms: N_8  and  C_9 
REMARK    2  A    between atoms: C_14  and  N_15 
REMARK       I    between atoms: N_15  and  C_17 
REMARK    3  A    between atoms: C_17  and  C_19 
REMARK    4  A    between atoms: C_21  and  O_22 
REMARK    5  A    between atoms: C_29  and  C_30 
REMARK    6  A    between atoms: C_30  and  C_31 
ROOT
HETATM    1  C   UNL     1      -1.860  10.730  24.772  0.00  0.00     0.066 C 
HETATM    2  C   UNL     1      -2.374  11.210  23.545  0.00  0.00     0.035 C 
HETATM    3  C   UNL     1      -2.422  11.240  25.963  0.00  0.00     0.083 C 
HETATM    4  C   UNL     1      -3.383  12.256  25.961  0.00  0.00     0.069 C 
HETATM    5  C   UNL     1      -3.707  12.813  24.722  0.00  0.00     0.065 A 
HETATM    6  C   UNL     1      -3.200  12.350  23.515  0.00  0.00     0.020 A 
HETATM    7  N   UNL     1      -4.542  13.844  24.382  0.00  0.00    -0.277 N 
HETATM    8  H   UNL     1      -5.139  14.385  24.999  0.00  0.00     0.189 HD
HETATM    9  N   UNL     1      -4.516  14.165  23.078  0.00  0.00    -0.178 NA
HETATM   10  C   UNL     1      -3.678  13.270  22.525  0.00  0.00     0.071 A 
ENDROOT
BRANCH   1  11
HETATM   11  C   UNL     1      -0.730   9.730  24.861  0.00  0.00     0.260 C 
HETATM   12  N   UNL     1       0.625  10.105  24.600  0.00  0.00    -0.318 N 
HETATM   13  C   UNL     1       0.981  11.503  24.326  0.00  0.00     0.159 C 
HETATM   14  O   UNL     1      -1.078   8.605  25.233  0.00  0.00    -0.267 OA
BRANCH  12  15
HETATM   15  C   UNL     1       1.756   9.187  24.710  0.00  0.00     0.037 A 
HETATM   16  C   UNL     1       2.641   9.264  25.796  0.00  0.00     0.032 A 
HETATM   17  C   UNL     1       3.611   8.275  26.066  0.00  0.00     0.031 A 
HETATM   18  C   UNL     1       3.788   7.178  25.233  0.00  0.00     0.030 A 
HETATM   19  C   UNL     1       3.007   7.182  24.070  0.00  0.00     0.031 A 
HETATM   20  C   UNL     1       2.007   8.152  23.812  0.00  0.00     0.032 A 
BRANCH  18  21
HETATM   21  N   UNL     1       4.699   6.170  25.501  0.00  0.00    -0.378 N 
HETATM   22  C   UNL     1       5.527   5.533  24.462  0.00  0.00     0.150 C 
HETATM   23  C   UNL     1       5.537   4.006  24.696  0.00  0.00     0.252 C 
HETATM   24  N   UNL     1       5.937   3.674  26.118  0.00  0.00    -0.072 N 
HETATM   25  H   UNL     1       6.929   3.908  26.255  0.00  0.00     0.277 HD
HETATM   26  H   UNL     1       5.844   2.663  26.270  0.00  0.00     0.277 HD
HETATM   27  C   UNL     1       5.106   4.410  27.149  0.00  0.00     0.252 C 
HETATM   28  C   UNL     1       5.157   5.924  26.880  0.00  0.00     0.150 C 
ENDBRANCH  18  21
ENDBRANCH  12  15
ENDBRANCH   1  11
BRANCH   3  29
HETATM   29  O   UNL     1      -2.070  10.784  27.214  0.00  0.00    -0.360 OA
HETATM   30  H   UNL     1      -1.145  11.062  27.389  0.00  0.00     0.217 HD
ENDBRANCH   3  29
BRANCH  10  31
HETATM   31  C   UNL     1      -3.388  13.365  21.045  0.00  0.00     0.100 C 
BRANCH  31  32
HETATM   32  C   UNL     1      -3.017  14.785  20.620  0.00  0.00    -0.052 A 
HETATM   33  C   UNL     1      -3.772  15.538  19.709  0.00  0.00     0.007 A 
HETATM   34  C   UNL     1      -3.390  16.833  19.348  0.00  0.00     0.001 A 
HETATM   35  C   UNL     1      -2.197  17.374  19.812  0.00  0.00     0.007 A 
HETATM   36  C   UNL     1      -1.347  16.608  20.613  0.00  0.00    -0.061 A 
HETATM   37  C   UNL     1      -1.782  15.337  21.047  0.00  0.00     0.014 A 
HETATM   38  C   UNL     1       0.006  17.159  20.971  0.00  0.00     0.048 C 
ENDBRANCH  31  32
ENDBRANCH  10  31
TORSDOF 6
ENDMDL
MODEL 6
REMARK VINA RESULT:    -8.617      1.657      2.497
REMARK INTER + INTRA:         -13.023
REMARK INTER:                 -12.006
REMARK INTRA:                  -1.017
REMARK UNBOUND:                -1.635
REMARK  6 active torsions:
REMARK  status: ('A' for Active; 'I' for Inactive)
REMARK    1  A    between atoms: N_8  and  C_9 
REMARK    2  A    between atoms: C_14  and  N_15 
REMARK       I    between atoms: N_15  and  C_17 
REMARK    3  A    between atoms: C_17  and  C_19 
REMARK    4  A    between atoms: C_21  and  O_22 
REMARK    5  A    between atoms: C_29  and  C_30 
REMARK    6  A    between atoms: C_30  and  C_31 
ROOT
HETATM    1  C   UNL     1      -2.444  13.775  22.895  0.00  0.00     0.066 C 
HETATM    2  C   UNL     1      -1.446  14.596  22.320  0.00  0.00     0.035 C 
HETATM    3  C   UNL     1      -3.738  13.820  22.328  0.00  0.00     0.083 C 
HETATM    4  C   UNL     1      -4.073  14.708  21.301  0.00  0.00     0.069 C 
HETATM    5  C   UNL     1      -3.090  15.618  20.910  0.00  0.00     0.065 A 
HETATM    6  C   UNL     1      -1.797  15.618  21.418  0.00  0.00     0.020 A 
HETATM    7  N   UNL     1      -3.111  16.641  19.999  0.00  0.00    -0.277 N 
HETATM    8  H   UNL     1      -3.872  16.903  19.382  0.00  0.00     0.189 HD
HETATM    9  N   UNL     1      -1.987  17.377  19.972  0.00  0.00    -0.178 NA
HETATM   10  C   UNL     1      -1.168  16.777  20.856  0.00  0.00     0.071 A 
ENDROOT
BRANCH   1  11
HETATM   11  C   UNL     1      -2.196  12.885  24.091  0.00  0.00     0.260 C 
HETATM   12  N   UNL     1      -1.887  11.496  23.941  0.00  0.00    -0.318 N 
HETATM   13  C   UNL     1      -1.706  10.904  22.610  0.00  0.00     0.159 C 
HETATM   14  O   UNL     1      -2.224  13.476  25.176  0.00  0.00    -0.267 OA
BRANCH  12  15
HETATM   15  C   UNL     1      -1.601  10.604  25.062  0.00  0.00     0.037 A 
HETATM   16  C   UNL     1      -0.657   9.574  24.937  0.00  0.00     0.032 A 
HETATM   17  C   UNL     1      -0.185   8.829  26.038  0.00  0.00     0.031 A 
HETATM   18  C   UNL     1      -0.671   9.035  27.323  0.00  0.00     0.030 A 
HETATM   19  C   UNL     1      -1.721   9.958  27.420  0.00  0.00     0.031 A 
HETATM   20  C   UNL     1      -2.173  10.735  26.325  0.00  0.00     0.032 A 
BRANCH  18  21
HETATM   21  N   UNL     1      -0.192   8.351  28.427  0.00  0.00    -0.378 N 
HETATM   22  C   UNL     1       0.644   7.142  28.329  0.00  0.00     0.150 C 
HETATM   23  C   UNL     1       0.148   6.105  29.360  0.00  0.00     0.252 C 
HETATM   24  N   UNL     1       0.067   6.708  30.747  0.00  0.00    -0.072 N 
HETATM   25  H   UNL     1       1.017   6.900  31.089  0.00  0.00     0.277 HD
HETATM   26  H   UNL     1      -0.352   6.027  31.390  0.00  0.00     0.277 HD
HETATM   27  C   UNL     1      -0.741   7.990  30.782  0.00  0.00     0.252 C 
HETATM   28  C   UNL     1      -0.183   8.991  29.756  0.00  0.00     0.150 C 
ENDBRANCH  18  21
ENDBRANCH  12  15
ENDBRANCH   1  11
BRANCH   3  29
HETATM   29  O   UNL     1      -4.766  13.002  22.740  0.00  0.00    -0.360 OA
HETATM   30  H   UNL     1      -5.557  13.212  22.198  0.00  0.00     0.217 HD
ENDBRANCH   3  29
BRANCH  10  31
HETATM   31  C   UNL     1       0.196  17.378  21.102  0.00  0.00     0.100 C 
BRANCH  31  32
HETATM   32  C   UNL     1       1.273  16.309  21.288  0.00  0.00    -0.052 A 
HETATM   33  C   UNL     1       1.798  15.554  20.230  0.00  0.00     0.007 A 
HETATM   34  C   UNL     1       2.780  14.583  20.449  0.00  0.00     0.001 A 
HETATM   35  C   UNL     1       3.194  14.277  21.740  0.00  0.00     0.007 A 
HETATM   36  C   UNL     1       2.600  14.910  22.835  0.00  0.00    -0.061 A 
HETATM   37  C   UNL     1       1.677  15.951  22.599  0.00  0.00     0.014 A 
HETATM   38  C   UNL     1       2.955  14.448  24.221  0.00  0.00     0.048 C 
ENDBRANCH  31  32
ENDBRANCH  10  31
TORSDOF 6
ENDMDL
MODEL 7
REMARK VINA RESULT:    -8.088      2.209      4.496
REMARK INTER + INTRA:         -12.323
REMARK INTER:                 -11.070
REMARK INTRA:                  -1.253
REMARK UNBOUND:                -1.635
REMARK  6 active torsions:
REMARK  status: ('A' for Active; 'I' for Inactive)
REMARK    1  A    between atoms: N_8  and  C_9 
REMARK    2  A    between atoms: C_14  and  N_15 
REMARK       I    between atoms: N_15  and  C_17 
REMARK    3  A    between atoms: C_17  and  C_19 
REMARK    4  A    between atoms: C_21  and  O_22 
REMARK    5  A    between atoms: C_29  and  C_30 
REMARK    6  A    between atoms: C_30  and  C_31 
ROOT
HETATM    1  C   UNL     1       1.083  14.765  22.513  0.00  0.00     0.066 C 
HETATM    2  C   UNL     1       0.046  15.667  22.179  0.00  0.00     0.035 C 
HETATM    3  C   UNL     1       2.329  14.930  21.868  0.00  0.00     0.083 C 
HETATM    4  C   UNL     1       2.528  15.878  20.859  0.00  0.00     0.069 C 
HETATM    5  C   UNL     1       1.410  16.606  20.450  0.00  0.00     0.065 A 
HETATM    6  C   UNL     1       0.162  16.501  21.051  0.00  0.00     0.020 A 
HETATM    7  N   UNL     1       1.249  17.545  19.465  0.00  0.00    -0.277 N 
HETATM    8  H   UNL     1       1.963  17.930  18.857  0.00  0.00     0.189 HD
HETATM    9  N   UNL     1      -0.019  17.955  19.299  0.00  0.00    -0.178 NA
HETATM   10  C   UNL     1      -0.713  17.308  20.253  0.00  0.00     0.071 A 
ENDROOT
BRANCH   1  11
HETATM   11  C   UNL     1       0.908  13.630  23.496  0.00  0.00     0.260 C 
HETATM   12  N   UNL     1       0.111  12.484  23.184  0.00  0.00    -0.318 N 
HETATM   13  C   UNL     1      -0.491  12.324  21.854  0.00  0.00     0.159 C 
HETATM   14  O   UNL     1       1.555  13.761  24.541  0.00  0.00    -0.267 OA
BRANCH  12  15
HETATM   15  C   UNL     1      -0.058  11.344  24.082  0.00  0.00     0.037 A 
HETATM   16  C   UNL     1       0.744  10.201  23.951  0.00  0.00     0.032 A 
HETATM   17  C   UNL     1       0.775   9.172  24.916  0.00  0.00     0.031 A 
HETATM   18  C   UNL     1      -0.036   9.201  26.043  0.00  0.00     0.030 A 
HETATM   19  C   UNL     1      -0.942  10.268  26.095  0.00  0.00     0.031 A 
HETATM   20  C   UNL     1      -0.953  11.323  25.149  0.00  0.00     0.032 A 
BRANCH  18  21
HETATM   21  N   UNL     1       0.009   8.230  27.028  0.00  0.00    -0.378 N 
HETATM   22  C   UNL     1      -0.272   6.807  26.772  0.00  0.00     0.150 C 
HETATM   23  C   UNL     1      -1.164   6.259  27.908  0.00  0.00     0.252 C 
HETATM   24  N   UNL     1      -0.560   6.552  29.265  0.00  0.00    -0.072 N 
HETATM   25  H   UNL     1       0.292   5.990  29.386  0.00  0.00     0.277 HD
HETATM   26  H   UNL     1      -1.217   6.262  30.000  0.00  0.00     0.277 HD
HETATM   27  C   UNL     1      -0.220   8.017  29.453  0.00  0.00     0.252 C 
HETATM   28  C   UNL     1       0.690   8.494  28.308  0.00  0.00     0.150 C 
ENDBRANCH  18  21
ENDBRANCH  12  15
ENDBRANCH   1  11
BRANCH   3  29
HETATM   29  O   UNL     1       3.438  14.174  22.175  0.00  0.00    -0.360 OA
HETATM   30  H   UNL     1       3.862  14.567  22.969  0.00  0.00     0.217 HD
ENDBRANCH   3  29
BRANCH  10  31
HETATM   31  C   UNL     1      -2.208  17.518  20.330  0.00  0.00     0.100 C 
BRANCH  31  32
HETATM   32  C   UNL     1      -2.978  16.198  20.305  0.00  0.00    -0.052 A 
HETATM   33  C   UNL     1      -3.749  15.778  19.211  0.00  0.00     0.007 A 
HETATM   34  C   UNL     1      -4.439  14.563  19.236  0.00  0.00     0.001 A 
HETATM   35  C   UNL     1      -4.454  13.782  20.386  0.00  0.00     0.007 A 
HETATM   36  C   UNL     1      -3.812  14.228  21.543  0.00  0.00    -0.061 A 
HETATM   37  C   UNL     1      -3.043  15.410  21.482  0.00  0.00     0.014 A 
HETATM   38  C   UNL     1      -3.977  13.441  22.814  0.00  0.00     0.048 C 
ENDBRANCH  31  32
ENDBRANCH  10  31
TORSDOF 6
ENDMDL
MODEL 8
REMARK VINA RESULT:    -8.029      3.451      5.714
REMARK INTER + INTRA:         -12.246
REMARK INTER:                 -11.099
REMARK INTRA:                  -1.147
REMARK UNBOUND:                -1.635
REMARK  6 active torsions:
REMARK  status: ('A' for Active; 'I' for Inactive)
REMARK    1  A    between atoms: N_8  and  C_9 
REMARK    2  A    between atoms: C_14  and  N_15 
REMARK       I    between atoms: N_15  and  C_17 
REMARK    3  A    between atoms: C_17  and  C_19 
REMARK    4  A    between atoms: C_21  and  O_22 
REMARK    5  A    between atoms: C_29  and  C_30 
REMARK    6  A    between atoms: C_30  and  C_31 
ROOT
HETATM    1  C   UNL     1      -1.285   9.777  25.463  0.00  0.00     0.066 C 
HETATM    2  C   UNL     1      -1.971  10.497  24.457  0.00  0.00     0.035 C 
HETATM    3  C   UNL     1      -1.673   9.990  26.804  0.00  0.00     0.083 C 
HETATM    4  C   UNL     1      -2.630  10.946  27.162  0.00  0.00     0.069 C 
HETATM    5  C   UNL     1      -3.130  11.751  26.136  0.00  0.00     0.065 A 
HETATM    6  C   UNL     1      -2.798  11.584  24.797  0.00  0.00     0.020 A 
HETATM    7  N   UNL     1      -4.009  12.801  26.154  0.00  0.00    -0.277 N 
HETATM    8  H   UNL     1      -4.514  13.169  26.952  0.00  0.00     0.189 HD
HETATM    9  N   UNL     1      -4.171  13.402  24.963  0.00  0.00    -0.178 NA
HETATM   10  C   UNL     1      -3.417  12.682  24.114  0.00  0.00     0.071 A 
ENDROOT
BRANCH   1  11
HETATM   11  C   UNL     1      -0.150   8.823  25.169  0.00  0.00     0.260 C 
HETATM   12  N   UNL     1       1.165   9.295  24.861  0.00  0.00    -0.318 N 
HETATM   13  C   UNL     1       1.483  10.728  24.911  0.00  0.00     0.159 C 
HETATM   14  O   UNL     1      -0.449   7.630  25.281  0.00  0.00    -0.267 OA
BRANCH  12  15
HETATM   15  C   UNL     1       2.304   8.416  24.608  0.00  0.00     0.037 A 
HETATM   16  C   UNL     1       3.237   8.140  25.618  0.00  0.00     0.032 A 
HETATM   17  C   UNL     1       4.223   7.138  25.498  0.00  0.00     0.031 A 
HETATM   18  C   UNL     1       4.366   6.388  24.338  0.00  0.00     0.030 A 
HETATM   19  C   UNL     1       3.532   6.768  23.278  0.00  0.00     0.031 A 
HETATM   20  C   UNL     1       2.517   7.748  23.404  0.00  0.00     0.032 A 
BRANCH  18  21
HETATM   21  N   UNL     1       5.293   5.367  24.212  0.00  0.00    -0.378 N 
HETATM   22  C   UNL     1       6.493   5.465  23.363  0.00  0.00     0.150 C 
HETATM   23  C   UNL     1       6.667   4.142  22.586  0.00  0.00     0.252 C 
HETATM   24  N   UNL     1       6.648   2.952  23.522  0.00  0.00    -0.072 N 
HETATM   25  H   UNL     1       7.498   2.963  24.101  0.00  0.00     0.277 HD
HETATM   26  H   UNL     1       6.671   2.086  22.972  0.00  0.00     0.277 HD
HETATM   27  C   UNL     1       5.432   2.935  24.426  0.00  0.00     0.252 C 
HETATM   28  C   UNL     1       5.329   4.266  25.191  0.00  0.00     0.150 C 
ENDBRANCH  18  21
ENDBRANCH  12  15
ENDBRANCH   1  11
BRANCH   3  29
HETATM   29  O   UNL     1      -1.145   9.282  27.860  0.00  0.00    -0.360 OA
HETATM   30  H   UNL     1      -1.101   8.337  27.600  0.00  0.00     0.217 HD
ENDBRANCH   3  29
BRANCH  10  31
HETATM   31  C   UNL     1      -3.342  13.112  22.667  0.00  0.00     0.100 C 
BRANCH  31  32
HETATM   32  C   UNL     1      -2.419  14.314  22.469  0.00  0.00    -0.052 A 
HETATM   33  C   UNL     1      -1.546  14.786  23.460  0.00  0.00     0.007 A 
HETATM   34  C   UNL     1      -0.723  15.892  23.233  0.00  0.00     0.001 A 
HETATM   35  C   UNL     1      -0.816  16.612  22.048  0.00  0.00     0.007 A 
HETATM   36  C   UNL     1      -1.768  16.258  21.088  0.00  0.00    -0.061 A 
HETATM   37  C   UNL     1      -2.531  15.087  21.286  0.00  0.00     0.014 A 
HETATM   38  C   UNL     1      -1.953  17.146  19.889  0.00  0.00     0.048 C 
ENDBRANCH  31  32
ENDBRANCH  10  31
TORSDOF 6
ENDMDL
MODEL 9
REMARK VINA RESULT:    -7.868      3.664      6.020
REMARK INTER + INTRA:         -12.032
REMARK INTER:                 -10.398
REMARK INTRA:                  -1.635
REMARK UNBOUND:                -1.635
REMARK  6 active torsions:
REMARK  status: ('A' for Active; 'I' for Inactive)
REMARK    1  A    between atoms: N_8  and  C_9 
REMARK    2  A    between atoms: C_14  and  N_15 
REMARK       I    between atoms: N_15  and  C_17 
REMARK    3  A    between atoms: C_17  and  C_19 
REMARK    4  A    between atoms: C_21  and  O_22 
REMARK    5  A    between atoms: C_29  and  C_30 
REMARK    6  A    between atoms: C_30  and  C_31 
ROOT
HETATM    1  C   UNL     1      -1.159   9.658  25.709  0.00  0.00     0.066 C 
HETATM    2  C   UNL     1      -1.951  10.328  24.747  0.00  0.00     0.035 C 
HETATM    3  C   UNL     1      -1.445   9.891  27.072  0.00  0.00     0.083 C 
HETATM    4  C   UNL     1      -2.405  10.820  27.486  0.00  0.00     0.069 C 
HETATM    5  C   UNL     1      -3.017  11.580  26.488  0.00  0.00     0.065 A 
HETATM    6  C   UNL     1      -2.788  11.392  25.131  0.00  0.00     0.020 A 
HETATM    7  N   UNL     1      -3.932  12.597  26.555  0.00  0.00    -0.277 N 
HETATM    8  H   UNL     1      -4.384  12.967  27.384  0.00  0.00     0.189 HD
HETATM    9  N   UNL     1      -4.212  13.163  25.369  0.00  0.00    -0.178 NA
HETATM   10  C   UNL     1      -3.502  12.450  24.477  0.00  0.00     0.071 A 
ENDROOT
BRANCH   1  11
HETATM   11  C   UNL     1      -0.015   8.740  25.344  0.00  0.00     0.260 C 
HETATM   12  N   UNL     1       1.258   9.252  24.938  0.00  0.00    -0.318 N 
HETATM   13  C   UNL     1       1.529  10.694  24.953  0.00  0.00     0.159 C 
HETATM   14  O   UNL     1      -0.265   7.538  25.488  0.00  0.00    -0.267 OA
BRANCH  12  15
HETATM   15  C   UNL     1       2.405   8.408  24.613  0.00  0.00     0.037 A 
HETATM   16  C   UNL     1       3.427   8.192  25.549  0.00  0.00     0.032 A 
HETATM   17  C   UNL     1       4.437   7.223  25.372  0.00  0.00     0.031 A 
HETATM   18  C   UNL     1       4.515   6.449  24.221  0.00  0.00     0.030 A 
HETATM   19  C   UNL     1       3.583   6.771  23.225  0.00  0.00     0.031 A 
HETATM   20  C   UNL     1       2.545   7.717  23.411  0.00  0.00     0.032 A 
BRANCH  18  21
HETATM   21  N   UNL     1       5.466   5.460  24.043  0.00  0.00    -0.378 N 
HETATM   22  C   UNL     1       6.731   5.676  23.321  0.00  0.00     0.150 C 
HETATM   23  C   UNL     1       6.994   4.468  22.396  0.00  0.00     0.252 C 
HETATM   24  N   UNL     1       6.917   3.165  23.163  0.00  0.00    -0.072 N 
HETATM   25  H   UNL     1       7.714   3.104  23.809  0.00  0.00     0.277 HD
HETATM   26  H   UNL     1       7.001   2.379  22.508  0.00  0.00     0.277 HD
HETATM   27  C   UNL     1       5.629   3.022  23.949  0.00  0.00     0.252 C 
HETATM   28  C   UNL     1       5.438   4.239  24.870  0.00  0.00     0.150 C 
ENDBRANCH  18  21
ENDBRANCH  12  15
ENDBRANCH   1  11
BRANCH   3  29
HETATM   29  O   UNL     1      -0.806   9.228  28.096  0.00  0.00    -0.360 OA
HETATM   30  H   UNL     1      -1.156   8.312  28.130  0.00  0.00     0.217 HD
ENDBRANCH   3  29
BRANCH  10  31
HETATM   31  C   UNL     1      -3.561  12.847  23.020  0.00  0.00     0.100 C 
BRANCH  31  32
HETATM   32  C   UNL     1      -2.212  12.682  22.321  0.00  0.00    -0.052 A 
HETATM   33  C   UNL     1      -1.992  11.774  21.276  0.00  0.00     0.007 A 
HETATM   34  C   UNL     1      -0.738  11.656  20.670  0.00  0.00     0.001 A 
HETATM   35  C   UNL     1       0.350  12.374  21.153  0.00  0.00     0.007 A 
HETATM   36  C   UNL     1       0.207  13.189  22.278  0.00  0.00    -0.061 A 
HETATM   37  C   UNL     1      -1.080  13.372  22.827  0.00  0.00     0.014 A 
HETATM   38  C   UNL     1       1.433  13.829  22.871  0.00  0.00     0.048 C 
ENDBRANCH  31  32
ENDBRANCH  10  31
TORSDOF 6
ENDMDL
