REMARK  6 active torsions:
REMARK  status: ('A' for Active; 'I' for Inactive)
REMARK    1  A    between atoms: N_8  and  C_9 
REMARK    2  A    between atoms: C_14  and  N_15 
REMARK       I    between atoms: N_15  and  C_17 
REMARK    3  A    between atoms: C_17  and  C_19 
REMARK    4  A    between atoms: C_21  and  O_22 
REMARK    5  A    between atoms: C_29  and  C_30 
REMARK    6  A    between atoms: C_30  and  C_31 
ROOT
HETATM    1  C   UNL     1       8.561  -1.278   3.808  0.00  0.00     0.066 C 
HETATM    2  C   UNL     1       9.091  -0.056   4.283  0.00  0.00     0.035 C 
HETATM    3  C   UNL     1       9.389  -2.421   3.870  0.00  0.00     0.083 C 
HETATM    4  C   UNL     1      10.722  -2.356   4.288  0.00  0.00     0.069 C 
HETATM    5  C   UNL     1      11.234  -1.087   4.564  0.00  0.00     0.065 A 
HETATM    6  C   UNL     1      10.470   0.073   4.534  0.00  0.00     0.020 A 
HETATM    7  N   UNL     1      12.489  -0.674   4.926  0.00  0.00    -0.277 N 
HETATM    8  H   UNL     1      13.300  -1.254   5.111  0.00  0.00     0.189 HD
HETATM    9  N   UNL     1      12.627   0.660   5.005  0.00  0.00    -0.178 NA
HETATM   10  C   UNL     1      11.399   1.144   4.746  0.00  0.00     0.071 A 
ENDROOT
BRANCH   1  11
HETATM   11  C   UNL     1       7.175  -1.405   3.218  0.00  0.00     0.260 C 
HETATM   12  N   UNL     1       6.566  -0.330   2.497  0.00  0.00    -0.318 N 
HETATM   13  C   UNL     1       7.306   0.908   2.222  0.00  0.00     0.159 C 
HETATM   14  O   UNL     1       6.663  -2.520   3.363  0.00  0.00    -0.267 OA
BRANCH  12  15
HETATM   15  C   UNL     1       5.247  -0.415   1.875  0.00  0.00     0.037 A 
HETATM   16  C   UNL     1       4.677   0.700   1.243  0.00  0.00     0.032 A 
HETATM   17  C   UNL     1       3.517   0.619   0.444  0.00  0.00     0.031 A 
HETATM   18  C   UNL     1       2.828  -0.575   0.274  0.00  0.00     0.030 A 
HETATM   19  C   UNL     1       3.313  -1.653   1.026  0.00  0.00     0.031 A 
HETATM   20  C   UNL     1       4.497  -1.587   1.801  0.00  0.00     0.032 A 
BRANCH  18  21
HETATM   21  N   UNL     1       1.716  -0.692  -0.542  0.00  0.00    -0.378 N 
HETATM   22  C   UNL     1       0.971   0.467  -1.063  0.00  0.00     0.150 C 
HETATM   23  C   UNL     1      -0.543   0.189  -0.934  0.00  0.00     0.252 C 
HETATM   24  N   UNL     1      -0.911  -1.137  -1.565  0.00  0.00    -0.072 N 
HETATM   25  H   UNL     1      -0.802  -1.069  -2.585  0.00  0.00     0.277 HD
HETATM   26  H   UNL     1      -1.901  -1.338  -1.382  0.00  0.00     0.277 HD
HETATM   27  C   UNL     1      -0.067  -2.286  -1.051  0.00  0.00     0.252 C 
HETATM   28  C   UNL     1       1.426  -1.962  -1.232  0.00  0.00     0.150 C 
ENDBRANCH  18  21
ENDBRANCH  12  15
ENDBRANCH   1  11
BRANCH   3  29
HETATM   29  O   UNL     1       8.955  -3.681   3.524  0.00  0.00    -0.360 OA
HETATM   30  H   UNL     1       7.981  -3.645   3.407  0.00  0.00     0.217 HD
ENDBRANCH   3  29
BRANCH  10  31
HETATM   31  C   UNL     1      11.201   2.642   4.720  0.00  0.00     0.100 C 
BRANCH  31  32
HETATM   32  C   UNL     1      10.974   3.170   3.304  0.00  0.00    -0.052 A 
HETATM   33  C   UNL     1      11.413   2.500   2.153  0.00  0.00     0.007 A 
HETATM   34  C   UNL     1      11.185   3.025   0.878  0.00  0.00     0.001 A 
HETATM   35  C   UNL     1      10.597   4.275   0.723  0.00  0.00     0.007 A 
HETATM   36  C   UNL     1      10.267   5.037   1.846  0.00  0.00    -0.061 A 
HETATM   37  C   UNL     1      10.417   4.462   3.126  0.00  0.00     0.014 A 
HETATM   38  C   UNL     1       9.779   6.446   1.649  0.00  0.00     0.048 C 
ENDBRANCH  31  32
ENDBRANCH  10  31
TORSDOF 6
