MODEL 1
REMARK VINA RESULT:    -7.637      0.000      0.000
REMARK INTER + INTRA:         -12.579
REMARK INTER:                 -11.224
REMARK INTRA:                  -1.354
REMARK UNBOUND:                -1.817
REMARK  8 active torsions:
REMARK  status: ('A' for Active; 'I' for Inactive)
REMARK    1  A    between atoms: C_7  and  N_8 
REMARK    2  A    between atoms: C_14  and  C_15 
REMARK    3  A    between atoms: C_16  and  O_17 
REMARK    4  A    between atoms: C_19  and  O_20 
REMARK    5  A    between atoms: C_22  and  C_23 
REMARK       I    between atoms: C_23  and  N_25 
REMARK    6  A    between atoms: N_25  and  C_27 
REMARK    7  A    between atoms: C_27  and  C_28 
REMARK    8  A    between atoms: C_28  and  C_29 
ROOT
HETATM    1  C   UNL     1       8.821  11.479  24.437  0.00  0.00     0.046 C 
HETATM    2  C   UNL     1       9.736  10.483  24.036  0.00  0.00     0.082 C 
HETATM    3  C   UNL     1       9.350   9.432  23.209  0.00  0.00     0.075 C 
HETATM    4  C   UNL     1       8.044   9.368  22.726  0.00  0.00     0.084 C 
HETATM    5  C   UNL     1       7.482  11.329  24.025  0.00  0.00     0.038 C 
HETATM    6  C   UNL     1       7.087  10.329  23.097  0.00  0.00     0.066 C 
ENDROOT
BRANCH   1   7
HETATM    7  C   UNL     1       9.349  12.610  25.278  0.00  0.00     0.172 A 
HETATM    8  N   UNL     1       8.945  13.935  25.385  0.00  0.00    -0.241 N 
HETATM    9  C   UNL     1       9.836  14.503  26.301  0.00  0.00     0.349 A 
HETATM   10  O   UNL     1       9.960  15.647  26.698  0.00  0.00    -0.245 OA
HETATM   11  N   UNL     1      10.674  13.472  26.698  0.00  0.00    -0.226 N 
HETATM   12  H   UNL     1      11.463  13.579  27.320  0.00  0.00     0.194 HD
HETATM   13  N   UNL     1      10.375  12.328  26.053  0.00  0.00    -0.151 NA
BRANCH   8  14
HETATM   14  C   UNL     1       7.927  14.718  24.748  0.00  0.00     0.084 C 
HETATM   15  C   UNL     1       8.030  15.232  23.455  0.00  0.00     0.143 C 
HETATM   16  F   UNL     1       9.209  15.273  22.827  0.00  0.00    -0.204 F 
HETATM   17  C   UNL     1       6.946  15.809  22.786  0.00  0.00     0.044 C 
HETATM   18  C   UNL     1       5.758  16.047  23.461  0.00  0.00     0.003 C 
HETATM   19  C   UNL     1       5.670  15.706  24.802  0.00  0.00     0.002 C 
HETATM   20  C   UNL     1       6.727  15.025  25.423  0.00  0.00     0.033 C 
ENDBRANCH   8  14
ENDBRANCH   1   7
BRANCH   2  21
HETATM   21  O   UNL     1      11.058  10.457  24.406  0.00  0.00    -0.360 OA
HETATM   22  H   UNL     1      11.382  11.384  24.445  0.00  0.00     0.217 HD
ENDBRANCH   2  21
BRANCH   6  23
HETATM   23  C   UNL     1       5.818  10.454  22.272  0.00  0.00     0.256 C 
HETATM   24  O   UNL     1       4.984   9.556  22.407  0.00  0.00    -0.267 OA
HETATM   25  N   UNL     1       5.624  11.462  21.306  0.00  0.00    -0.352 N 
HETATM   26  C   UNL     1       6.565  12.540  21.068  0.00  0.00     0.152 C 
BRANCH  25  27
HETATM   27  C   UNL     1       4.684  11.206  20.196  0.00  0.00     0.125 C 
BRANCH  27  28
HETATM   28  C   UNL     1       5.196  11.122  18.748  0.00  0.00     0.020 C 
BRANCH  28  29
HETATM   29  C   UNL     1       4.158  10.896  17.648  0.00  0.00    -0.003 C 
HETATM   30  C   UNL     1       3.125  12.006  17.523  0.00  0.00     0.005 C 
ENDBRANCH  28  29
ENDBRANCH  27  28
ENDBRANCH  25  27
ENDBRANCH   6  23
BRANCH   4  31
HETATM   31  O   UNL     1       7.723   8.327  21.898  0.00  0.00    -0.360 OA
HETATM   32  H   UNL     1       7.156   7.699  22.375  0.00  0.00     0.217 HD
ENDBRANCH   4  31
TORSDOF 8
ENDMDL
MODEL 2
REMARK VINA RESULT:    -7.434      1.974      2.363
REMARK INTER + INTRA:         -12.293
REMARK INTER:                 -10.235
REMARK INTRA:                  -2.058
REMARK UNBOUND:                -1.817
REMARK  8 active torsions:
REMARK  status: ('A' for Active; 'I' for Inactive)
REMARK    1  A    between atoms: C_7  and  N_8 
REMARK    2  A    between atoms: C_14  and  C_15 
REMARK    3  A    between atoms: C_16  and  O_17 
REMARK    4  A    between atoms: C_19  and  O_20 
REMARK    5  A    between atoms: C_22  and  C_23 
REMARK       I    between atoms: C_23  and  N_25 
REMARK    6  A    between atoms: N_25  and  C_27 
REMARK    7  A    between atoms: C_27  and  C_28 
REMARK    8  A    between atoms: C_28  and  C_29 
ROOT
HETATM    1  C   UNL     1       8.835  11.438  24.577  0.00  0.00     0.046 C 
HETATM    2  C   UNL     1       9.693  10.451  24.048  0.00  0.00     0.082 C 
HETATM    3  C   UNL     1       9.199   9.377  23.313  0.00  0.00     0.075 C 
HETATM    4  C   UNL     1       7.833   9.279  23.053  0.00  0.00     0.084 C 
HETATM    5  C   UNL     1       7.450  11.255  24.393  0.00  0.00     0.038 C 
HETATM    6  C   UNL     1       6.930  10.230  23.560  0.00  0.00     0.066 C 
ENDROOT
BRANCH   1   7
HETATM    7  C   UNL     1       9.470  12.595  25.302  0.00  0.00     0.172 A 
HETATM    8  N   UNL     1       9.128  13.940  25.351  0.00  0.00    -0.241 N 
HETATM    9  C   UNL     1      10.107  14.525  26.159  0.00  0.00     0.349 A 
HETATM   10  O   UNL     1      10.306  15.685  26.470  0.00  0.00    -0.245 OA
HETATM   11  N   UNL     1      10.932  13.484  26.560  0.00  0.00    -0.226 N 
HETATM   12  H   UNL     1      11.770  13.596  27.113  0.00  0.00     0.194 HD
HETATM   13  N   UNL     1      10.540  12.317  26.015  0.00  0.00    -0.151 NA
BRANCH   8  14
HETATM   14  C   UNL     1       8.095  14.726  24.741  0.00  0.00     0.084 C 
HETATM   15  C   UNL     1       8.192  15.295  23.470  0.00  0.00     0.143 C 
HETATM   16  F   UNL     1       9.372  15.387  22.850  0.00  0.00    -0.204 F 
HETATM   17  C   UNL     1       7.099  15.874  22.819  0.00  0.00     0.044 C 
HETATM   18  C   UNL     1       5.902  16.059  23.497  0.00  0.00     0.003 C 
HETATM   19  C   UNL     1       5.816  15.662  24.823  0.00  0.00     0.002 C 
HETATM   20  C   UNL     1       6.885  14.979  25.421  0.00  0.00     0.033 C 
ENDBRANCH   8  14
ENDBRANCH   1   7
BRANCH   2  21
HETATM   21  O   UNL     1      11.058  10.456  24.196  0.00  0.00    -0.360 OA
HETATM   22  H   UNL     1      11.271  10.079  25.078  0.00  0.00     0.217 HD
ENDBRANCH   2  21
BRANCH   6  23
HETATM   23  C   UNL     1       5.540  10.315  22.952  0.00  0.00     0.256 C 
HETATM   24  O   UNL     1       5.480  10.625  21.761  0.00  0.00    -0.267 OA
HETATM   25  N   UNL     1       4.359  10.174  23.709  0.00  0.00    -0.352 N 
HETATM   26  C   UNL     1       4.343   9.834  25.119  0.00  0.00     0.152 C 
BRANCH  25  27
HETATM   27  C   UNL     1       3.122  10.808  23.211  0.00  0.00     0.125 C 
BRANCH  27  28
HETATM   28  C   UNL     1       2.688  12.186  23.739  0.00  0.00     0.020 C 
BRANCH  28  29
HETATM   29  C   UNL     1       3.274  13.419  23.048  0.00  0.00    -0.003 C 
HETATM   30  C   UNL     1       2.444  14.683  23.210  0.00  0.00     0.005 C 
ENDBRANCH  28  29
ENDBRANCH  27  28
ENDBRANCH  25  27
ENDBRANCH   6  23
BRANCH   4  31
HETATM   31  O   UNL     1       7.404   8.216  22.306  0.00  0.00    -0.360 OA
HETATM   32  H   UNL     1       6.436   8.146  22.372  0.00  0.00     0.217 HD
ENDBRANCH   4  31
TORSDOF 8
ENDMDL
MODEL 3
REMARK VINA RESULT:    -7.312      2.288      2.675
REMARK INTER + INTRA:         -12.121
REMARK INTER:                 -10.390
REMARK INTRA:                  -1.731
REMARK UNBOUND:                -1.817
REMARK  8 active torsions:
REMARK  status: ('A' for Active; 'I' for Inactive)
REMARK    1  A    between atoms: C_7  and  N_8 
REMARK    2  A    between atoms: C_14  and  C_15 
REMARK    3  A    between atoms: C_16  and  O_17 
REMARK    4  A    between atoms: C_19  and  O_20 
REMARK    5  A    between atoms: C_22  and  C_23 
REMARK       I    between atoms: C_23  and  N_25 
REMARK    6  A    between atoms: N_25  and  C_27 
REMARK    7  A    between atoms: C_27  and  C_28 
REMARK    8  A    between atoms: C_28  and  C_29 
ROOT
HETATM    1  C   UNL     1       9.119  11.364  22.923  0.00  0.00     0.046 C 
HETATM    2  C   UNL     1       9.893  10.670  23.877  0.00  0.00     0.082 C 
HETATM    3  C   UNL     1       9.576   9.371  24.264  0.00  0.00     0.075 C 
HETATM    4  C   UNL     1       8.495   8.714  23.679  0.00  0.00     0.084 C 
HETATM    5  C   UNL     1       7.968  10.717  22.431  0.00  0.00     0.038 C 
HETATM    6  C   UNL     1       7.684   9.357  22.728  0.00  0.00     0.066 C 
ENDROOT
BRANCH   1   7
HETATM    7  C   UNL     1       9.580  12.740  22.522  0.00  0.00     0.172 A 
HETATM    8  N   UNL     1       8.908  13.956  22.492  0.00  0.00    -0.241 N 
HETATM    9  C   UNL     1       9.847  14.866  22.000  0.00  0.00     0.349 A 
HETATM   10  O   UNL     1       9.754  16.048  21.723  0.00  0.00    -0.245 OA
HETATM   11  N   UNL     1      11.013  14.138  21.813  0.00  0.00    -0.226 N 
HETATM   12  H   UNL     1      11.864  14.508  21.413  0.00  0.00     0.194 HD
HETATM   13  N   UNL     1      10.829  12.840  22.120  0.00  0.00    -0.151 NA
BRANCH   8  14
HETATM   14  C   UNL     1       7.565  14.357  22.795  0.00  0.00     0.084 C 
HETATM   15  C   UNL     1       6.432  13.832  22.172  0.00  0.00     0.143 C 
HETATM   16  F   UNL     1       6.538  13.125  21.043  0.00  0.00    -0.204 F 
HETATM   17  C   UNL     1       5.136  14.085  22.630  0.00  0.00     0.044 C 
HETATM   18  C   UNL     1       4.922  15.021  23.632  0.00  0.00     0.003 C 
HETATM   19  C   UNL     1       6.012  15.695  24.163  0.00  0.00     0.002 C 
HETATM   20  C   UNL     1       7.312  15.344  23.771  0.00  0.00     0.033 C 
ENDBRANCH   8  14
ENDBRANCH   1   7
BRANCH   2  21
HETATM   21  O   UNL     1      11.005  11.189  24.493  0.00  0.00    -0.360 OA
HETATM   22  H   UNL     1      11.210  10.629  25.274  0.00  0.00     0.217 HD
ENDBRANCH   2  21
BRANCH   6  23
HETATM   23  C   UNL     1       6.780   8.514  21.845  0.00  0.00     0.256 C 
HETATM   24  O   UNL     1       7.296   7.530  21.311  0.00  0.00    -0.267 OA
HETATM   25  N   UNL     1       5.453   8.874  21.535  0.00  0.00    -0.352 N 
HETATM   26  C   UNL     1       4.779  10.027  22.101  0.00  0.00     0.152 C 
BRANCH  25  27
HETATM   27  C   UNL     1       4.855   8.360  20.286  0.00  0.00     0.125 C 
BRANCH  27  28
HETATM   28  C   UNL     1       5.378   8.837  18.920  0.00  0.00     0.020 C 
BRANCH  28  29
HETATM   29  C   UNL     1       5.800  10.303  18.803  0.00  0.00    -0.003 C 
HETATM   30  C   UNL     1       4.669  11.256  18.449  0.00  0.00     0.005 C 
ENDBRANCH  28  29
ENDBRANCH  27  28
ENDBRANCH  25  27
ENDBRANCH   6  23
BRANCH   4  31
HETATM   31  O   UNL     1       8.241   7.430  24.078  0.00  0.00    -0.360 OA
HETATM   32  H   UNL     1       7.687   7.444  24.877  0.00  0.00     0.217 HD
ENDBRANCH   4  31
TORSDOF 8
ENDMDL
MODEL 4
REMARK VINA RESULT:    -7.285      2.764      3.920
REMARK INTER + INTRA:         -12.082
REMARK INTER:                 -10.881
REMARK INTRA:                  -1.201
REMARK UNBOUND:                -1.817
REMARK  8 active torsions:
REMARK  status: ('A' for Active; 'I' for Inactive)
REMARK    1  A    between atoms: C_7  and  N_8 
REMARK    2  A    between atoms: C_14  and  C_15 
REMARK    3  A    between atoms: C_16  and  O_17 
REMARK    4  A    between atoms: C_19  and  O_20 
REMARK    5  A    between atoms: C_22  and  C_23 
REMARK       I    between atoms: C_23  and  N_25 
REMARK    6  A    between atoms: N_25  and  C_27 
REMARK    7  A    between atoms: C_27  and  C_28 
REMARK    8  A    between atoms: C_28  and  C_29 
ROOT
HETATM    1  C   UNL     1       7.322  11.448  21.036  0.00  0.00     0.046 C 
HETATM    2  C   UNL     1       7.219  10.315  21.870  0.00  0.00     0.082 C 
HETATM    3  C   UNL     1       6.207   9.375  21.697  0.00  0.00     0.075 C 
HETATM    4  C   UNL     1       5.290   9.521  20.658  0.00  0.00     0.084 C 
HETATM    5  C   UNL     1       6.317  11.628  20.065  0.00  0.00     0.038 C 
HETATM    6  C   UNL     1       5.340  10.633  19.799  0.00  0.00     0.066 C 
ENDROOT
BRANCH   1   7
HETATM    7  C   UNL     1       8.488  12.374  21.260  0.00  0.00     0.172 A 
HETATM    8  N   UNL     1       8.638  13.465  22.106  0.00  0.00    -0.241 N 
HETATM    9  C   UNL     1       9.927  13.939  21.846  0.00  0.00     0.349 A 
HETATM   10  O   UNL     1      10.529  14.908  22.271  0.00  0.00    -0.245 OA
HETATM   11  N   UNL     1      10.460  13.076  20.900  0.00  0.00    -0.226 N 
HETATM   12  H   UNL     1      11.366  13.187  20.467  0.00  0.00     0.194 HD
HETATM   13  N   UNL     1       9.564  12.137  20.540  0.00  0.00    -0.151 NA
BRANCH   8  14
HETATM   14  C   UNL     1       7.773  14.125  23.040  0.00  0.00     0.084 C 
HETATM   15  C   UNL     1       7.895  14.023  24.426  0.00  0.00     0.143 C 
HETATM   16  F   UNL     1       8.653  13.069  24.978  0.00  0.00    -0.204 F 
HETATM   17  C   UNL     1       7.177  14.836  25.308  0.00  0.00     0.044 C 
HETATM   18  C   UNL     1       6.174  15.667  24.828  0.00  0.00     0.003 C 
HETATM   19  C   UNL     1       5.902  15.671  23.468  0.00  0.00     0.002 C 
HETATM   20  C   UNL     1       6.711  14.936  22.589  0.00  0.00     0.033 C 
ENDBRANCH   8  14
ENDBRANCH   1   7
BRANCH   2  21
HETATM   21  O   UNL     1       8.084  10.034  22.899  0.00  0.00    -0.360 OA
HETATM   22  H   UNL     1       8.049   9.068  23.071  0.00  0.00     0.217 HD
ENDBRANCH   2  21
BRANCH   6  23
HETATM   23  C   UNL     1       4.596  10.570  18.476  0.00  0.00     0.256 C 
HETATM   24  O   UNL     1       3.658  11.357  18.335  0.00  0.00    -0.267 OA
HETATM   25  N   UNL     1       4.859   9.597  17.491  0.00  0.00    -0.352 N 
HETATM   26  C   UNL     1       5.926   8.620  17.589  0.00  0.00     0.152 C 
BRANCH  25  27
HETATM   27  C   UNL     1       3.783   9.243  16.543  0.00  0.00     0.125 C 
BRANCH  27  28
HETATM   28  C   UNL     1       3.164   7.835  16.560  0.00  0.00     0.020 C 
BRANCH  28  29
HETATM   29  C   UNL     1       2.340   7.445  17.789  0.00  0.00    -0.003 C 
HETATM   30  C   UNL     1       2.774   6.145  18.448  0.00  0.00     0.005 C 
ENDBRANCH  28  29
ENDBRANCH  27  28
ENDBRANCH  25  27
ENDBRANCH   6  23
BRANCH   4  31
HETATM   31  O   UNL     1       4.330   8.556  20.518  0.00  0.00    -0.360 OA
HETATM   32  H   UNL     1       4.717   7.777  20.084  0.00  0.00     0.217 HD
ENDBRANCH   4  31
TORSDOF 8
ENDMDL
MODEL 5
REMARK VINA RESULT:    -7.113      3.274      4.721
REMARK INTER + INTRA:         -11.841
REMARK INTER:                 -10.287
REMARK INTRA:                  -1.554
REMARK UNBOUND:                -1.817
REMARK  8 active torsions:
REMARK  status: ('A' for Active; 'I' for Inactive)
REMARK    1  A    between atoms: C_7  and  N_8 
REMARK    2  A    between atoms: C_14  and  C_15 
REMARK    3  A    between atoms: C_16  and  O_17 
REMARK    4  A    between atoms: C_19  and  O_20 
REMARK    5  A    between atoms: C_22  and  C_23 
REMARK       I    between atoms: C_23  and  N_25 
REMARK    6  A    between atoms: N_25  and  C_27 
REMARK    7  A    between atoms: C_27  and  C_28 
REMARK    8  A    between atoms: C_28  and  C_29 
ROOT
HETATM    1  C   UNL     1       7.013  11.252  21.235  0.00  0.00     0.046 C 
HETATM    2  C   UNL     1       6.493  10.709  20.040  0.00  0.00     0.082 C 
HETATM    3  C   UNL     1       5.615   9.629  20.055  0.00  0.00     0.075 C 
HETATM    4  C   UNL     1       5.201   9.083  21.268  0.00  0.00     0.084 C 
HETATM    5  C   UNL     1       6.664  10.610  22.440  0.00  0.00     0.038 C 
HETATM    6  C   UNL     1       5.690   9.578  22.490  0.00  0.00     0.066 C 
ENDROOT
BRANCH   1   7
HETATM    7  C   UNL     1       7.903  12.460  21.120  0.00  0.00     0.172 A 
HETATM    8  N   UNL     1       7.877  13.680  21.782  0.00  0.00    -0.241 N 
HETATM    9  C   UNL     1       8.934  14.406  21.228  0.00  0.00     0.349 A 
HETATM   10  O   UNL     1       9.307  15.551  21.410  0.00  0.00    -0.245 OA
HETATM   11  N   UNL     1       9.532  13.556  20.310  0.00  0.00    -0.226 N 
HETATM   12  H   UNL     1      10.298  13.812  19.703  0.00  0.00     0.194 HD
HETATM   13  N   UNL     1       8.881  12.379  20.243  0.00  0.00    -0.151 NA
BRANCH   8  14
HETATM   14  C   UNL     1       7.016  14.253  22.776  0.00  0.00     0.084 C 
HETATM   15  C   UNL     1       7.423  14.576  24.071  0.00  0.00     0.143 C 
HETATM   16  F   UNL     1       8.573  14.106  24.564  0.00  0.00    -0.204 F 
HETATM   17  C   UNL     1       6.627  15.321  24.947  0.00  0.00     0.044 C 
HETATM   18  C   UNL     1       5.315  15.621  24.611  0.00  0.00     0.003 C 
HETATM   19  C   UNL     1       4.814  15.168  23.399  0.00  0.00     0.002 C 
HETATM   20  C   UNL     1       5.662  14.523  22.487  0.00  0.00     0.033 C 
ENDBRANCH   8  14
ENDBRANCH   1   7
BRANCH   2  21
HETATM   21  O   UNL     1       6.788  11.183  18.786  0.00  0.00    -0.360 OA
HETATM   22  H   UNL     1       7.766  11.205  18.691  0.00  0.00     0.217 HD
ENDBRANCH   2  21
BRANCH   6  23
HETATM   23  C   UNL     1       4.946   9.236  23.769  0.00  0.00     0.256 C 
HETATM   24  O   UNL     1       5.359   8.261  24.401  0.00  0.00    -0.267 OA
HETATM   25  N   UNL     1       3.772   9.900  24.178  0.00  0.00    -0.352 N 
HETATM   26  C   UNL     1       3.207  11.038  23.479  0.00  0.00     0.152 C 
BRANCH  25  27
HETATM   27  C   UNL     1       2.827   9.186  25.061  0.00  0.00     0.125 C 
BRANCH  27  28
HETATM   28  C   UNL     1       1.318   9.210  24.766  0.00  0.00     0.020 C 
BRANCH  28  29
HETATM   29  C   UNL     1       0.557   7.889  24.892  0.00  0.00    -0.003 C 
HETATM   30  C   UNL     1      -0.530   7.891  25.957  0.00  0.00     0.005 C 
ENDBRANCH  28  29
ENDBRANCH  27  28
ENDBRANCH  25  27
ENDBRANCH   6  23
BRANCH   4  31
HETATM   31  O   UNL     1       4.319   8.037  21.226  0.00  0.00    -0.360 OA
HETATM   32  H   UNL     1       4.221   7.663  22.118  0.00  0.00     0.217 HD
ENDBRANCH   4  31
TORSDOF 8
ENDMDL
MODEL 6
REMARK VINA RESULT:    -7.000      2.699      5.237
REMARK INTER + INTRA:         -11.682
REMARK INTER:                  -9.865
REMARK INTRA:                  -1.817
REMARK UNBOUND:                -1.817
REMARK  8 active torsions:
REMARK  status: ('A' for Active; 'I' for Inactive)
REMARK    1  A    between atoms: C_7  and  N_8 
REMARK    2  A    between atoms: C_14  and  C_15 
REMARK    3  A    between atoms: C_16  and  O_17 
REMARK    4  A    between atoms: C_19  and  O_20 
REMARK    5  A    between atoms: C_22  and  C_23 
REMARK       I    between atoms: C_23  and  N_25 
REMARK    6  A    between atoms: N_25  and  C_27 
REMARK    7  A    between atoms: C_27  and  C_28 
REMARK    8  A    between atoms: C_28  and  C_29 
ROOT
HETATM    1  C   UNL     1       6.298  11.472  21.800  0.00  0.00     0.046 C 
HETATM    2  C   UNL     1       5.847  11.229  20.486  0.00  0.00     0.082 C 
HETATM    3  C   UNL     1       4.566  11.593  20.078  0.00  0.00     0.075 C 
HETATM    4  C   UNL     1       3.711  12.245  20.964  0.00  0.00     0.084 C 
HETATM    5  C   UNL     1       5.374  12.032  22.706  0.00  0.00     0.038 C 
HETATM    6  C   UNL     1       4.103  12.508  22.288  0.00  0.00     0.066 C 
ENDROOT
BRANCH   1   7
HETATM    7  C   UNL     1       7.720  11.102  22.128  0.00  0.00     0.172 A 
HETATM    8  N   UNL     1       8.827  11.892  22.411  0.00  0.00    -0.241 N 
HETATM    9  C   UNL     1       9.870  10.982  22.600  0.00  0.00     0.349 A 
HETATM   10  O   UNL     1      11.058  11.152  22.810  0.00  0.00    -0.245 OA
HETATM   11  N   UNL     1       9.303   9.725  22.454  0.00  0.00    -0.226 N 
HETATM   12  H   UNL     1       9.817   8.856  22.482  0.00  0.00     0.194 HD
HETATM   13  N   UNL     1       7.994   9.816  22.150  0.00  0.00    -0.151 NA
BRANCH   8  14
HETATM   14  C   UNL     1       9.046  13.307  22.480  0.00  0.00     0.084 C 
HETATM   15  C   UNL     1       9.379  13.992  23.649  0.00  0.00     0.143 C 
HETATM   16  F   UNL     1       9.232  13.414  24.845  0.00  0.00    -0.204 F 
HETATM   17  C   UNL     1       9.790  15.328  23.649  0.00  0.00     0.044 C 
HETATM   18  C   UNL     1       9.715  16.079  22.485  0.00  0.00     0.003 C 
HETATM   19  C   UNL     1       9.225  15.481  21.333  0.00  0.00     0.002 C 
HETATM   20  C   UNL     1       8.927  14.111  21.326  0.00  0.00     0.033 C 
ENDBRANCH   8  14
ENDBRANCH   1   7
BRANCH   2  21
HETATM   21  O   UNL     1       6.606  10.635  19.508  0.00  0.00    -0.360 OA
HETATM   22  H   UNL     1       7.544  10.647  19.801  0.00  0.00     0.217 HD
ENDBRANCH   2  21
BRANCH   6  23
HETATM   23  C   UNL     1       3.326  13.537  23.091  0.00  0.00     0.256 C 
HETATM   24  O   UNL     1       2.686  14.369  22.445  0.00  0.00    -0.267 OA
HETATM   25  N   UNL     1       3.407  13.639  24.494  0.00  0.00    -0.352 N 
HETATM   26  C   UNL     1       4.155  12.717  25.326  0.00  0.00     0.152 C 
BRANCH  25  27
HETATM   27  C   UNL     1       3.111  14.941  25.126  0.00  0.00     0.125 C 
BRANCH  27  28
HETATM   28  C   UNL     1       4.104  16.109  24.999  0.00  0.00     0.020 C 
BRANCH  28  29
HETATM   29  C   UNL     1       5.581  15.759  24.816  0.00  0.00    -0.003 C 
HETATM   30  C   UNL     1       6.083  15.881  23.385  0.00  0.00     0.005 C 
ENDBRANCH  28  29
ENDBRANCH  27  28
ENDBRANCH  25  27
ENDBRANCH   6  23
BRANCH   4  31
HETATM   31  O   UNL     1       2.472  12.601  20.504  0.00  0.00    -0.360 OA
HETATM   32  H   UNL     1       2.548  13.405  19.963  0.00  0.00     0.217 HD
ENDBRANCH   4  31
TORSDOF 8
ENDMDL
MODEL 7
REMARK VINA RESULT:    -6.915      3.914      6.061
REMARK INTER + INTRA:         -11.562
REMARK INTER:                 -10.009
REMARK INTRA:                  -1.553
REMARK UNBOUND:                -1.817
REMARK  8 active torsions:
REMARK  status: ('A' for Active; 'I' for Inactive)
REMARK    1  A    between atoms: C_7  and  N_8 
REMARK    2  A    between atoms: C_14  and  C_15 
REMARK    3  A    between atoms: C_16  and  O_17 
REMARK    4  A    between atoms: C_19  and  O_20 
REMARK    5  A    between atoms: C_22  and  C_23 
REMARK       I    between atoms: C_23  and  N_25 
REMARK    6  A    between atoms: N_25  and  C_27 
REMARK    7  A    between atoms: C_27  and  C_28 
REMARK    8  A    between atoms: C_28  and  C_29 
ROOT
HETATM    1  C   UNL     1       6.738  14.195  22.660  0.00  0.00     0.046 C 
HETATM    2  C   UNL     1       7.013  15.203  23.607  0.00  0.00     0.082 C 
HETATM    3  C   UNL     1       6.015  15.721  24.428  0.00  0.00     0.075 C 
HETATM    4  C   UNL     1       4.718  15.217  24.352  0.00  0.00     0.084 C 
HETATM    5  C   UNL     1       5.396  13.783  22.527  0.00  0.00     0.038 C 
HETATM    6  C   UNL     1       4.383  14.217  23.423  0.00  0.00     0.066 C 
ENDROOT
BRANCH   1   7
HETATM    7  C   UNL     1       7.895  13.653  21.864  0.00  0.00     0.172 A 
HETATM    8  N   UNL     1       8.425  12.372  21.779  0.00  0.00    -0.241 N 
HETATM    9  C   UNL     1       9.509  12.496  20.906  0.00  0.00     0.349 A 
HETATM   10  O   UNL     1      10.346  11.689  20.542  0.00  0.00    -0.245 OA
HETATM   11  N   UNL     1       9.521  13.825  20.508  0.00  0.00    -0.226 N 
HETATM   12  H   UNL     1      10.224  14.241  19.914  0.00  0.00     0.194 HD
HETATM   13  N   UNL     1       8.540  14.521  21.114  0.00  0.00    -0.151 NA
BRANCH   8  14
HETATM   14  C   UNL     1       8.107  11.121  22.404  0.00  0.00     0.084 C 
HETATM   15  C   UNL     1       7.046  10.301  22.018  0.00  0.00     0.143 C 
HETATM   16  F   UNL     1       6.077  10.765  21.224  0.00  0.00    -0.204 F 
HETATM   17  C   UNL     1       6.886   8.999  22.502  0.00  0.00     0.044 C 
HETATM   18  C   UNL     1       7.695   8.534  23.529  0.00  0.00     0.003 C 
HETATM   19  C   UNL     1       8.655   9.382  24.062  0.00  0.00     0.002 C 
HETATM   20  C   UNL     1       8.875  10.641  23.486  0.00  0.00     0.033 C 
ENDBRANCH   8  14
ENDBRANCH   1   7
BRANCH   2  21
HETATM   21  O   UNL     1       8.256  15.751  23.810  0.00  0.00    -0.360 OA
HETATM   22  H   UNL     1       8.387  15.858  24.778  0.00  0.00     0.217 HD
ENDBRANCH   2  21
BRANCH   6  23
HETATM   23  C   UNL     1       3.098  13.433  23.623  0.00  0.00     0.256 C 
HETATM   24  O   UNL     1       3.210  12.309  24.119  0.00  0.00    -0.267 OA
HETATM   25  N   UNL     1       1.842  13.883  23.167  0.00  0.00    -0.352 N 
HETATM   26  C   UNL     1       1.628  15.179  22.552  0.00  0.00     0.152 C 
BRANCH  25  27
HETATM   27  C   UNL     1       0.793  12.883  22.884  0.00  0.00     0.125 C 
BRANCH  27  28
HETATM   28  C   UNL     1      -0.513  12.876  23.696  0.00  0.00     0.020 C 
BRANCH  28  29
HETATM   29  C   UNL     1      -1.814  12.624  22.932  0.00  0.00    -0.003 C 
HETATM   30  C   UNL     1      -2.880  11.892  23.732  0.00  0.00     0.005 C 
ENDBRANCH  28  29
ENDBRANCH  27  28
ENDBRANCH  25  27
ENDBRANCH   6  23
BRANCH   4  31
HETATM   31  O   UNL     1       3.781  15.745  25.198  0.00  0.00    -0.360 OA
HETATM   32  H   UNL     1       2.960  15.913  24.705  0.00  0.00     0.217 HD
ENDBRANCH   4  31
TORSDOF 8
ENDMDL
MODEL 8
REMARK VINA RESULT:    -6.893      3.044      6.289
REMARK INTER + INTRA:         -11.531
REMARK INTER:                  -9.342
REMARK INTRA:                  -2.188
REMARK UNBOUND:                -1.817
REMARK  8 active torsions:
REMARK  status: ('A' for Active; 'I' for Inactive)
REMARK    1  A    between atoms: C_7  and  N_8 
REMARK    2  A    between atoms: C_14  and  C_15 
REMARK    3  A    between atoms: C_16  and  O_17 
REMARK    4  A    between atoms: C_19  and  O_20 
REMARK    5  A    between atoms: C_22  and  C_23 
REMARK       I    between atoms: C_23  and  N_25 
REMARK    6  A    between atoms: N_25  and  C_27 
REMARK    7  A    between atoms: C_27  and  C_28 
REMARK    8  A    between atoms: C_28  and  C_29 
ROOT
HETATM    1  C   UNL     1       5.615  11.087  21.993  0.00  0.00     0.046 C 
HETATM    2  C   UNL     1       5.710  10.740  20.629  0.00  0.00     0.082 C 
HETATM    3  C   UNL     1       6.778  11.167  19.843  0.00  0.00     0.075 C 
HETATM    4  C   UNL     1       7.801  11.924  20.410  0.00  0.00     0.084 C 
HETATM    5  C   UNL     1       6.605  11.945  22.511  0.00  0.00     0.038 C 
HETATM    6  C   UNL     1       7.757  12.306  21.762  0.00  0.00     0.066 C 
ENDROOT
BRANCH   1   7
HETATM    7  C   UNL     1       4.458  10.523  22.774  0.00  0.00     0.172 A 
HETATM    8  N   UNL     1       3.313  11.128  23.275  0.00  0.00    -0.241 N 
HETATM    9  C   UNL     1       2.632  10.103  23.937  0.00  0.00     0.349 A 
HETATM   10  O   UNL     1       1.609  10.112  24.597  0.00  0.00    -0.245 OA
HETATM   11  N   UNL     1       3.399   8.963  23.751  0.00  0.00    -0.226 N 
HETATM   12  H   UNL     1       3.197   8.060  24.158  0.00  0.00     0.194 HD
HETATM   13  N   UNL     1       4.518   9.239  23.054  0.00  0.00    -0.151 NA
BRANCH   8  14
HETATM   14  C   UNL     1       2.812  12.472  23.263  0.00  0.00     0.084 C 
HETATM   15  C   UNL     1       3.305  13.497  24.072  0.00  0.00     0.143 C 
HETATM   16  F   UNL     1       4.085  13.225  25.122  0.00  0.00    -0.204 F 
HETATM   17  C   UNL     1       2.945  14.836  23.893  0.00  0.00     0.044 C 
HETATM   18  C   UNL     1       1.938  15.173  23.000  0.00  0.00     0.003 C 
HETATM   19  C   UNL     1       1.300  14.162  22.297  0.00  0.00     0.002 C 
HETATM   20  C   UNL     1       1.753  12.839  22.406  0.00  0.00     0.033 C 
ENDBRANCH   8  14
ENDBRANCH   1   7
BRANCH   2  21
HETATM   21  O   UNL     1       4.793   9.964  19.964  0.00  0.00    -0.360 OA
HETATM   22  H   UNL     1       5.155   9.758  19.075  0.00  0.00     0.217 HD
ENDBRANCH   2  21
BRANCH   6  23
HETATM   23  C   UNL     1       9.035  12.781  22.432  0.00  0.00     0.256 C 
HETATM   24  O   UNL     1       9.662  11.939  23.078  0.00  0.00    -0.267 OA
HETATM   25  N   UNL     1       9.447  14.129  22.436  0.00  0.00    -0.352 N 
HETATM   26  C   UNL     1       8.753  15.184  21.722  0.00  0.00     0.152 C 
BRANCH  25  27
HETATM   27  C   UNL     1      10.327  14.595  23.526  0.00  0.00     0.125 C 
BRANCH  27  28
HETATM   28  C   UNL     1       9.737  15.340  24.736  0.00  0.00     0.020 C 
BRANCH  28  29
HETATM   29  C   UNL     1       8.657  14.620  25.545  0.00  0.00    -0.003 C 
HETATM   30  C   UNL     1       7.233  15.016  25.182  0.00  0.00     0.005 C 
ENDBRANCH  28  29
ENDBRANCH  27  28
ENDBRANCH  25  27
ENDBRANCH   6  23
BRANCH   4  31
HETATM   31  O   UNL     1       8.838  12.299  19.599  0.00  0.00    -0.360 OA
HETATM   32  H   UNL     1       9.425  11.537  19.455  0.00  0.00     0.217 HD
ENDBRANCH   4  31
TORSDOF 8
ENDMDL
MODEL 9
REMARK VINA RESULT:    -6.871      2.424      4.512
REMARK INTER + INTRA:         -11.500
REMARK INTER:                  -9.751
REMARK INTRA:                  -1.749
REMARK UNBOUND:                -1.817
REMARK  8 active torsions:
REMARK  status: ('A' for Active; 'I' for Inactive)
REMARK    1  A    between atoms: C_7  and  N_8 
REMARK    2  A    between atoms: C_14  and  C_15 
REMARK    3  A    between atoms: C_16  and  O_17 
REMARK    4  A    between atoms: C_19  and  O_20 
REMARK    5  A    between atoms: C_22  and  C_23 
REMARK       I    between atoms: C_23  and  N_25 
REMARK    6  A    between atoms: N_25  and  C_27 
REMARK    7  A    between atoms: C_27  and  C_28 
REMARK    8  A    between atoms: C_28  and  C_29 
ROOT
HETATM    1  C   UNL     1       6.615  13.470  22.706  0.00  0.00     0.046 C 
HETATM    2  C   UNL     1       5.429  13.771  23.408  0.00  0.00     0.082 C 
HETATM    3  C   UNL     1       4.181  13.383  22.927  0.00  0.00     0.075 C 
HETATM    4  C   UNL     1       4.087  12.647  21.747  0.00  0.00     0.084 C 
HETATM    5  C   UNL     1       6.481  12.823  21.461  0.00  0.00     0.038 C 
HETATM    6  C   UNL     1       5.234  12.323  21.002  0.00  0.00     0.066 C 
ENDROOT
BRANCH   1   7
HETATM    7  C   UNL     1       7.919  13.875  23.339  0.00  0.00     0.172 A 
HETATM    8  N   UNL     1       9.063  13.140  23.625  0.00  0.00    -0.241 N 
HETATM    9  C   UNL     1       9.925  14.052  24.239  0.00  0.00     0.349 A 
HETATM   10  O   UNL     1      11.027  13.908  24.737  0.00  0.00    -0.245 OA
HETATM   11  N   UNL     1       9.251  15.265  24.237  0.00  0.00    -0.226 N 
HETATM   12  H   UNL     1       9.595  16.114  24.662  0.00  0.00     0.194 HD
HETATM   13  N   UNL     1       8.023  15.136  23.700  0.00  0.00    -0.151 NA
BRANCH   8  14
HETATM   14  C   UNL     1       9.426  11.762  23.460  0.00  0.00     0.084 C 
HETATM   15  C   UNL     1      10.472  11.322  22.648  0.00  0.00     0.143 C 
HETATM   16  F   UNL     1      11.024  12.135  21.742  0.00  0.00    -0.204 F 
HETATM   17  C   UNL     1      10.936  10.003  22.667  0.00  0.00     0.044 C 
HETATM   18  C   UNL     1      10.247   9.033  23.380  0.00  0.00     0.003 C 
HETATM   19  C   UNL     1       9.097   9.396  24.066  0.00  0.00     0.002 C 
HETATM   20  C   UNL     1       8.714  10.744  24.128  0.00  0.00     0.033 C 
ENDBRANCH   8  14
ENDBRANCH   1   7
BRANCH   2  21
HETATM   21  O   UNL     1       5.390  14.450  24.601  0.00  0.00    -0.360 OA
HETATM   22  H   UNL     1       6.272  14.858  24.747  0.00  0.00     0.217 HD
ENDBRANCH   2  21
BRANCH   6  23
HETATM   23  C   UNL     1       5.144  11.220  19.962  0.00  0.00     0.256 C 
HETATM   24  O   UNL     1       4.648  11.528  18.876  0.00  0.00    -0.267 OA
HETATM   25  N   UNL     1       5.486   9.879  20.230  0.00  0.00    -0.352 N 
HETATM   26  C   UNL     1       6.052   9.430  21.487  0.00  0.00     0.152 C 
BRANCH  25  27
HETATM   27  C   UNL     1       4.864   8.815  19.416  0.00  0.00     0.125 C 
BRANCH  27  28
HETATM   28  C   UNL     1       5.595   8.249  18.187  0.00  0.00     0.020 C 
BRANCH  28  29
HETATM   29  C   UNL     1       4.875   8.335  16.840  0.00  0.00    -0.003 C 
HETATM   30  C   UNL     1       3.372   8.551  16.945  0.00  0.00     0.005 C 
ENDBRANCH  28  29
ENDBRANCH  27  28
ENDBRANCH  25  27
ENDBRANCH   6  23
BRANCH   4  31
HETATM   31  O   UNL     1       2.839  12.271  21.332  0.00  0.00    -0.360 OA
HETATM   32  H   UNL     1       2.887  11.392  20.920  0.00  0.00     0.217 HD
ENDBRANCH   4  31
TORSDOF 8
ENDMDL
