MODEL 1
REMARK VINA RESULT:    -9.139      0.000      0.000
REMARK INTER + INTRA:         -14.410
REMARK INTER:                 -12.640
REMARK INTRA:                  -1.770
REMARK UNBOUND:                -2.066
REMARK  7 active torsions:
REMARK  status: ('A' for Active; 'I' for Inactive)
REMARK    1  A    between atoms: C_6  and  C_7 
REMARK    2  A    between atoms: C_7  and  N_8 
REMARK       I    between atoms: N_8  and  C_10 
REMARK    3  A    between atoms: C_10  and  C_12 
REMARK    4  A    between atoms: C_14  and  C_15 
REMARK    5  A    between atoms: N_21  and  C_22 
REMARK    6  A    between atoms: C_29  and  O_30 
REMARK    7  A    between atoms: C_32  and  O_33 
ROOT
HETATM    1  C   UNL     1      -3.098  13.795  21.448  0.00  0.00     0.066 C 
HETATM    2  C   UNL     1      -1.885  14.524  21.414  0.00  0.00     0.038 C 
HETATM    3  C   UNL     1      -1.817  15.787  20.796  0.00  0.00     0.046 C 
HETATM    4  C   UNL     1      -3.006  16.377  20.350  0.00  0.00     0.082 C 
HETATM    5  C   UNL     1      -4.183  15.646  20.307  0.00  0.00     0.075 C 
HETATM    6  C   UNL     1      -4.197  14.329  20.762  0.00  0.00     0.084 C 
ENDROOT
BRANCH   3   7
HETATM    7  C   UNL     1      -0.550  16.532  20.560  0.00  0.00     0.172 A 
HETATM    8  N   UNL     1      -0.435  17.308  19.510  0.00  0.00    -0.151 NA
HETATM    9  N   UNL     1       0.840  17.778  19.577  0.00  0.00    -0.226 N 
HETATM   10  H   UNL     1       1.268  18.318  18.838  0.00  0.00     0.194 HD
HETATM   11  C   UNL     1       1.534  17.207  20.653  0.00  0.00     0.349 A 
HETATM   12  O   UNL     1       2.730  17.332  20.819  0.00  0.00    -0.245 OA
HETATM   13  N   UNL     1       0.588  16.454  21.330  0.00  0.00    -0.244 N 
BRANCH  13  14
HETATM   14  C   UNL     1       0.905  15.613  22.416  0.00  0.00     0.051 A 
HETATM   15  C   UNL     1       0.586  16.010  23.726  0.00  0.00     0.031 A 
HETATM   16  C   UNL     1       1.020  15.266  24.828  0.00  0.00     0.002 A 
HETATM   17  C   UNL     1       1.796  14.130  24.634  0.00  0.00     0.001 A 
HETATM   18  C   UNL     1       2.065  13.688  23.342  0.00  0.00     0.009 A 
HETATM   19  C   UNL     1       1.594  14.396  22.221  0.00  0.00    -0.035 A 
HETATM   20  C   UNL     1       1.844  13.787  20.866  0.00  0.00     0.050 C 
ENDBRANCH  13  14
ENDBRANCH   3   7
BRANCH   4  21
HETATM   21  O   UNL     1      -3.093  17.662  19.887  0.00  0.00    -0.360 OA
HETATM   22  H   UNL     1      -2.212  17.922  19.534  0.00  0.00     0.217 HD
ENDBRANCH   4  21
BRANCH   1  23
HETATM   23  C   UNL     1      -3.084  12.459  22.136  0.00  0.00     0.256 C 
HETATM   24  N   UNL     1      -3.249  12.323  23.528  0.00  0.00    -0.348 N 
HETATM   25  C   UNL     1      -3.615  13.394  24.439  0.00  0.00     0.153 C 
HETATM   26  O   UNL     1      -2.857  11.482  21.415  0.00  0.00    -0.267 OA
BRANCH  24  27
HETATM   27  C   UNL     1      -3.319  10.979  24.100  0.00  0.00     0.164 C 
BRANCH  27  28
HETATM   28  C   UNL     1      -2.075  10.514  24.833  0.00  0.00    -0.040 A 
HETATM   29  C   UNL     1      -2.024  10.424  26.234  0.00  0.00     0.009 A 
HETATM   30  C   UNL     1      -0.958   9.773  26.865  0.00  0.00     0.001 A 
HETATM   31  C   UNL     1       0.048   9.175  26.105  0.00  0.00     0.007 A 
HETATM   32  C   UNL     1       0.022   9.276  24.710  0.00  0.00    -0.061 A 
HETATM   33  C   UNL     1       0.969   8.490  23.852  0.00  0.00     0.048 C 
HETATM   34  C   UNL     1      -1.006   9.997  24.090  0.00  0.00     0.015 A 
ENDBRANCH  27  28
ENDBRANCH  24  27
ENDBRANCH   1  23
BRANCH   6  35
HETATM   35  O   UNL     1      -5.287  13.567  20.450  0.00  0.00    -0.360 OA
HETATM   36  H   UNL     1      -5.895  14.087  19.897  0.00  0.00     0.217 HD
ENDBRANCH   6  35
TORSDOF 7
ENDMDL
MODEL 2
REMARK VINA RESULT:    -8.527      3.125      8.046
REMARK INTER + INTRA:         -13.583
REMARK INTER:                 -12.337
REMARK INTRA:                  -1.246
REMARK UNBOUND:                -2.066
REMARK  7 active torsions:
REMARK  status: ('A' for Active; 'I' for Inactive)
REMARK    1  A    between atoms: C_6  and  C_7 
REMARK    2  A    between atoms: C_7  and  N_8 
REMARK       I    between atoms: N_8  and  C_10 
REMARK    3  A    between atoms: C_10  and  C_12 
REMARK    4  A    between atoms: C_14  and  C_15 
REMARK    5  A    between atoms: N_21  and  C_22 
REMARK    6  A    between atoms: C_29  and  O_30 
REMARK    7  A    between atoms: C_32  and  O_33 
ROOT
HETATM    1  C   UNL     1      -2.439  12.023  24.468  0.00  0.00     0.066 C 
HETATM    2  C   UNL     1      -1.715  11.208  25.371  0.00  0.00     0.038 C 
HETATM    3  C   UNL     1      -2.320  10.705  26.538  0.00  0.00     0.046 C 
HETATM    4  C   UNL     1      -3.696  10.898  26.712  0.00  0.00     0.082 C 
HETATM    5  C   UNL     1      -4.399  11.756  25.880  0.00  0.00     0.075 C 
HETATM    6  C   UNL     1      -3.743  12.390  24.826  0.00  0.00     0.084 C 
ENDROOT
BRANCH   3   7
HETATM    7  C   UNL     1      -1.583   9.997  27.620  0.00  0.00     0.172 A 
HETATM    8  N   UNL     1      -1.876  10.238  28.875  0.00  0.00    -0.151 NA
HETATM    9  N   UNL     1      -0.993   9.478  29.578  0.00  0.00    -0.226 N 
HETATM   10  H   UNL     1      -0.894   9.536  30.582  0.00  0.00     0.194 HD
HETATM   11  C   UNL     1      -0.095   8.825  28.724  0.00  0.00     0.349 A 
HETATM   12  O   UNL     1       0.889   8.231  29.116  0.00  0.00    -0.245 OA
HETATM   13  N   UNL     1      -0.543   9.113  27.444  0.00  0.00    -0.244 N 
BRANCH  13  14
HETATM   14  C   UNL     1       0.159   8.743  26.280  0.00  0.00     0.051 A 
HETATM   15  C   UNL     1       0.970   9.682  25.622  0.00  0.00     0.031 A 
HETATM   16  C   UNL     1       1.558   9.385  24.388  0.00  0.00     0.002 A 
HETATM   17  C   UNL     1       1.323   8.154  23.788  0.00  0.00     0.001 A 
HETATM   18  C   UNL     1       0.577   7.189  24.457  0.00  0.00     0.009 A 
HETATM   19  C   UNL     1       0.019   7.453  25.721  0.00  0.00    -0.035 A 
HETATM   20  C   UNL     1      -0.685   6.315  26.415  0.00  0.00     0.050 C 
ENDBRANCH  13  14
ENDBRANCH   3   7
BRANCH   4  21
HETATM   21  O   UNL     1      -4.426  10.320  27.715  0.00  0.00    -0.360 OA
HETATM   22  H   UNL     1      -4.136  10.709  28.571  0.00  0.00     0.217 HD
ENDBRANCH   4  21
BRANCH   1  23
HETATM   23  C   UNL     1      -1.718  12.509  23.242  0.00  0.00     0.256 C 
HETATM   24  N   UNL     1      -0.964  13.698  23.229  0.00  0.00    -0.348 N 
HETATM   25  C   UNL     1      -0.644  14.502  24.397  0.00  0.00     0.153 C 
HETATM   26  O   UNL     1      -1.875  11.834  22.219  0.00  0.00    -0.267 OA
BRANCH  24  27
HETATM   27  C   UNL     1      -0.217  14.045  22.021  0.00  0.00     0.164 C 
BRANCH  27  28
HETATM   28  C   UNL     1      -0.566  15.383  21.397  0.00  0.00    -0.040 A 
HETATM   29  C   UNL     1       0.420  16.268  20.930  0.00  0.00     0.009 A 
HETATM   30  C   UNL     1       0.067  17.376  20.151  0.00  0.00     0.001 A 
HETATM   31  C   UNL     1      -1.267  17.592  19.802  0.00  0.00     0.007 A 
HETATM   32  C   UNL     1      -2.261  16.732  20.279  0.00  0.00    -0.061 A 
HETATM   33  C   UNL     1      -3.672  16.812  19.774  0.00  0.00     0.048 C 
HETATM   34  C   UNL     1      -1.908  15.670  21.122  0.00  0.00     0.015 A 
ENDBRANCH  27  28
ENDBRANCH  24  27
ENDBRANCH   1  23
BRANCH   6  35
HETATM   35  O   UNL     1      -4.392  13.422  24.212  0.00  0.00    -0.360 OA
HETATM   36  H   UNL     1      -5.265  13.543  24.622  0.00  0.00     0.217 HD
ENDBRANCH   6  35
TORSDOF 7
ENDMDL
MODEL 3
REMARK VINA RESULT:    -8.506      1.844      2.937
REMARK INTER + INTRA:         -13.556
REMARK INTER:                 -11.269
REMARK INTRA:                  -2.286
REMARK UNBOUND:                -2.066
REMARK  7 active torsions:
REMARK  status: ('A' for Active; 'I' for Inactive)
REMARK    1  A    between atoms: C_6  and  C_7 
REMARK    2  A    between atoms: C_7  and  N_8 
REMARK       I    between atoms: N_8  and  C_10 
REMARK    3  A    between atoms: C_10  and  C_12 
REMARK    4  A    between atoms: C_14  and  C_15 
REMARK    5  A    between atoms: N_21  and  C_22 
REMARK    6  A    between atoms: C_29  and  O_30 
REMARK    7  A    between atoms: C_32  and  O_33 
ROOT
HETATM    1  C   UNL     1      -2.854  15.356  21.567  0.00  0.00     0.066 C 
HETATM    2  C   UNL     1      -1.517  15.579  21.976  0.00  0.00     0.038 C 
HETATM    3  C   UNL     1      -0.656  16.395  21.219  0.00  0.00     0.046 C 
HETATM    4  C   UNL     1      -1.189  17.106  20.137  0.00  0.00     0.082 C 
HETATM    5  C   UNL     1      -2.470  16.839  19.680  0.00  0.00     0.075 C 
HETATM    6  C   UNL     1      -3.256  15.893  20.337  0.00  0.00     0.084 C 
ENDROOT
BRANCH   3   7
HETATM    7  C   UNL     1       0.803  16.534  21.481  0.00  0.00     0.172 A 
HETATM    8  N   UNL     1       1.471  17.525  20.941  0.00  0.00    -0.151 NA
HETATM    9  N   UNL     1       2.756  17.319  21.337  0.00  0.00    -0.226 N 
HETATM   10  H   UNL     1       3.534  17.859  20.986  0.00  0.00     0.194 HD
HETATM   11  C   UNL     1       2.876  16.129  22.069  0.00  0.00     0.349 A 
HETATM   12  O   UNL     1       3.942  15.641  22.380  0.00  0.00    -0.245 OA
HETATM   13  N   UNL     1       1.577  15.669  22.219  0.00  0.00    -0.244 N 
BRANCH  13  14
HETATM   14  C   UNL     1       1.263  14.423  22.798  0.00  0.00     0.051 A 
HETATM   15  C   UNL     1       1.299  13.258  22.015  0.00  0.00     0.031 A 
HETATM   16  C   UNL     1       0.852  12.035  22.525  0.00  0.00     0.002 A 
HETATM   17  C   UNL     1       0.341  11.968  23.815  0.00  0.00     0.001 A 
HETATM   18  C   UNL     1       0.360  13.099  24.626  0.00  0.00     0.009 A 
HETATM   19  C   UNL     1       0.853  14.326  24.146  0.00  0.00    -0.035 A 
HETATM   20  C   UNL     1       0.930  15.468  25.126  0.00  0.00     0.050 C 
ENDBRANCH  13  14
ENDBRANCH   3   7
BRANCH   4  21
HETATM   21  O   UNL     1      -0.497  18.053  19.431  0.00  0.00    -0.360 OA
HETATM   22  H   UNL     1       0.179  17.594  18.882  0.00  0.00     0.217 HD
ENDBRANCH   4  21
BRANCH   1  23
HETATM   23  C   UNL     1      -3.708  14.478  22.439  0.00  0.00     0.256 C 
HETATM   24  N   UNL     1      -3.589  13.075  22.448  0.00  0.00    -0.348 N 
HETATM   25  C   UNL     1      -2.550  12.316  21.773  0.00  0.00     0.153 C 
HETATM   26  O   UNL     1      -4.570  15.057  23.109  0.00  0.00    -0.267 OA
BRANCH  24  27
HETATM   27  C   UNL     1      -4.393  12.307  23.397  0.00  0.00     0.164 C 
BRANCH  27  28
HETATM   28  C   UNL     1      -3.742  12.043  24.742  0.00  0.00    -0.040 A 
HETATM   29  C   UNL     1      -3.261  10.773  25.102  0.00  0.00     0.009 A 
HETATM   30  C   UNL     1      -2.460  10.613  26.238  0.00  0.00     0.001 A 
HETATM   31  C   UNL     1      -2.101  11.723  27.005  0.00  0.00     0.007 A 
HETATM   32  C   UNL     1      -2.590  12.989  26.672  0.00  0.00    -0.061 A 
HETATM   33  C   UNL     1      -2.079  14.228  27.347  0.00  0.00     0.048 C 
HETATM   34  C   UNL     1      -3.456  13.129  25.579  0.00  0.00     0.015 A 
ENDBRANCH  27  28
ENDBRANCH  24  27
ENDBRANCH   1  23
BRANCH   6  35
HETATM   35  O   UNL     1      -4.386  15.464  19.702  0.00  0.00    -0.360 OA
HETATM   36  H   UNL     1      -4.474  15.929  18.852  0.00  0.00     0.217 HD
ENDBRANCH   6  35
TORSDOF 7
ENDMDL
MODEL 4
REMARK VINA RESULT:    -8.317      2.207      6.146
REMARK INTER + INTRA:         -13.299
REMARK INTER:                 -11.786
REMARK INTRA:                  -1.513
REMARK UNBOUND:                -2.066
REMARK  7 active torsions:
REMARK  status: ('A' for Active; 'I' for Inactive)
REMARK    1  A    between atoms: C_6  and  C_7 
REMARK    2  A    between atoms: C_7  and  N_8 
REMARK       I    between atoms: N_8  and  C_10 
REMARK    3  A    between atoms: C_10  and  C_12 
REMARK    4  A    between atoms: C_14  and  C_15 
REMARK    5  A    between atoms: N_21  and  C_22 
REMARK    6  A    between atoms: C_29  and  O_30 
REMARK    7  A    between atoms: C_32  and  O_33 
ROOT
HETATM    1  C   UNL     1      -1.891  15.920  21.378  0.00  0.00     0.066 C 
HETATM    2  C   UNL     1      -2.070  14.989  22.429  0.00  0.00     0.038 C 
HETATM    3  C   UNL     1      -3.329  14.411  22.678  0.00  0.00     0.046 C 
HETATM    4  C   UNL     1      -4.367  14.655  21.770  0.00  0.00     0.082 C 
HETATM    5  C   UNL     1      -4.229  15.621  20.785  0.00  0.00     0.075 C 
HETATM    6  C   UNL     1      -3.028  16.317  20.661  0.00  0.00     0.084 C 
ENDROOT
BRANCH   3   7
HETATM    7  C   UNL     1      -3.639  13.569  23.866  0.00  0.00     0.172 A 
HETATM    8  N   UNL     1      -4.782  13.717  24.489  0.00  0.00    -0.151 NA
HETATM    9  N   UNL     1      -4.710  12.847  25.534  0.00  0.00    -0.226 N 
HETATM   10  H   UNL     1      -5.402  12.811  26.269  0.00  0.00     0.194 HD
HETATM   11  C   UNL     1      -3.459  12.218  25.584  0.00  0.00     0.349 A 
HETATM   12  O   UNL     1      -3.090  11.536  26.517  0.00  0.00    -0.245 OA
HETATM   13  N   UNL     1      -2.799  12.643  24.441  0.00  0.00    -0.244 N 
BRANCH  13  14
HETATM   14  C   UNL     1      -1.451  12.334  24.169  0.00  0.00     0.051 A 
HETATM   15  C   UNL     1      -0.440  12.797  25.027  0.00  0.00     0.031 A 
HETATM   16  C   UNL     1       0.911  12.630  24.703  0.00  0.00     0.002 A 
HETATM   17  C   UNL     1       1.264  12.020  23.505  0.00  0.00     0.001 A 
HETATM   18  C   UNL     1       0.276  11.499  22.676  0.00  0.00     0.009 A 
HETATM   19  C   UNL     1      -1.085  11.613  23.011  0.00  0.00    -0.035 A 
HETATM   20  C   UNL     1      -2.077  10.928  22.108  0.00  0.00     0.050 C 
ENDBRANCH  13  14
ENDBRANCH   3   7
BRANCH   4  21
HETATM   21  O   UNL     1      -5.580  14.023  21.810  0.00  0.00    -0.360 OA
HETATM   22  H   UNL     1      -6.236  14.640  22.206  0.00  0.00     0.217 HD
ENDBRANCH   4  21
BRANCH   1  23
HETATM   23  C   UNL     1      -0.512  16.482  21.177  0.00  0.00     0.256 C 
HETATM   24  N   UNL     1       0.402  16.643  22.237  0.00  0.00    -0.348 N 
HETATM   25  C   UNL     1       0.214  16.148  23.590  0.00  0.00     0.153 C 
HETATM   26  O   UNL     1      -0.242  16.856  20.031  0.00  0.00    -0.267 OA
BRANCH  24  27
HETATM   27  C   UNL     1       1.755  17.107  21.935  0.00  0.00     0.164 C 
BRANCH  27  28
HETATM   28  C   UNL     1       2.811  16.022  21.834  0.00  0.00    -0.040 A 
HETATM   29  C   UNL     1       2.627  14.871  21.049  0.00  0.00     0.009 A 
HETATM   30  C   UNL     1       3.699  14.012  20.787  0.00  0.00     0.001 A 
HETATM   31  C   UNL     1       4.973  14.310  21.274  0.00  0.00     0.007 A 
HETATM   32  C   UNL     1       5.166  15.440  22.075  0.00  0.00    -0.061 A 
HETATM   33  C   UNL     1       6.542  15.902  22.455  0.00  0.00     0.048 C 
HETATM   34  C   UNL     1       4.071  16.253  22.398  0.00  0.00     0.015 A 
ENDBRANCH  27  28
ENDBRANCH  24  27
ENDBRANCH   1  23
BRANCH   6  35
HETATM   35  O   UNL     1      -3.026  17.433  19.874  0.00  0.00    -0.360 OA
HETATM   36  H   UNL     1      -3.923  17.585  19.529  0.00  0.00     0.217 HD
ENDBRANCH   6  35
TORSDOF 7
ENDMDL
MODEL 5
REMARK VINA RESULT:    -8.262      3.564      6.589
REMARK INTER + INTRA:         -13.226
REMARK INTER:                 -11.379
REMARK INTRA:                  -1.846
REMARK UNBOUND:                -2.066
REMARK  7 active torsions:
REMARK  status: ('A' for Active; 'I' for Inactive)
REMARK    1  A    between atoms: C_6  and  C_7 
REMARK    2  A    between atoms: C_7  and  N_8 
REMARK       I    between atoms: N_8  and  C_10 
REMARK    3  A    between atoms: C_10  and  C_12 
REMARK    4  A    between atoms: C_14  and  C_15 
REMARK    5  A    between atoms: N_21  and  C_22 
REMARK    6  A    between atoms: C_29  and  O_30 
REMARK    7  A    between atoms: C_32  and  O_33 
ROOT
HETATM    1  C   UNL     1       0.039   8.719  24.659  0.00  0.00     0.066 C 
HETATM    2  C   UNL     1      -0.351   9.632  23.650  0.00  0.00     0.038 C 
HETATM    3  C   UNL     1      -1.250  10.679  23.929  0.00  0.00     0.046 C 
HETATM    4  C   UNL     1      -1.631  10.894  25.260  0.00  0.00     0.082 C 
HETATM    5  C   UNL     1      -1.320   9.966  26.242  0.00  0.00     0.075 C 
HETATM    6  C   UNL     1      -0.574   8.835  25.914  0.00  0.00     0.084 C 
ENDROOT
BRANCH   3   7
HETATM    7  C   UNL     1      -1.845  11.565  22.892  0.00  0.00     0.172 A 
HETATM    8  N   UNL     1      -2.849  11.137  22.167  0.00  0.00    -0.151 NA
HETATM    9  N   UNL     1      -3.100  12.159  21.304  0.00  0.00    -0.226 N 
HETATM   10  H   UNL     1      -3.753  12.083  20.536  0.00  0.00     0.194 HD
HETATM   11  C   UNL     1      -2.171  13.195  21.463  0.00  0.00     0.349 A 
HETATM   12  O   UNL     1      -2.078  14.133  20.698  0.00  0.00    -0.245 OA
HETATM   13  N   UNL     1      -1.405  12.825  22.558  0.00  0.00    -0.244 N 
BRANCH  13  14
HETATM   14  C   UNL     1      -0.269  13.543  22.982  0.00  0.00     0.051 A 
HETATM   15  C   UNL     1       0.997  13.221  22.465  0.00  0.00     0.031 A 
HETATM   16  C   UNL     1       2.155  13.816  22.976  0.00  0.00     0.002 A 
HETATM   17  C   UNL     1       2.062  14.722  24.025  0.00  0.00     0.001 A 
HETATM   18  C   UNL     1       0.812  15.101  24.504  0.00  0.00     0.009 A 
HETATM   19  C   UNL     1      -0.367  14.550  23.968  0.00  0.00    -0.035 A 
HETATM   20  C   UNL     1      -1.676  15.096  24.475  0.00  0.00     0.050 C 
ENDBRANCH  13  14
ENDBRANCH   3   7
BRANCH   4  21
HETATM   21  O   UNL     1      -2.362  11.973  25.679  0.00  0.00    -0.360 OA
HETATM   22  H   UNL     1      -3.190  11.641  26.094  0.00  0.00     0.217 HD
ENDBRANCH   4  21
BRANCH   1  23
HETATM   23  C   UNL     1       1.009   7.636  24.277  0.00  0.00     0.256 C 
HETATM   24  N   UNL     1       2.376   7.693  24.609  0.00  0.00    -0.348 N 
HETATM   25  C   UNL     1       2.988   8.680  25.483  0.00  0.00     0.153 C 
HETATM   26  O   UNL     1       0.549   6.714  23.596  0.00  0.00    -0.267 OA
BRANCH  24  27
HETATM   27  C   UNL     1       3.228   6.551  24.281  0.00  0.00     0.164 C 
BRANCH  27  28
HETATM   28  C   UNL     1       4.427   6.858  23.405  0.00  0.00    -0.040 A 
HETATM   29  C   UNL     1       5.746   6.687  23.857  0.00  0.00     0.009 A 
HETATM   30  C   UNL     1       6.818   6.749  22.959  0.00  0.00     0.001 A 
HETATM   31  C   UNL     1       6.582   6.947  21.598  0.00  0.00     0.007 A 
HETATM   32  C   UNL     1       5.276   7.142  21.137  0.00  0.00    -0.061 A 
HETATM   33  C   UNL     1       4.961   7.165  19.670  0.00  0.00     0.048 C 
HETATM   34  C   UNL     1       4.216   7.157  22.053  0.00  0.00     0.015 A 
ENDBRANCH  27  28
ENDBRANCH  24  27
ENDBRANCH   1  23
BRANCH   6  35
HETATM   35  O   UNL     1      -0.528   7.825  26.831  0.00  0.00    -0.360 OA
HETATM   36  H   UNL     1      -1.269   7.922  27.454  0.00  0.00     0.217 HD
ENDBRANCH   6  35
TORSDOF 7
ENDMDL
MODEL 6
REMARK VINA RESULT:    -8.105      2.971      7.391
REMARK INTER + INTRA:         -13.014
REMARK INTER:                 -11.609
REMARK INTRA:                  -1.405
REMARK UNBOUND:                -2.066
REMARK  7 active torsions:
REMARK  status: ('A' for Active; 'I' for Inactive)
REMARK    1  A    between atoms: C_6  and  C_7 
REMARK    2  A    between atoms: C_7  and  N_8 
REMARK       I    between atoms: N_8  and  C_10 
REMARK    3  A    between atoms: C_10  and  C_12 
REMARK    4  A    between atoms: C_14  and  C_15 
REMARK    5  A    between atoms: N_21  and  C_22 
REMARK    6  A    between atoms: C_29  and  O_30 
REMARK    7  A    between atoms: C_32  and  O_33 
ROOT
HETATM    1  C   UNL     1      -0.308  15.117  25.879  0.00  0.00     0.066 C 
HETATM    2  C   UNL     1      -1.302  14.225  25.410  0.00  0.00     0.038 C 
HETATM    3  C   UNL     1      -2.299  13.733  26.273  0.00  0.00     0.046 C 
HETATM    4  C   UNL     1      -2.382  14.262  27.567  0.00  0.00     0.082 C 
HETATM    5  C   UNL     1      -1.373  15.074  28.063  0.00  0.00     0.075 C 
HETATM    6  C   UNL     1      -0.294  15.413  27.249  0.00  0.00     0.084 C 
ENDROOT
BRANCH   3   7
HETATM    7  C   UNL     1      -3.265  12.662  25.906  0.00  0.00     0.172 A 
HETATM    8  N   UNL     1      -3.586  11.744  26.785  0.00  0.00    -0.151 NA
HETATM    9  N   UNL     1      -4.428  10.914  26.111  0.00  0.00    -0.226 N 
HETATM   10  H   UNL     1      -4.759  10.038  26.492  0.00  0.00     0.194 HD
HETATM   11  C   UNL     1      -4.552  11.298  24.769  0.00  0.00     0.349 A 
HETATM   12  O   UNL     1      -5.105  10.621  23.928  0.00  0.00    -0.245 OA
HETATM   13  N   UNL     1      -3.847  12.488  24.671  0.00  0.00    -0.244 N 
BRANCH  13  14
HETATM   14  C   UNL     1      -3.621  13.151  23.448  0.00  0.00     0.051 A 
HETATM   15  C   UNL     1      -4.326  14.328  23.149  0.00  0.00     0.031 A 
HETATM   16  C   UNL     1      -4.229  14.923  21.886  0.00  0.00     0.002 A 
HETATM   17  C   UNL     1      -3.445  14.333  20.902  0.00  0.00     0.001 A 
HETATM   18  C   UNL     1      -2.690  13.205  21.203  0.00  0.00     0.009 A 
HETATM   19  C   UNL     1      -2.736  12.622  22.483  0.00  0.00    -0.035 A 
HETATM   20  C   UNL     1      -1.806  11.466  22.748  0.00  0.00     0.050 C 
ENDBRANCH  13  14
ENDBRANCH   3   7
BRANCH   4  21
HETATM   21  O   UNL     1      -3.400  13.989  28.439  0.00  0.00    -0.360 OA
HETATM   22  H   UNL     1      -3.219  13.120  28.863  0.00  0.00     0.217 HD
ENDBRANCH   4  21
BRANCH   1  23
HETATM   23  C   UNL     1       0.713  15.600  24.887  0.00  0.00     0.256 C 
HETATM   24  N   UNL     1       0.361  16.080  23.611  0.00  0.00    -0.348 N 
HETATM   25  C   UNL     1      -0.995  16.331  23.153  0.00  0.00     0.153 C 
HETATM   26  O   UNL     1       1.895  15.495  25.234  0.00  0.00    -0.267 OA
BRANCH  24  27
HETATM   27  C   UNL     1       1.411  16.620  22.749  0.00  0.00     0.164 C 
BRANCH  27  28
HETATM   28  C   UNL     1       2.347  15.595  22.137  0.00  0.00    -0.040 A 
HETATM   29  C   UNL     1       1.959  14.779  21.060  0.00  0.00     0.009 A 
HETATM   30  C   UNL     1       2.909  14.019  20.368  0.00  0.00     0.001 A 
HETATM   31  C   UNL     1       4.258  14.092  20.720  0.00  0.00     0.007 A 
HETATM   32  C   UNL     1       4.655  14.882  21.803  0.00  0.00    -0.061 A 
HETATM   33  C   UNL     1       6.104  15.141  22.092  0.00  0.00     0.048 C 
HETATM   34  C   UNL     1       3.687  15.578  22.540  0.00  0.00     0.015 A 
ENDBRANCH  27  28
ENDBRANCH  24  27
ENDBRANCH   1  23
BRANCH   6  35
HETATM   35  O   UNL     1       0.797  15.973  27.850  0.00  0.00    -0.360 OA
HETATM   36  H   UNL     1       1.408  15.269  28.128  0.00  0.00     0.217 HD
ENDBRANCH   6  35
TORSDOF 7
ENDMDL
MODEL 7
REMARK VINA RESULT:    -8.094      3.339      7.594
REMARK INTER + INTRA:         -12.999
REMARK INTER:                 -10.934
REMARK INTRA:                  -2.066
REMARK UNBOUND:                -2.066
REMARK  7 active torsions:
REMARK  status: ('A' for Active; 'I' for Inactive)
REMARK    1  A    between atoms: C_6  and  C_7 
REMARK    2  A    between atoms: C_7  and  N_8 
REMARK       I    between atoms: N_8  and  C_10 
REMARK    3  A    between atoms: C_10  and  C_12 
REMARK    4  A    between atoms: C_14  and  C_15 
REMARK    5  A    between atoms: N_21  and  C_22 
REMARK    6  A    between atoms: C_29  and  O_30 
REMARK    7  A    between atoms: C_32  and  O_33 
ROOT
HETATM    1  C   UNL     1      -1.219  14.074  26.199  0.00  0.00     0.066 C 
HETATM    2  C   UNL     1      -0.942  12.760  25.750  0.00  0.00     0.038 C 
HETATM    3  C   UNL     1      -1.545  11.644  26.359  0.00  0.00     0.046 C 
HETATM    4  C   UNL     1      -2.543  11.865  27.316  0.00  0.00     0.082 C 
HETATM    5  C   UNL     1      -2.769  13.137  27.819  0.00  0.00     0.075 C 
HETATM    6  C   UNL     1      -2.036  14.215  27.329  0.00  0.00     0.084 C 
ENDROOT
BRANCH   3   7
HETATM    7  C   UNL     1      -1.172  10.233  26.069  0.00  0.00     0.172 A 
HETATM    8  N   UNL     1      -0.898   9.414  27.055  0.00  0.00    -0.151 NA
HETATM    9  N   UNL     1      -0.552   8.251  26.439  0.00  0.00    -0.226 N 
HETATM   10  H   UNL     1      -0.177   7.455  26.937  0.00  0.00     0.194 HD
HETATM   11  C   UNL     1      -0.543   8.398  25.046  0.00  0.00     0.349 A 
HETATM   12  O   UNL     1      -0.102   7.559  24.288  0.00  0.00    -0.245 OA
HETATM   13  N   UNL     1      -1.025   9.678  24.818  0.00  0.00    -0.244 N 
BRANCH  13  14
HETATM   14  C   UNL     1      -1.061  10.272  23.540  0.00  0.00     0.051 A 
HETATM   15  C   UNL     1       0.132  10.471  22.827  0.00  0.00     0.031 A 
HETATM   16  C   UNL     1       0.140  11.188  21.626  0.00  0.00     0.002 A 
HETATM   17  C   UNL     1      -1.041  11.735  21.138  0.00  0.00     0.001 A 
HETATM   18  C   UNL     1      -2.241  11.491  21.799  0.00  0.00     0.009 A 
HETATM   19  C   UNL     1      -2.275  10.729  22.981  0.00  0.00    -0.035 A 
HETATM   20  C   UNL     1      -3.630  10.429  23.569  0.00  0.00     0.050 C 
ENDBRANCH  13  14
ENDBRANCH   3   7
BRANCH   4  21
HETATM   21  O   UNL     1      -3.315  10.872  27.856  0.00  0.00    -0.360 OA
HETATM   22  H   UNL     1      -2.853  10.519  28.650  0.00  0.00     0.217 HD
ENDBRANCH   4  21
BRANCH   1  23
HETATM   23  C   UNL     1      -0.538  15.209  25.486  0.00  0.00     0.256 C 
HETATM   24  N   UNL     1      -0.788  15.511  24.134  0.00  0.00    -0.348 N 
HETATM   25  C   UNL     1      -1.825  14.906  23.315  0.00  0.00     0.153 C 
HETATM   26  O   UNL     1       0.306  15.829  26.141  0.00  0.00    -0.267 OA
BRANCH  24  27
HETATM   27  C   UNL     1      -0.154  16.692  23.549  0.00  0.00     0.164 C 
BRANCH  27  28
HETATM   28  C   UNL     1       0.864  16.415  22.459  0.00  0.00    -0.040 A 
HETATM   29  C   UNL     1       0.836  17.084  21.224  0.00  0.00     0.009 A 
HETATM   30  C   UNL     1       1.915  16.985  20.338  0.00  0.00     0.001 A 
HETATM   31  C   UNL     1       3.046  16.247  20.691  0.00  0.00     0.007 A 
HETATM   32  C   UNL     1       3.079  15.558  21.907  0.00  0.00    -0.061 A 
HETATM   33  C   UNL     1       4.340  14.917  22.408  0.00  0.00     0.048 C 
HETATM   34  C   UNL     1       1.963  15.599  22.753  0.00  0.00     0.015 A 
ENDBRANCH  27  28
ENDBRANCH  24  27
ENDBRANCH   1  23
BRANCH   6  35
HETATM   35  O   UNL     1      -2.089  15.384  28.033  0.00  0.00    -0.360 OA
HETATM   36  H   UNL     1      -2.981  15.765  27.957  0.00  0.00     0.217 HD
ENDBRANCH   6  35
TORSDOF 7
ENDMDL
MODEL 8
REMARK VINA RESULT:    -8.015      3.414      6.822
REMARK INTER + INTRA:         -12.891
REMARK INTER:                 -11.100
REMARK INTRA:                  -1.791
REMARK UNBOUND:                -2.066
REMARK  7 active torsions:
REMARK  status: ('A' for Active; 'I' for Inactive)
REMARK    1  A    between atoms: C_6  and  C_7 
REMARK    2  A    between atoms: C_7  and  N_8 
REMARK       I    between atoms: N_8  and  C_10 
REMARK    3  A    between atoms: C_10  and  C_12 
REMARK    4  A    between atoms: C_14  and  C_15 
REMARK    5  A    between atoms: N_21  and  C_22 
REMARK    6  A    between atoms: C_29  and  O_30 
REMARK    7  A    between atoms: C_32  and  O_33 
ROOT
HETATM    1  C   UNL     1      -0.657   8.835  25.666  0.00  0.00     0.066 C 
HETATM    2  C   UNL     1      -1.321   9.678  24.742  0.00  0.00     0.038 C 
HETATM    3  C   UNL     1      -2.124  10.745  25.183  0.00  0.00     0.046 C 
HETATM    4  C   UNL     1      -2.131  11.055  26.549  0.00  0.00     0.082 C 
HETATM    5  C   UNL     1      -1.551  10.197  27.470  0.00  0.00     0.075 C 
HETATM    6  C   UNL     1      -0.906   9.042  27.029  0.00  0.00     0.084 C 
ENDROOT
BRANCH   3   7
HETATM    7  C   UNL     1      -2.993  11.559  24.290  0.00  0.00     0.172 A 
HETATM    8  N   UNL     1      -4.269  11.277  24.185  0.00  0.00    -0.151 NA
HETATM    9  N   UNL     1      -4.736  12.164  23.266  0.00  0.00    -0.226 N 
HETATM   10  H   UNL     1      -5.671  12.123  22.886  0.00  0.00     0.194 HD
HETATM   11  C   UNL     1      -3.697  12.948  22.746  0.00  0.00     0.349 A 
HETATM   12  O   UNL     1      -3.830  13.687  21.792  0.00  0.00    -0.245 OA
HETATM   13  N   UNL     1      -2.577  12.593  23.482  0.00  0.00    -0.244 N 
BRANCH  13  14
HETATM   14  C   UNL     1      -1.282  13.067  23.192  0.00  0.00     0.051 A 
HETATM   15  C   UNL     1      -0.552  12.508  22.131  0.00  0.00     0.031 A 
HETATM   16  C   UNL     1       0.785  12.856  21.915  0.00  0.00     0.002 A 
HETATM   17  C   UNL     1       1.414  13.750  22.773  0.00  0.00     0.001 A 
HETATM   18  C   UNL     1       0.687  14.363  23.789  0.00  0.00     0.009 A 
HETATM   19  C   UNL     1      -0.673  14.062  23.989  0.00  0.00    -0.035 A 
HETATM   20  C   UNL     1      -1.405  14.850  25.045  0.00  0.00     0.050 C 
ENDBRANCH  13  14
ENDBRANCH   3   7
BRANCH   4  21
HETATM   21  O   UNL     1      -2.736  12.164  27.077  0.00  0.00    -0.360 OA
HETATM   22  H   UNL     1      -2.058  12.871  27.168  0.00  0.00     0.217 HD
ENDBRANCH   4  21
BRANCH   1  23
HETATM   23  C   UNL     1       0.188   7.724  25.108  0.00  0.00     0.256 C 
HETATM   24  N   UNL     1       1.580   7.844  24.939  0.00  0.00    -0.348 N 
HETATM   25  C   UNL     1       2.393   8.949  25.420  0.00  0.00     0.153 C 
HETATM   26  O   UNL     1      -0.421   6.712  24.746  0.00  0.00    -0.267 OA
BRANCH  24  27
HETATM   27  C   UNL     1       2.336   6.679  24.480  0.00  0.00     0.164 C 
BRANCH  27  28
HETATM   28  C   UNL     1       3.687   6.979  23.858  0.00  0.00    -0.040 A 
HETATM   29  C   UNL     1       4.883   6.884  24.589  0.00  0.00     0.009 A 
HETATM   30  C   UNL     1       6.120   6.933  23.937  0.00  0.00     0.001 A 
HETATM   31  C   UNL     1       6.175   7.041  22.546  0.00  0.00     0.007 A 
HETATM   32  C   UNL     1       4.993   7.160  21.808  0.00  0.00    -0.061 A 
HETATM   33  C   UNL     1       4.997   7.084  20.309  0.00  0.00     0.048 C 
HETATM   34  C   UNL     1       3.763   7.189  22.476  0.00  0.00     0.015 A 
ENDBRANCH  27  28
ENDBRANCH  24  27
ENDBRANCH   1  23
BRANCH   6  35
HETATM   35  O   UNL     1      -0.597   8.098  27.966  0.00  0.00    -0.360 OA
HETATM   36  H   UNL     1      -0.253   8.537  28.763  0.00  0.00     0.217 HD
ENDBRANCH   6  35
TORSDOF 7
ENDMDL
