REMARK  4 active torsions:
REMARK  status: ('A' for Active; 'I' for Inactive)
REMARK    1  A    between atoms: O_1  and  C_2 
REMARK    2  A    between atoms: C_4  and  O_5 
REMARK    3  A    between atoms: C_6  and  C_9 
REMARK    4  A    between atoms: N_15  and  C_16 
ROOT
HETATM    1  C   UNL     1       6.559   0.094  -0.434  0.00  0.00     0.172 A 
HETATM    2  N   UNL     1       7.303   1.170  -0.439  0.00  0.00    -0.151 NA
HETATM    3  N   UNL     1       8.541   0.748  -0.818  0.00  0.00    -0.226 N 
HETATM    4  H   UNL     1       9.283   1.392  -1.059  0.00  0.00     0.194 HD
HETATM    5  C   UNL     1       8.531  -0.607  -1.116  0.00  0.00     0.349 A 
HETATM    6  O   UNL     1       9.441  -1.210  -1.659  0.00  0.00    -0.245 OA
HETATM    7  N   UNL     1       7.261  -1.047  -0.770  0.00  0.00    -0.243 N 
ENDROOT
BRANCH   1   8
HETATM    8  C   UNL     1       5.105   0.138  -0.083  0.00  0.00     0.045 C 
HETATM    9  C   UNL     1       4.337   1.286  -0.359  0.00  0.00     0.082 C 
HETATM   10  C   UNL     1       2.951   1.298  -0.166  0.00  0.00     0.074 C 
HETATM   11  C   UNL     1       2.321   0.153   0.299  0.00  0.00     0.068 C 
HETATM   12  C   UNL     1       3.062  -0.962   0.661  0.00  0.00     0.037 C 
HETATM   13  C   UNL     1       4.453  -0.951   0.514  0.00  0.00     0.021 C 
BRANCH   9  14
HETATM   14  O   UNL     1       4.911   2.419  -0.867  0.00  0.00    -0.360 OA
HETATM   15  H   UNL     1       4.382   3.193  -0.614  0.00  0.00     0.217 HD
ENDBRANCH   9  14
BRANCH  11  16
HETATM   16  O   UNL     1       0.965   0.081   0.412  0.00  0.00    -0.361 OA
HETATM   17  H   UNL     1       0.571   0.886   0.037  0.00  0.00     0.217 HD
ENDBRANCH  11  16
ENDBRANCH   1   8
BRANCH   7  18
HETATM   18  C   UNL     1       6.854  -2.389  -0.927  0.00  0.00     0.067 A 
HETATM   19  C   UNL     1       7.560  -3.445  -0.311  0.00  0.00     0.061 A 
HETATM   20 CL   UNL     1       8.950  -3.197   0.692  0.00  0.00    -0.082 Cl
HETATM   21  C   UNL     1       7.065  -4.754  -0.366  0.00  0.00     0.026 A 
HETATM   22  C   UNL     1       5.871  -5.029  -1.028  0.00  0.00     0.002 A 
HETATM   23  C   UNL     1       5.187  -4.003  -1.674  0.00  0.00     0.002 A 
HETATM   24  C   UNL     1       5.685  -2.696  -1.642  0.00  0.00     0.032 A 
ENDBRANCH   7  18
TORSDOF 4
