MODEL 1
REMARK VINA RESULT:    -8.269      0.000      0.000
REMARK INTER + INTRA:         -11.005
REMARK INTER:                  -9.986
REMARK INTRA:                  -1.019
REMARK UNBOUND:                -1.045
REMARK  4 active torsions:
REMARK  status: ('A' for Active; 'I' for Inactive)
REMARK    1  A    between atoms: N_1  and  C_2 
REMARK    2  A    between atoms: C_7  and  C_8 
REMARK       I    between atoms: C_8  and  N_10 
REMARK    3  A    between atoms: N_10  and  C_11 
REMARK    4  A    between atoms: C_23  and  C_24 
ROOT
HETATM    1  C   UNL     1      -1.443   9.528  26.483  0.00  0.00     0.153 C 
HETATM    2  C   UNL     1      -0.608   9.881  25.265  0.00  0.00    -0.020 A 
HETATM    3  C   UNL     1       0.578   9.286  24.841  0.00  0.00     0.010 A 
HETATM    4  C   UNL     1       1.075   9.607  23.580  0.00  0.00     0.001 A 
HETATM    5  C   UNL     1       0.370  10.483  22.750  0.00  0.00     0.001 A 
HETATM    6  C   UNL     1      -0.822  11.077  23.186  0.00  0.00     0.013 A 
HETATM    7  C   UNL     1      -1.305  10.818  24.461  0.00  0.00    -0.016 A 
HETATM    8  C   UNL     1      -2.490  11.299  25.190  0.00  0.00    -0.003 A 
HETATM    9  C   UNL     1      -2.528  10.590  26.434  0.00  0.00    -0.019 A 
HETATM   10  C   UNL     1      -3.535  10.777  27.370  0.00  0.00     0.010 A 
HETATM   11  C   UNL     1      -4.531  11.698  27.079  0.00  0.00     0.002 A 
HETATM   12  C   UNL     1      -4.513  12.411  25.868  0.00  0.00     0.016 A 
HETATM   13  C   UNL     1      -3.498  12.236  24.896  0.00  0.00     0.022 A 
ENDROOT
BRANCH   1  14
HETATM   14  N   UNL     1      -0.737   9.376  27.741  0.00  0.00    -0.343 N 
HETATM   15  C   UNL     1      -0.521   8.090  28.218  0.00  0.00     0.273 C 
HETATM   16  O   UNL     1      -0.811   7.122  27.530  0.00  0.00    -0.266 OA
HETATM   17  H   UNL     1      -0.504  10.181  28.314  0.00  0.00     0.163 HD
BRANCH  15  18
HETATM   18  C   UNL     1       0.069   7.898  29.590  0.00  0.00     0.150 A 
HETATM   19  C   UNL     1       1.373   7.440  29.745  0.00  0.00     0.086 A 
HETATM   20  C   UNL     1       1.797   7.336  31.048  0.00  0.00     0.146 A 
HETATM   21 CL   UNL     1       2.483   6.979  28.516  0.00  0.00    -0.080 Cl
HETATM   22  N   UNL     1       1.025   7.617  32.112  0.00  0.00    -0.229 NA
HETATM   23  C   UNL     1      -0.226   8.008  31.863  0.00  0.00     0.199 A 
HETATM   24  N   UNL     1      -0.752   8.188  30.643  0.00  0.00    -0.211 NA
BRANCH  23  25
HETATM   25  N   UNL     1      -1.004   8.251  32.973  0.00  0.00    -0.271 NA
HETATM   26  H   UNL     1      -0.925   7.478  33.624  0.00  0.00     0.127 HD
HETATM   27  H   UNL     1      -0.868   9.179  33.339  0.00  0.00     0.127 HD
ENDBRANCH  23  25
ENDBRANCH  15  18
ENDBRANCH   1  14
BRANCH  13  28
HETATM   28  C   UNL     1      -3.550  13.054  23.670  0.00  0.00     0.140 A 
HETATM   29  N   UNL     1      -2.724  14.024  23.334  0.00  0.00    -0.227 NA
HETATM   30  C   UNL     1      -3.095  14.458  22.088  0.00  0.00     0.103 A 
HETATM   31  C   UNL     1      -2.498  15.392  21.236  0.00  0.00     0.150 A 
HETATM   32  C   UNL     1      -4.254  13.817  21.675  0.00  0.00     0.065 A 
HETATM   33  N   UNL     1      -3.070  15.688  20.039  0.00  0.00    -0.271 NA
HETATM   34  C   UNL     1      -4.223  15.065  19.698  0.00  0.00     0.118 A 
HETATM   35  C   UNL     1      -4.879  14.108  20.466  0.00  0.00     0.051 A 
HETATM   36  N   UNL     1      -4.524  12.932  22.691  0.00  0.00    -0.338 N 
HETATM   37  H   UNL     1      -5.285  12.270  22.705  0.00  0.00     0.167 HD
ENDBRANCH  13  28
TORSDOF 4
ENDMDL
MODEL 2
REMARK VINA RESULT:    -8.146      3.169      9.717
REMARK INTER + INTRA:         -10.857
REMARK INTER:                 -10.049
REMARK INTRA:                  -0.809
REMARK UNBOUND:                -1.045
REMARK  4 active torsions:
REMARK  status: ('A' for Active; 'I' for Inactive)
REMARK    1  A    between atoms: N_1  and  C_2 
REMARK    2  A    between atoms: C_7  and  C_8 
REMARK       I    between atoms: C_8  and  N_10 
REMARK    3  A    between atoms: N_10  and  C_11 
REMARK    4  A    between atoms: C_23  and  C_24 
ROOT
HETATM    1  C   UNL     1      -2.609  11.882  23.456  0.00  0.00     0.153 C 
HETATM    2  C   UNL     1      -3.201  11.729  24.845  0.00  0.00    -0.020 A 
HETATM    3  C   UNL     1      -4.402  12.247  25.323  0.00  0.00     0.010 A 
HETATM    4  C   UNL     1      -4.874  11.813  26.560  0.00  0.00     0.001 A 
HETATM    5  C   UNL     1      -4.166  10.848  27.281  0.00  0.00     0.001 A 
HETATM    6  C   UNL     1      -2.959  10.333  26.793  0.00  0.00     0.013 A 
HETATM    7  C   UNL     1      -2.438  10.795  25.591  0.00  0.00    -0.016 A 
HETATM    8  C   UNL     1      -1.210  10.466  24.850  0.00  0.00    -0.003 A 
HETATM    9  C   UNL     1      -1.270  11.180  23.610  0.00  0.00    -0.019 A 
HETATM   10  C   UNL     1      -0.278  11.084  22.643  0.00  0.00     0.010 A 
HETATM   11  C   UNL     1       0.813  10.270  22.909  0.00  0.00     0.002 A 
HETATM   12  C   UNL     1       0.899   9.564  24.122  0.00  0.00     0.016 A 
HETATM   13  C   UNL     1      -0.101   9.643  25.122  0.00  0.00     0.022 A 
ENDROOT
BRANCH   1  14
HETATM   14  N   UNL     1      -2.582  13.221  22.897  0.00  0.00    -0.343 N 
HETATM   15  C   UNL     1      -2.821  13.367  21.538  0.00  0.00     0.273 C 
HETATM   16  O   UNL     1      -3.167  12.404  20.867  0.00  0.00    -0.266 OA
HETATM   17  H   UNL     1      -2.287  14.017  23.454  0.00  0.00     0.163 HD
BRANCH  15  18
HETATM   18  C   UNL     1      -2.650  14.718  20.896  0.00  0.00     0.150 A 
HETATM   19  C   UNL     1      -3.570  15.183  19.962  0.00  0.00     0.086 A 
HETATM   20  C   UNL     1      -3.312  16.442  19.476  0.00  0.00     0.146 A 
HETATM   21 CL   UNL     1      -4.953  14.370  19.346  0.00  0.00    -0.080 Cl
HETATM   22  N   UNL     1      -2.245  17.179  19.831  0.00  0.00    -0.229 NA
HETATM   23  C   UNL     1      -1.394  16.629  20.701  0.00  0.00     0.199 A 
HETATM   24  N   UNL     1      -1.549  15.429  21.280  0.00  0.00    -0.211 NA
BRANCH  23  25
HETATM   25  N   UNL     1      -0.292  17.391  21.015  0.00  0.00    -0.271 NA
HETATM   26  H   UNL     1       0.092  17.804  20.173  0.00  0.00     0.127 HD
HETATM   27  H   UNL     1      -0.462  18.005  21.795  0.00  0.00     0.127 HD
ENDBRANCH  23  25
ENDBRANCH  15  18
ENDBRANCH   1  14
BRANCH  13  28
HETATM   28  C   UNL     1       0.095   8.888  26.374  0.00  0.00     0.140 A 
HETATM   29  N   UNL     1       0.908   9.200  27.363  0.00  0.00    -0.227 NA
HETATM   30  C   UNL     1       0.717   8.270  28.352  0.00  0.00     0.103 A 
HETATM   31  C   UNL     1       1.249   8.193  29.641  0.00  0.00     0.150 A 
HETATM   32  C   UNL     1      -0.162   7.283  27.928  0.00  0.00     0.065 A 
HETATM   33  N   UNL     1       0.934   7.147  30.450  0.00  0.00    -0.271 NA
HETATM   34  C   UNL     1       0.104   6.187  29.976  0.00  0.00     0.118 A 
HETATM   35  C   UNL     1      -0.492   6.187  28.719  0.00  0.00     0.051 A 
HETATM   36  N   UNL     1      -0.544   7.695  26.674  0.00  0.00    -0.338 N 
HETATM   37  H   UNL     1      -1.213   7.227  26.082  0.00  0.00     0.167 HD
ENDBRANCH  13  28
TORSDOF 4
ENDMDL
MODEL 3
REMARK VINA RESULT:    -7.681      3.140      9.776
REMARK INTER + INTRA:         -10.297
REMARK INTER:                  -9.260
REMARK INTRA:                  -1.037
REMARK UNBOUND:                -1.045
REMARK  4 active torsions:
REMARK  status: ('A' for Active; 'I' for Inactive)
REMARK    1  A    between atoms: N_1  and  C_2 
REMARK    2  A    between atoms: C_7  and  C_8 
REMARK       I    between atoms: C_8  and  N_10 
REMARK    3  A    between atoms: N_10  and  C_11 
REMARK    4  A    between atoms: C_23  and  C_24 
ROOT
HETATM    1  C   UNL     1      -0.957   9.680  24.928  0.00  0.00     0.153 C 
HETATM    2  C   UNL     1      -0.956   9.809  26.440  0.00  0.00    -0.020 A 
HETATM    3  C   UNL     1      -1.944  10.362  27.252  0.00  0.00     0.010 A 
HETATM    4  C   UNL     1      -1.853  10.189  28.631  0.00  0.00     0.001 A 
HETATM    5  C   UNL     1      -0.807   9.442  29.176  0.00  0.00     0.001 A 
HETATM    6  C   UNL     1       0.183   8.889  28.353  0.00  0.00     0.013 A 
HETATM    7  C   UNL     1       0.146   9.099  26.981  0.00  0.00    -0.016 A 
HETATM    8  C   UNL     1       1.036   8.674  25.888  0.00  0.00    -0.003 A 
HETATM    9  C   UNL     1       0.420   9.094  24.665  0.00  0.00    -0.019 A 
HETATM   10  C   UNL     1       0.976   8.834  23.420  0.00  0.00     0.010 A 
HETATM   11  C   UNL     1       2.183   8.150  23.377  0.00  0.00     0.002 A 
HETATM   12  C   UNL     1       2.811   7.734  24.563  0.00  0.00     0.016 A 
HETATM   13  C   UNL     1       2.261   7.984  25.844  0.00  0.00     0.022 A 
ENDROOT
BRANCH   1  14
HETATM   14  N   UNL     1      -1.317  10.863  24.169  0.00  0.00    -0.343 N 
HETATM   15  C   UNL     1      -2.571  10.902  23.574  0.00  0.00     0.273 C 
HETATM   16  O   UNL     1      -3.384  10.016  23.795  0.00  0.00    -0.266 OA
HETATM   17  H   UNL     1      -0.637  11.594  23.981  0.00  0.00     0.163 HD
BRANCH  15  18
HETATM   18  C   UNL     1      -2.920  12.042  22.654  0.00  0.00     0.150 A 
HETATM   19  C   UNL     1      -2.167  12.289  21.511  0.00  0.00     0.086 A 
HETATM   20  C   UNL     1      -2.609  13.340  20.745  0.00  0.00     0.146 A 
HETATM   21 CL   UNL     1      -0.762  11.457  20.972  0.00  0.00    -0.080 Cl
HETATM   22  N   UNL     1      -3.664  14.109  21.065  0.00  0.00    -0.229 NA
HETATM   23  C   UNL     1      -4.297  13.821  22.204  0.00  0.00     0.199 A 
HETATM   24  N   UNL     1      -3.994  12.801  23.021  0.00  0.00    -0.211 NA
BRANCH  23  25
HETATM   25  N   UNL     1      -5.349  14.650  22.525  0.00  0.00    -0.271 NA
HETATM   26  H   UNL     1      -5.206  15.563  22.110  0.00  0.00     0.127 HD
HETATM   27  H   UNL     1      -6.242  14.209  22.374  0.00  0.00     0.127 HD
ENDBRANCH  23  25
ENDBRANCH  15  18
ENDBRANCH   1  14
BRANCH  13  28
HETATM   28  C   UNL     1       3.012   7.533  27.032  0.00  0.00     0.140 A 
HETATM   29  N   UNL     1       2.800   6.433  27.727  0.00  0.00    -0.227 NA
HETATM   30  C   UNL     1       3.770   6.374  28.694  0.00  0.00     0.103 A 
HETATM   31  C   UNL     1       4.061   5.375  29.627  0.00  0.00     0.150 A 
HETATM   32  C   UNL     1       4.547   7.523  28.675  0.00  0.00     0.065 A 
HETATM   33  N   UNL     1       5.070   5.550  30.522  0.00  0.00    -0.271 NA
HETATM   34  C   UNL     1       5.774   6.706  30.491  0.00  0.00     0.118 A 
HETATM   35  C   UNL     1       5.574   7.746  29.588  0.00  0.00     0.051 A 
HETATM   36  N   UNL     1       4.050   8.242  27.614  0.00  0.00    -0.338 N 
HETATM   37  H   UNL     1       4.409   9.126  27.286  0.00  0.00     0.167 HD
ENDBRANCH  13  28
TORSDOF 4
ENDMDL
MODEL 4
REMARK VINA RESULT:    -7.636      3.163      9.358
REMARK INTER + INTRA:         -10.243
REMARK INTER:                  -9.748
REMARK INTRA:                  -0.496
REMARK UNBOUND:                -1.045
REMARK  4 active torsions:
REMARK  status: ('A' for Active; 'I' for Inactive)
REMARK    1  A    between atoms: N_1  and  C_2 
REMARK    2  A    between atoms: C_7  and  C_8 
REMARK       I    between atoms: C_8  and  N_10 
REMARK    3  A    between atoms: N_10  and  C_11 
REMARK    4  A    between atoms: C_23  and  C_24 
ROOT
HETATM    1  C   UNL     1      -1.096  10.512  23.565  0.00  0.00     0.153 C 
HETATM    2  C   UNL     1      -1.833  10.958  24.815  0.00  0.00    -0.020 A 
HETATM    3  C   UNL     1      -2.900  11.848  24.906  0.00  0.00     0.010 A 
HETATM    4  C   UNL     1      -3.579  11.959  26.117  0.00  0.00     0.001 A 
HETATM    5  C   UNL     1      -3.213  11.159  27.202  0.00  0.00     0.001 A 
HETATM    6  C   UNL     1      -2.139  10.266  27.102  0.00  0.00     0.013 A 
HETATM    7  C   UNL     1      -1.409  10.182  25.924  0.00  0.00    -0.016 A 
HETATM    8  C   UNL     1      -0.243   9.372  25.535  0.00  0.00    -0.003 A 
HETATM    9  C   UNL     1      -0.002   9.631  24.146  0.00  0.00    -0.019 A 
HETATM   10  C   UNL     1       1.015   9.011  23.435  0.00  0.00     0.010 A 
HETATM   11  C   UNL     1       1.831   8.117  24.114  0.00  0.00     0.002 A 
HETATM   12  C   UNL     1       1.620   7.850  25.478  0.00  0.00     0.016 A 
HETATM   13  C   UNL     1       0.587   8.468  26.223  0.00  0.00     0.022 A 
ENDROOT
BRANCH   1  14
HETATM   14  N   UNL     1      -0.674  11.552  22.646  0.00  0.00    -0.343 N 
HETATM   15  C   UNL     1       0.166  12.547  23.127  0.00  0.00     0.273 C 
HETATM   16  O   UNL     1       0.629  12.470  24.256  0.00  0.00    -0.266 OA
HETATM   17  H   UNL     1      -1.066  11.619  21.712  0.00  0.00     0.163 HD
BRANCH  15  18
HETATM   18  C   UNL     1       0.500  13.724  22.248  0.00  0.00     0.150 A 
HETATM   19  C   UNL     1      -0.350  14.822  22.177  0.00  0.00     0.086 A 
HETATM   20  C   UNL     1       0.086  15.838  21.360  0.00  0.00     0.146 A 
HETATM   21 CL   UNL     1      -1.863  15.039  22.963  0.00  0.00    -0.080 Cl
HETATM   22  N   UNL     1       1.225  15.790  20.648  0.00  0.00    -0.229 NA
HETATM   23  C   UNL     1       1.953  14.675  20.747  0.00  0.00     0.199 A 
HETATM   24  N   UNL     1       1.662  13.630  21.536  0.00  0.00    -0.211 NA
BRANCH  23  25
HETATM   25  N   UNL     1       3.093  14.639  19.976  0.00  0.00    -0.271 NA
HETATM   26  H   UNL     1       3.909  14.768  20.563  0.00  0.00     0.127 HD
HETATM   27  H   UNL     1       3.099  13.858  19.340  0.00  0.00     0.127 HD
ENDBRANCH  23  25
ENDBRANCH  15  18
ENDBRANCH   1  14
BRANCH  13  28
HETATM   28  C   UNL     1       0.465   8.145  27.658  0.00  0.00     0.140 A 
HETATM   29  N   UNL     1       0.813   8.914  28.670  0.00  0.00    -0.227 NA
HETATM   30  C   UNL     1       0.459   8.254  29.819  0.00  0.00     0.103 A 
HETATM   31  C   UNL     1       0.513   8.663  31.154  0.00  0.00     0.150 A 
HETATM   32  C   UNL     1      -0.026   6.988  29.522  0.00  0.00     0.065 A 
HETATM   33  N   UNL     1       0.128   7.815  32.144  0.00  0.00    -0.271 NA
HETATM   34  C   UNL     1      -0.299   6.575  31.808  0.00  0.00     0.118 A 
HETATM   35  C   UNL     1      -0.410   6.086  30.510  0.00  0.00     0.051 A 
HETATM   36  N   UNL     1      -0.014   6.941  28.149  0.00  0.00    -0.338 N 
HETATM   37  H   UNL     1      -0.340   6.170  27.587  0.00  0.00     0.167 HD
ENDBRANCH  13  28
TORSDOF 4
ENDMDL
MODEL 5
REMARK VINA RESULT:    -7.524      3.701      9.321
REMARK INTER + INTRA:         -10.108
REMARK INTER:                  -9.805
REMARK INTRA:                  -0.304
REMARK UNBOUND:                -1.045
REMARK  4 active torsions:
REMARK  status: ('A' for Active; 'I' for Inactive)
REMARK    1  A    between atoms: N_1  and  C_2 
REMARK    2  A    between atoms: C_7  and  C_8 
REMARK       I    between atoms: C_8  and  N_10 
REMARK    3  A    between atoms: N_10  and  C_11 
REMARK    4  A    between atoms: C_23  and  C_24 
ROOT
HETATM    1  C   UNL     1      -1.454  13.878  24.345  0.00  0.00     0.153 C 
HETATM    2  C   UNL     1       0.027  13.833  24.015  0.00  0.00    -0.020 A 
HETATM    3  C   UNL     1       0.802  14.828  23.426  0.00  0.00     0.010 A 
HETATM    4  C   UNL     1       2.187  14.677  23.407  0.00  0.00     0.001 A 
HETATM    5  C   UNL     1       2.778  13.560  24.003  0.00  0.00     0.001 A 
HETATM    6  C   UNL     1       1.991  12.563  24.593  0.00  0.00     0.013 A 
HETATM    7  C   UNL     1       0.606  12.664  24.572  0.00  0.00    -0.016 A 
HETATM    8  C   UNL     1      -0.460  11.785  25.079  0.00  0.00    -0.003 A 
HETATM    9  C   UNL     1      -1.699  12.473  24.868  0.00  0.00    -0.019 A 
HETATM   10  C   UNL     1      -2.923  11.944  25.254  0.00  0.00     0.010 A 
HETATM   11  C   UNL     1      -2.930  10.693  25.855  0.00  0.00     0.002 A 
HETATM   12  C   UNL     1      -1.729   9.995  26.067  0.00  0.00     0.016 A 
HETATM   13  C   UNL     1      -0.468  10.515  25.685  0.00  0.00     0.022 A 
ENDROOT
BRANCH   1  14
HETATM   14  N   UNL     1      -2.344  14.349  23.301  0.00  0.00    -0.343 N 
HETATM   15  C   UNL     1      -2.364  13.658  22.098  0.00  0.00     0.273 C 
HETATM   16  O   UNL     1      -1.739  12.614  21.978  0.00  0.00    -0.266 OA
HETATM   17  H   UNL     1      -2.856  15.220  23.400  0.00  0.00     0.163 HD
BRANCH  15  18
HETATM   18  C   UNL     1      -3.158  14.205  20.941  0.00  0.00     0.150 A 
HETATM   19  C   UNL     1      -2.864  15.454  20.405  0.00  0.00     0.086 A 
HETATM   20  C   UNL     1      -3.646  15.822  19.336  0.00  0.00     0.146 A 
HETATM   21 CL   UNL     1      -1.672  16.575  20.931  0.00  0.00    -0.080 Cl
HETATM   22  N   UNL     1      -4.645  15.069  18.844  0.00  0.00    -0.229 NA
HETATM   23  C   UNL     1      -4.880  13.905  19.454  0.00  0.00     0.199 A 
HETATM   24  N   UNL     1      -4.168  13.411  20.478  0.00  0.00    -0.211 NA
BRANCH  23  25
HETATM   25  N   UNL     1      -5.934  13.174  18.953  0.00  0.00    -0.271 NA
HETATM   26  H   UNL     1      -6.316  12.580  19.679  0.00  0.00     0.127 HD
HETATM   27  H   UNL     1      -6.581  13.745  18.434  0.00  0.00     0.127 HD
ENDBRANCH  23  25
ENDBRANCH  15  18
ENDBRANCH   1  14
BRANCH  13  28
HETATM   28  C   UNL     1       0.733   9.692  25.921  0.00  0.00     0.140 A 
HETATM   29  N   UNL     1       1.206   9.307  27.089  0.00  0.00    -0.227 NA
HETATM   30  C   UNL     1       2.288   8.501  26.841  0.00  0.00     0.103 A 
HETATM   31  C   UNL     1       3.085   7.758  27.715  0.00  0.00     0.150 A 
HETATM   32  C   UNL     1       2.567   8.468  25.483  0.00  0.00     0.065 A 
HETATM   33  N   UNL     1       4.139   7.043  27.238  0.00  0.00    -0.271 NA
HETATM   34  C   UNL     1       4.397   7.074  25.909  0.00  0.00     0.118 A 
HETATM   35  C   UNL     1       3.649   7.764  24.960  0.00  0.00     0.051 A 
HETATM   36  N   UNL     1       1.570   9.228  24.920  0.00  0.00    -0.338 N 
HETATM   37  H   UNL     1       1.444   9.389  23.932  0.00  0.00     0.167 HD
ENDBRANCH  13  28
TORSDOF 4
ENDMDL
MODEL 6
REMARK VINA RESULT:    -7.486      5.459     10.044
REMARK INTER + INTRA:         -10.062
REMARK INTER:                  -9.083
REMARK INTRA:                  -0.979
REMARK UNBOUND:                -1.045
REMARK  4 active torsions:
REMARK  status: ('A' for Active; 'I' for Inactive)
REMARK    1  A    between atoms: N_1  and  C_2 
REMARK    2  A    between atoms: C_7  and  C_8 
REMARK       I    between atoms: C_8  and  N_10 
REMARK    3  A    between atoms: N_10  and  C_11 
REMARK    4  A    between atoms: C_23  and  C_24 
ROOT
HETATM    1  C   UNL     1       3.579   7.330  23.801  0.00  0.00     0.153 C 
HETATM    2  C   UNL     1       3.958   6.470  24.992  0.00  0.00    -0.020 A 
HETATM    3  C   UNL     1       5.068   5.640  25.129  0.00  0.00     0.010 A 
HETATM    4  C   UNL     1       5.354   5.103  26.382  0.00  0.00     0.001 A 
HETATM    5  C   UNL     1       4.556   5.427  27.482  0.00  0.00     0.001 A 
HETATM    6  C   UNL     1       3.442   6.263  27.336  0.00  0.00     0.013 A 
HETATM    7  C   UNL     1       3.102   6.762  26.085  0.00  0.00    -0.016 A 
HETATM    8  C   UNL     1       2.002   7.625  25.627  0.00  0.00    -0.003 A 
HETATM    9  C   UNL     1       2.239   7.898  24.240  0.00  0.00    -0.019 A 
HETATM   10  C   UNL     1       1.405   8.710  23.485  0.00  0.00     0.010 A 
HETATM   11  C   UNL     1       0.296   9.262  24.109  0.00  0.00     0.002 A 
HETATM   12  C   UNL     1       0.037   9.004  25.466  0.00  0.00     0.016 A 
HETATM   13  C   UNL     1       0.874   8.181  26.258  0.00  0.00     0.022 A 
ENDROOT
BRANCH   1  14
HETATM   14  N   UNL     1       3.621   6.698  22.495  0.00  0.00    -0.343 N 
HETATM   15  C   UNL     1       4.760   6.873  21.722  0.00  0.00     0.273 C 
HETATM   16  O   UNL     1       5.740   7.438  22.187  0.00  0.00    -0.266 OA
HETATM   17  H   UNL     1       2.804   6.236  22.108  0.00  0.00     0.163 HD
BRANCH  15  18
HETATM   18  C   UNL     1       4.779   6.363  20.305  0.00  0.00     0.150 A 
HETATM   19  C   UNL     1       4.757   4.998  20.040  0.00  0.00     0.086 A 
HETATM   20  C   UNL     1       4.749   4.668  18.706  0.00  0.00     0.146 A 
HETATM   21 CL   UNL     1       4.760   3.703  21.171  0.00  0.00    -0.080 Cl
HETATM   22  N   UNL     1       4.791   5.571  17.711  0.00  0.00    -0.229 NA
HETATM   23  C   UNL     1       4.854   6.857  18.065  0.00  0.00     0.199 A 
HETATM   24  N   UNL     1       4.829   7.314  19.326  0.00  0.00    -0.211 NA
BRANCH  23  25
HETATM   25  N   UNL     1       4.936   7.755  17.025  0.00  0.00    -0.271 NA
HETATM   26  H   UNL     1       5.291   8.642  17.364  0.00  0.00     0.127 HD
HETATM   27  H   UNL     1       5.379   7.360  16.212  0.00  0.00     0.127 HD
ENDBRANCH  23  25
ENDBRANCH  15  18
ENDBRANCH   1  14
BRANCH  13  28
HETATM   28  C   UNL     1       0.501   7.946  27.666  0.00  0.00     0.140 A 
HETATM   29  N   UNL     1       0.038   6.825  28.181  0.00  0.00    -0.227 NA
HETATM   30  C   UNL     1      -0.103   7.029  29.530  0.00  0.00     0.103 A 
HETATM   31  C   UNL     1      -0.460   6.142  30.549  0.00  0.00     0.150 A 
HETATM   32  C   UNL     1       0.176   8.349  29.854  0.00  0.00     0.065 A 
HETATM   33  N   UNL     1      -0.565   6.582  31.831  0.00  0.00    -0.271 NA
HETATM   34  C   UNL     1      -0.323   7.889  32.092  0.00  0.00     0.118 A 
HETATM   35  C   UNL     1       0.060   8.840  31.151  0.00  0.00     0.051 A 
HETATM   36  N   UNL     1       0.557   8.911  28.659  0.00  0.00    -0.338 N 
HETATM   37  H   UNL     1       0.868   9.862  28.532  0.00  0.00     0.167 HD
ENDBRANCH  13  28
TORSDOF 4
ENDMDL
MODEL 7
REMARK VINA RESULT:    -7.451      2.612      9.278
REMARK INTER + INTRA:         -10.020
REMARK INTER:                  -9.678
REMARK INTRA:                  -0.341
REMARK UNBOUND:                -1.045
REMARK  4 active torsions:
REMARK  status: ('A' for Active; 'I' for Inactive)
REMARK    1  A    between atoms: N_1  and  C_2 
REMARK    2  A    between atoms: C_7  and  C_8 
REMARK       I    between atoms: C_8  and  N_10 
REMARK    3  A    between atoms: N_10  and  C_11 
REMARK    4  A    between atoms: C_23  and  C_24 
ROOT
HETATM    1  C   UNL     1      -1.921  10.866  23.353  0.00  0.00     0.153 C 
HETATM    2  C   UNL     1      -2.687  11.174  24.627  0.00  0.00    -0.020 A 
HETATM    3  C   UNL     1      -3.836  11.949  24.767  0.00  0.00     0.010 A 
HETATM    4  C   UNL     1      -4.512  11.932  25.985  0.00  0.00     0.001 A 
HETATM    5  C   UNL     1      -4.057  11.120  27.028  0.00  0.00     0.001 A 
HETATM    6  C   UNL     1      -2.901  10.344  26.878  0.00  0.00     0.013 A 
HETATM    7  C   UNL     1      -2.177  10.391  25.693  0.00  0.00    -0.016 A 
HETATM    8  C   UNL     1      -0.941   9.721  25.259  0.00  0.00    -0.003 A 
HETATM    9  C   UNL     1      -0.740  10.071  23.885  0.00  0.00    -0.019 A 
HETATM   10  C   UNL     1       0.327   9.591  23.139  0.00  0.00     0.010 A 
HETATM   11  C   UNL     1       1.234   8.750  23.768  0.00  0.00     0.002 A 
HETATM   12  C   UNL     1       1.063   8.397  25.118  0.00  0.00     0.016 A 
HETATM   13  C   UNL     1      -0.019   8.871  25.898  0.00  0.00     0.022 A 
ENDROOT
BRANCH   1  14
HETATM   14  N   UNL     1      -1.613  11.987  22.485  0.00  0.00    -0.343 N 
HETATM   15  C   UNL     1      -0.905  13.054  23.022  0.00  0.00     0.273 C 
HETATM   16  O   UNL     1      -0.453  12.984  24.156  0.00  0.00    -0.266 OA
HETATM   17  H   UNL     1      -1.996  12.047  21.547  0.00  0.00     0.163 HD
BRANCH  15  18
HETATM   18  C   UNL     1      -0.701  14.298  22.198  0.00  0.00     0.150 A 
HETATM   19  C   UNL     1       0.579  14.769  21.926  0.00  0.00     0.086 A 
HETATM   20  C   UNL     1       0.624  15.895  21.141  0.00  0.00     0.146 A 
HETATM   21 CL   UNL     1       2.078  14.125  22.468  0.00  0.00    -0.080 Cl
HETATM   22  N   UNL     1      -0.466  16.534  20.682  0.00  0.00    -0.229 NA
HETATM   23  C   UNL     1      -1.652  16.031  21.032  0.00  0.00     0.199 A 
HETATM   24  N   UNL     1      -1.836  14.919  21.759  0.00  0.00    -0.211 NA
BRANCH  23  25
HETATM   25  N   UNL     1      -2.749  16.729  20.580  0.00  0.00    -0.271 NA
HETATM   26  H   UNL     1      -3.326  16.127  20.004  0.00  0.00     0.127 HD
HETATM   27  H   UNL     1      -3.207  17.240  21.317  0.00  0.00     0.127 HD
ENDBRANCH  23  25
ENDBRANCH  15  18
ENDBRANCH   1  14
BRANCH  13  28
HETATM   28  C   UNL     1      -0.094   8.468  27.315  0.00  0.00     0.140 A 
HETATM   29  N   UNL     1      -0.607   7.351  27.790  0.00  0.00    -0.227 NA
HETATM   30  C   UNL     1      -0.400   7.356  29.146  0.00  0.00     0.103 A 
HETATM   31  C   UNL     1      -0.657   6.375  30.107  0.00  0.00     0.150 A 
HETATM   32  C   UNL     1       0.161   8.560  29.547  0.00  0.00     0.065 A 
HETATM   33  N   UNL     1      -0.391   6.616  31.418  0.00  0.00    -0.271 NA
HETATM   34  C   UNL     1       0.119   7.822  31.766  0.00  0.00     0.118 A 
HETATM   35  C   UNL     1       0.429   8.851  30.882  0.00  0.00     0.051 A 
HETATM   36  N   UNL     1       0.347   9.248  28.372  0.00  0.00    -0.338 N 
HETATM   37  H   UNL     1       0.774  10.158  28.288  0.00  0.00     0.167 HD
ENDBRANCH  13  28
TORSDOF 4
ENDMDL
MODEL 8
REMARK VINA RESULT:    -7.379      1.467      1.811
REMARK INTER + INTRA:          -9.933
REMARK INTER:                  -8.957
REMARK INTRA:                  -0.976
REMARK UNBOUND:                -1.045
REMARK  4 active torsions:
REMARK  status: ('A' for Active; 'I' for Inactive)
REMARK    1  A    between atoms: N_1  and  C_2 
REMARK    2  A    between atoms: C_7  and  C_8 
REMARK       I    between atoms: C_8  and  N_10 
REMARK    3  A    between atoms: N_10  and  C_11 
REMARK    4  A    between atoms: C_23  and  C_24 
ROOT
HETATM    1  C   UNL     1      -0.800   9.436  26.235  0.00  0.00     0.153 C 
HETATM    2  C   UNL     1      -0.195   9.779  24.885  0.00  0.00    -0.020 A 
HETATM    3  C   UNL     1       0.862   9.145  24.237  0.00  0.00     0.010 A 
HETATM    4  C   UNL     1       1.126   9.470  22.909  0.00  0.00     0.001 A 
HETATM    5  C   UNL     1       0.315  10.389  22.238  0.00  0.00     0.001 A 
HETATM    6  C   UNL     1      -0.747  11.021  22.897  0.00  0.00     0.013 A 
HETATM    7  C   UNL     1      -0.992  10.758  24.239  0.00  0.00    -0.016 A 
HETATM    8  C   UNL     1      -1.996  11.271  25.183  0.00  0.00    -0.003 A 
HETATM    9  C   UNL     1      -1.828  10.541  26.405  0.00  0.00    -0.019 A 
HETATM   10  C   UNL     1      -2.632  10.750  27.517  0.00  0.00     0.010 A 
HETATM   11  C   UNL     1      -3.625  11.715  27.430  0.00  0.00     0.002 A 
HETATM   12  C   UNL     1      -3.806  12.450  26.245  0.00  0.00     0.016 A 
HETATM   13  C   UNL     1      -3.000  12.253  25.097  0.00  0.00     0.022 A 
ENDROOT
BRANCH   1  14
HETATM   14  N   UNL     1       0.124   9.232  27.335  0.00  0.00    -0.343 N 
HETATM   15  C   UNL     1       0.508   7.932  27.633  0.00  0.00     0.273 C 
HETATM   16  O   UNL     1       0.170   7.008  26.907  0.00  0.00    -0.266 OA
HETATM   17  H   UNL     1       0.397   9.999  27.941  0.00  0.00     0.163 HD
BRANCH  15  18
HETATM   18  C   UNL     1       1.341   7.668  28.860  0.00  0.00     0.150 A 
HETATM   19  C   UNL     1       0.769   7.122  30.004  0.00  0.00     0.086 A 
HETATM   20  C   UNL     1       1.645   6.907  31.041  0.00  0.00     0.146 A 
HETATM   21 CL   UNL     1      -0.880   6.715  30.269  0.00  0.00    -0.080 Cl
HETATM   22  N   UNL     1       2.952   7.218  30.995  0.00  0.00    -0.229 NA
HETATM   23  C   UNL     1       3.400   7.778  29.869  0.00  0.00     0.199 A 
HETATM   24  N   UNL     1       2.662   8.006  28.772  0.00  0.00    -0.211 NA
BRANCH  23  25
HETATM   25  N   UNL     1       4.733   8.121  29.866  0.00  0.00    -0.271 NA
HETATM   26  H   UNL     1       5.187   7.743  30.689  0.00  0.00     0.127 HD
HETATM   27  H   UNL     1       5.170   7.946  28.976  0.00  0.00     0.127 HD
ENDBRANCH  23  25
ENDBRANCH  15  18
ENDBRANCH   1  14
BRANCH  13  28
HETATM   28  C   UNL     1      -3.248  13.095  23.912  0.00  0.00     0.140 A 
HETATM   29  N   UNL     1      -2.556  14.153  23.538  0.00  0.00    -0.227 NA
HETATM   30  C   UNL     1      -3.085  14.582  22.348  0.00  0.00     0.103 A 
HETATM   31  C   UNL     1      -2.666  15.594  21.480  0.00  0.00     0.150 A 
HETATM   32  C   UNL     1      -4.210  13.839  22.020  0.00  0.00     0.065 A 
HETATM   33  N   UNL     1      -3.375  15.864  20.352  0.00  0.00    -0.271 NA
HETATM   34  C   UNL     1      -4.489  15.139  20.096  0.00  0.00     0.118 A 
HETATM   35  C   UNL     1      -4.972  14.099  20.884  0.00  0.00     0.051 A 
HETATM   36  N   UNL     1      -4.294  12.903  23.023  0.00  0.00    -0.338 N 
HETATM   37  H   UNL     1      -4.983  12.168  23.082  0.00  0.00     0.167 HD
ENDBRANCH  13  28
TORSDOF 4
ENDMDL
MODEL 9
REMARK VINA RESULT:    -7.194      4.041      9.848
REMARK INTER + INTRA:          -9.710
REMARK INTER:                  -8.666
REMARK INTRA:                  -1.045
REMARK UNBOUND:                -1.045
REMARK  4 active torsions:
REMARK  status: ('A' for Active; 'I' for Inactive)
REMARK    1  A    between atoms: N_1  and  C_2 
REMARK    2  A    between atoms: C_7  and  C_8 
REMARK       I    between atoms: C_8  and  N_10 
REMARK    3  A    between atoms: N_10  and  C_11 
REMARK    4  A    between atoms: C_23  and  C_24 
ROOT
HETATM    1  C   UNL     1       0.958   9.100  26.485  0.00  0.00     0.153 C 
HETATM    2  C   UNL     1       1.757   8.228  25.534  0.00  0.00    -0.020 A 
HETATM    3  C   UNL     1       1.797   8.294  24.143  0.00  0.00     0.010 A 
HETATM    4  C   UNL     1       2.760   7.550  23.465  0.00  0.00     0.001 A 
HETATM    5  C   UNL     1       3.686   6.784  24.178  0.00  0.00     0.001 A 
HETATM    6  C   UNL     1       3.638   6.724  25.576  0.00  0.00     0.013 A 
HETATM    7  C   UNL     1       2.650   7.409  26.271  0.00  0.00    -0.016 A 
HETATM    8  C   UNL     1       2.340   7.517  27.706  0.00  0.00    -0.003 A 
HETATM    9  C   UNL     1       1.272   8.464  27.829  0.00  0.00    -0.019 A 
HETATM   10  C   UNL     1       0.737   8.833  29.055  0.00  0.00     0.010 A 
HETATM   11  C   UNL     1       1.260   8.243  30.197  0.00  0.00     0.002 A 
HETATM   12  C   UNL     1       2.303   7.305  30.102  0.00  0.00     0.016 A 
HETATM   13  C   UNL     1       2.867   6.915  28.863  0.00  0.00     0.022 A 
ENDROOT
BRANCH   1  14
HETATM   14  N   UNL     1      -0.445   9.299  26.171  0.00  0.00    -0.343 N 
HETATM   15  C   UNL     1      -0.828  10.523  25.640  0.00  0.00     0.273 C 
HETATM   16  O   UNL     1       0.016  11.353  25.334  0.00  0.00    -0.266 OA
HETATM   17  H   UNL     1      -1.145   8.612  26.432  0.00  0.00     0.163 HD
BRANCH  15  18
HETATM   18  C   UNL     1      -2.292  10.821  25.445  0.00  0.00     0.150 A 
HETATM   19  C   UNL     1      -2.838  10.897  24.169  0.00  0.00     0.086 A 
HETATM   20  C   UNL     1      -4.189  11.147  24.134  0.00  0.00     0.146 A 
HETATM   21 CL   UNL     1      -2.027  10.738  22.662  0.00  0.00    -0.080 Cl
HETATM   22  N   UNL     1      -4.945  11.339  25.229  0.00  0.00    -0.229 NA
HETATM   23  C   UNL     1      -4.321  11.290  26.408  0.00  0.00     0.199 A 
HETATM   24  N   UNL     1      -3.020  11.017  26.584  0.00  0.00    -0.211 NA
BRANCH  23  25
HETATM   25  N   UNL     1      -5.113  11.530  27.509  0.00  0.00    -0.271 NA
HETATM   26  H   UNL     1      -6.088  11.397  27.266  0.00  0.00     0.127 HD
HETATM   27  H   UNL     1      -4.774  11.060  28.332  0.00  0.00     0.127 HD
ENDBRANCH  23  25
ENDBRANCH  15  18
ENDBRANCH   1  14
BRANCH  13  28
HETATM   28  C   UNL     1       3.938   5.901  28.866  0.00  0.00     0.140 A 
HETATM   29  N   UNL     1       5.203   6.092  29.180  0.00  0.00    -0.227 NA
HETATM   30  C   UNL     1       5.824   4.871  29.119  0.00  0.00     0.103 A 
HETATM   31  C   UNL     1       7.129   4.498  29.452  0.00  0.00     0.150 A 
HETATM   32  C   UNL     1       4.948   3.904  28.647  0.00  0.00     0.065 A 
HETATM   33  N   UNL     1       7.537   3.213  29.280  0.00  0.00    -0.271 NA
HETATM   34  C   UNL     1       6.658   2.313  28.777  0.00  0.00     0.118 A 
HETATM   35  C   UNL     1       5.335   2.583  28.439  0.00  0.00     0.051 A 
HETATM   36  N   UNL     1       3.760   4.578  28.495  0.00  0.00    -0.338 N 
HETATM   37  H   UNL     1       2.888   4.166  28.199  0.00  0.00     0.167 HD
ENDBRANCH  13  28
TORSDOF 4
ENDMDL
