MODEL 1
REMARK VINA RESULT:    -8.973      0.000      0.000
REMARK INTER + INTRA:         -12.835
REMARK INTER:                 -11.439
REMARK INTRA:                  -1.396
REMARK UNBOUND:                -1.501
REMARK  5 active torsions:
REMARK  status: ('A' for Active; 'I' for Inactive)
REMARK    1  A    between atoms: C_7  and  N_8 
REMARK       I    between atoms: N_8  and  C_10 
REMARK    2  A    between atoms: C_10  and  C_12 
REMARK    3  A    between atoms: C_14  and  O_15 
REMARK    4  A    between atoms: C_22  and  C_23 
REMARK    5  A    between atoms: C_23  and  C_24 
ROOT
HETATM    1  C   UNL     1      -0.159  16.406  21.225  0.00  0.00     0.066 C 
HETATM    2  C   UNL     1      -1.146  15.783  22.020  0.00  0.00     0.035 C 
HETATM    3  C   UNL     1      -0.599  17.144  20.105  0.00  0.00     0.083 C 
HETATM    4  C   UNL     1      -1.946  17.179  19.715  0.00  0.00     0.069 C 
HETATM    5  C   UNL     1      -2.843  16.387  20.437  0.00  0.00     0.065 A 
HETATM    6  C   UNL     1      -2.477  15.659  21.559  0.00  0.00     0.020 A 
HETATM    7  N   UNL     1      -4.175  16.144  20.280  0.00  0.00    -0.277 N 
HETATM    8  H   UNL     1      -4.794  16.548  19.580  0.00  0.00     0.189 HD
HETATM    9  N   UNL     1      -4.678  15.238  21.128  0.00  0.00    -0.178 NA
HETATM   10  C   UNL     1      -3.640  14.898  21.916  0.00  0.00     0.071 A 
ENDROOT
BRANCH   1  11
HETATM   11  C   UNL     1       1.335  16.305  21.496  0.00  0.00     0.260 C 
HETATM   12  N   UNL     1       2.065  15.096  21.280  0.00  0.00    -0.318 N 
HETATM   13  C   UNL     1       1.383  13.889  20.809  0.00  0.00     0.159 C 
HETATM   14  O   UNL     1       1.858  17.378  21.819  0.00  0.00    -0.267 OA
BRANCH  12  15
HETATM   15  C   UNL     1       3.467  14.933  21.662  0.00  0.00     0.037 C 
HETATM   16  C   UNL     1       3.817  14.508  22.960  0.00  0.00     0.030 C 
HETATM   17  C   UNL     1       5.128  14.544  23.444  0.00  0.00     0.009 C 
HETATM   18  C   UNL     1       6.163  14.972  22.627  0.00  0.00    -0.062 C 
HETATM   19  C   UNL     1       7.546  15.130  23.181  0.00  0.00     0.048 C 
HETATM   20  C   UNL     1       5.872  15.262  21.293  0.00  0.00     0.009 C 
HETATM   21  C   UNL     1       4.543  15.241  20.819  0.00  0.00     0.030 C 
ENDBRANCH  12  15
ENDBRANCH   1  11
BRANCH   3  22
HETATM   22  O   UNL     1       0.244  17.888  19.313  0.00  0.00    -0.360 OA
HETATM   23  H   UNL     1       0.677  17.276  18.674  0.00  0.00     0.217 HD
ENDBRANCH   3  22
BRANCH  10  24
HETATM   24  C   UNL     1      -3.852  13.830  22.973  0.00  0.00     0.100 C 
BRANCH  24  25
HETATM   25  C   UNL     1      -2.759  12.761  22.932  0.00  0.00    -0.052 C 
HETATM   26  C   UNL     1      -2.404  12.083  21.757  0.00  0.00     0.007 C 
HETATM   27  C   UNL     1      -1.375  11.139  21.749  0.00  0.00     0.001 C 
HETATM   28  C   UNL     1      -0.758  10.759  22.935  0.00  0.00     0.007 C 
HETATM   29  C   UNL     1      -1.189  11.293  24.151  0.00  0.00    -0.061 C 
HETATM   30  C   UNL     1      -2.151  12.327  24.138  0.00  0.00     0.014 C 
HETATM   31  C   UNL     1      -0.616  10.735  25.426  0.00  0.00     0.048 C 
ENDBRANCH  24  25
ENDBRANCH  10  24
TORSDOF 5
ENDMDL
MODEL 2
REMARK VINA RESULT:    -8.913      2.746      6.098
REMARK INTER + INTRA:         -12.759
REMARK INTER:                 -11.333
REMARK INTRA:                  -1.426
REMARK UNBOUND:                -1.501
REMARK  5 active torsions:
REMARK  status: ('A' for Active; 'I' for Inactive)
REMARK    1  A    between atoms: C_7  and  N_8 
REMARK       I    between atoms: N_8  and  C_10 
REMARK    2  A    between atoms: C_10  and  C_12 
REMARK    3  A    between atoms: C_14  and  O_15 
REMARK    4  A    between atoms: C_22  and  C_23 
REMARK    5  A    between atoms: C_23  and  C_24 
ROOT
HETATM    1  C   UNL     1      -2.754  13.442  21.591  0.00  0.00     0.066 C 
HETATM    2  C   UNL     1      -1.935  14.295  20.818  0.00  0.00     0.035 C 
HETATM    3  C   UNL     1      -4.115  13.796  21.722  0.00  0.00     0.083 C 
HETATM    4  C   UNL     1      -4.630  14.995  21.209  0.00  0.00     0.069 C 
HETATM    5  C   UNL     1      -3.723  15.881  20.621  0.00  0.00     0.065 A 
HETATM    6  C   UNL     1      -2.381  15.583  20.441  0.00  0.00     0.020 A 
HETATM    7  N   UNL     1      -3.878  17.131  20.100  0.00  0.00    -0.277 N 
HETATM    8  H   UNL     1      -4.744  17.659  20.017  0.00  0.00     0.189 HD
HETATM    9  N   UNL     1      -2.738  17.712  19.703  0.00  0.00    -0.178 NA
HETATM   10  C   UNL     1      -1.787  16.786  19.930  0.00  0.00     0.071 A 
ENDROOT
BRANCH   1  11
HETATM   11  C   UNL     1      -2.249  12.193  22.297  0.00  0.00     0.260 C 
HETATM   12  N   UNL     1      -1.408  12.262  23.450  0.00  0.00    -0.318 N 
HETATM   13  C   UNL     1      -0.977  13.556  23.981  0.00  0.00     0.159 C 
HETATM   14  O   UNL     1      -2.710  11.140  21.842  0.00  0.00    -0.267 OA
BRANCH  12  15
HETATM   15  C   UNL     1      -0.798  11.082  24.063  0.00  0.00     0.037 C 
HETATM   16  C   UNL     1       0.262  10.405  23.426  0.00  0.00     0.030 C 
HETATM   17  C   UNL     1       0.734   9.160  23.853  0.00  0.00     0.009 C 
HETATM   18  C   UNL     1       0.186   8.551  24.971  0.00  0.00    -0.062 C 
HETATM   19  C   UNL     1       0.601   7.164  25.354  0.00  0.00     0.048 C 
HETATM   20  C   UNL     1      -0.765   9.260  25.707  0.00  0.00     0.009 C 
HETATM   21  C   UNL     1      -1.248  10.507  25.259  0.00  0.00     0.030 C 
ENDBRANCH  12  15
ENDBRANCH   1  11
BRANCH   3  22
HETATM   22  O   UNL     1      -5.043  12.999  22.352  0.00  0.00    -0.360 OA
HETATM   23  H   UNL     1      -4.657  12.701  23.207  0.00  0.00     0.217 HD
ENDBRANCH   3  22
BRANCH  10  24
HETATM   24  C   UNL     1      -0.342  17.144  19.639  0.00  0.00     0.100 C 
BRANCH  24  25
HETATM   25  C   UNL     1       0.596  16.687  20.757  0.00  0.00    -0.052 C 
HETATM   26  C   UNL     1       0.522  17.191  22.063  0.00  0.00     0.007 C 
HETATM   27  C   UNL     1       1.371  16.723  23.069  0.00  0.00     0.001 C 
HETATM   28  C   UNL     1       2.394  15.831  22.769  0.00  0.00     0.007 C 
HETATM   29  C   UNL     1       2.604  15.424  21.450  0.00  0.00    -0.061 C 
HETATM   30  C   UNL     1       1.674  15.814  20.461  0.00  0.00     0.014 C 
HETATM   31  C   UNL     1       3.820  14.594  21.137  0.00  0.00     0.048 C 
ENDBRANCH  24  25
ENDBRANCH  10  24
TORSDOF 5
ENDMDL
MODEL 3
REMARK VINA RESULT:    -8.841      2.786      4.169
REMARK INTER + INTRA:         -12.668
REMARK INTER:                 -11.550
REMARK INTRA:                  -1.118
REMARK UNBOUND:                -1.501
REMARK  5 active torsions:
REMARK  status: ('A' for Active; 'I' for Inactive)
REMARK    1  A    between atoms: C_7  and  N_8 
REMARK       I    between atoms: N_8  and  C_10 
REMARK    2  A    between atoms: C_10  and  C_12 
REMARK    3  A    between atoms: C_14  and  O_15 
REMARK    4  A    between atoms: C_22  and  C_23 
REMARK    5  A    between atoms: C_23  and  C_24 
ROOT
HETATM    1  C   UNL     1      -1.360  14.212  24.149  0.00  0.00     0.066 C 
HETATM    2  C   UNL     1      -1.554  13.542  25.377  0.00  0.00     0.035 C 
HETATM    3  C   UNL     1      -2.511  14.527  23.394  0.00  0.00     0.083 C 
HETATM    4  C   UNL     1      -3.794  14.106  23.774  0.00  0.00     0.069 C 
HETATM    5  C   UNL     1      -3.890  13.286  24.901  0.00  0.00     0.065 A 
HETATM    6  C   UNL     1      -2.802  12.960  25.696  0.00  0.00     0.020 A 
HETATM    7  N   UNL     1      -4.951  12.661  25.486  0.00  0.00    -0.277 N 
HETATM    8  H   UNL     1      -5.927  12.711  25.199  0.00  0.00     0.189 HD
HETATM    9  N   UNL     1      -4.631  11.870  26.518  0.00  0.00    -0.178 NA
HETATM   10  C   UNL     1      -3.299  12.012  26.654  0.00  0.00     0.071 A 
ENDROOT
BRANCH   1  11
HETATM   11  C   UNL     1       0.006  14.585  23.593  0.00  0.00     0.260 C 
HETATM   12  N   UNL     1       0.844  13.633  22.937  0.00  0.00    -0.318 N 
HETATM   13  C   UNL     1       0.420  12.238  22.798  0.00  0.00     0.159 C 
HETATM   14  O   UNL     1       0.268  15.791  23.678  0.00  0.00    -0.267 OA
BRANCH  12  15
HETATM   15  C   UNL     1       2.213  13.930  22.518  0.00  0.00     0.037 C 
HETATM   16  C   UNL     1       3.244  14.074  23.470  0.00  0.00     0.030 C 
HETATM   17  C   UNL     1       4.512  14.567  23.150  0.00  0.00     0.009 C 
HETATM   18  C   UNL     1       4.820  14.904  21.840  0.00  0.00    -0.062 C 
HETATM   19  C   UNL     1       6.132  15.549  21.516  0.00  0.00     0.048 C 
HETATM   20  C   UNL     1       3.871  14.638  20.852  0.00  0.00     0.009 C 
HETATM   21  C   UNL     1       2.588  14.157  21.187  0.00  0.00     0.030 C 
ENDBRANCH  12  15
ENDBRANCH   1  11
BRANCH   3  22
HETATM   22  O   UNL     1      -2.474  15.272  22.238  0.00  0.00    -0.360 OA
HETATM   23  H   UNL     1      -1.827  14.851  21.627  0.00  0.00     0.217 HD
ENDBRANCH   3  22
BRANCH  10  24
HETATM   24  C   UNL     1      -2.587  11.197  27.718  0.00  0.00     0.100 C 
BRANCH  24  25
HETATM   25  C   UNL     1      -1.646  10.159  27.105  0.00  0.00    -0.052 C 
HETATM   26  C   UNL     1      -1.537   9.953  25.723  0.00  0.00     0.007 C 
HETATM   27  C   UNL     1      -0.639   9.022  25.198  0.00  0.00     0.001 C 
HETATM   28  C   UNL     1       0.084   8.186  26.041  0.00  0.00     0.007 C 
HETATM   29  C   UNL     1      -0.111   8.248  27.423  0.00  0.00    -0.061 C 
HETATM   30  C   UNL     1      -0.936   9.266  27.949  0.00  0.00     0.014 C 
HETATM   31  C   UNL     1       0.559   7.217  28.291  0.00  0.00     0.048 C 
ENDBRANCH  24  25
ENDBRANCH  10  24
TORSDOF 5
ENDMDL
MODEL 4
REMARK VINA RESULT:    -8.706      4.287      6.669
REMARK INTER + INTRA:         -12.498
REMARK INTER:                 -11.478
REMARK INTRA:                  -1.020
REMARK UNBOUND:                -1.501
REMARK  5 active torsions:
REMARK  status: ('A' for Active; 'I' for Inactive)
REMARK    1  A    between atoms: C_7  and  N_8 
REMARK       I    between atoms: N_8  and  C_10 
REMARK    2  A    between atoms: C_10  and  C_12 
REMARK    3  A    between atoms: C_14  and  O_15 
REMARK    4  A    between atoms: C_22  and  C_23 
REMARK    5  A    between atoms: C_23  and  C_24 
ROOT
HETATM    1  C   UNL     1      -1.823  10.679  24.909  0.00  0.00     0.066 C 
HETATM    2  C   UNL     1      -2.353  11.135  23.682  0.00  0.00     0.035 C 
HETATM    3  C   UNL     1      -2.378  11.214  26.093  0.00  0.00     0.083 C 
HETATM    4  C   UNL     1      -3.340  12.234  26.074  0.00  0.00     0.069 C 
HETATM    5  C   UNL     1      -3.681  12.769  24.828  0.00  0.00     0.065 A 
HETATM    6  C   UNL     1      -3.189  12.274  23.631  0.00  0.00     0.020 A 
HETATM    7  N   UNL     1      -4.508  13.792  24.472  0.00  0.00    -0.277 N 
HETATM    8  H   UNL     1      -5.081  14.363  25.090  0.00  0.00     0.189 HD
HETATM    9  N   UNL     1      -4.507  14.077  23.163  0.00  0.00    -0.178 NA
HETATM   10  C   UNL     1      -3.675  13.169  22.619  0.00  0.00     0.071 A 
ENDROOT
BRANCH   1  11
HETATM   11  C   UNL     1      -0.684   9.676  25.021  0.00  0.00     0.260 C 
HETATM   12  N   UNL     1       0.676  10.044  24.790  0.00  0.00    -0.318 N 
HETATM   13  C   UNL     1       1.023  11.415  24.407  0.00  0.00     0.159 C 
HETATM   14  O   UNL     1      -1.039   8.560  25.419  0.00  0.00    -0.267 OA
BRANCH  12  15
HETATM   15  C   UNL     1       1.770   9.074  24.755  0.00  0.00     0.037 C 
HETATM   16  C   UNL     1       2.768   9.075  25.752  0.00  0.00     0.030 C 
HETATM   17  C   UNL     1       3.942   8.323  25.653  0.00  0.00     0.009 C 
HETATM   18  C   UNL     1       4.153   7.497  24.560  0.00  0.00    -0.062 C 
HETATM   19  C   UNL     1       5.462   6.789  24.390  0.00  0.00     0.048 C 
HETATM   20  C   UNL     1       3.122   7.363  23.628  0.00  0.00     0.009 C 
HETATM   21  C   UNL     1       1.948   8.140  23.726  0.00  0.00     0.030 C 
ENDBRANCH  12  15
ENDBRANCH   1  11
BRANCH   3  22
HETATM   22  O   UNL     1      -2.033  10.778  27.351  0.00  0.00    -0.360 OA
HETATM   23  H   UNL     1      -2.620  11.230  28.000  0.00  0.00     0.217 HD
ENDBRANCH   3  22
BRANCH  10  24
HETATM   24  C   UNL     1      -3.397  13.241  21.129  0.00  0.00     0.100 C 
BRANCH  24  25
HETATM   25  C   UNL     1      -3.037  14.659  20.684  0.00  0.00    -0.052 C 
HETATM   26  C   UNL     1      -3.833  15.405  19.803  0.00  0.00     0.007 C 
HETATM   27  C   UNL     1      -3.492  16.711  19.447  0.00  0.00     0.001 C 
HETATM   28  C   UNL     1      -2.286  17.263  19.864  0.00  0.00     0.007 C 
HETATM   29  C   UNL     1      -1.388  16.500  20.614  0.00  0.00    -0.061 C 
HETATM   30  C   UNL     1      -1.790  15.222  21.061  0.00  0.00     0.014 C 
HETATM   31  C   UNL     1      -0.026  17.069  20.903  0.00  0.00     0.048 C 
ENDBRANCH  24  25
ENDBRANCH  10  24
TORSDOF 5
ENDMDL
MODEL 5
REMARK VINA RESULT:    -8.665      2.986      6.210
REMARK INTER + INTRA:         -12.446
REMARK INTER:                 -11.266
REMARK INTRA:                  -1.181
REMARK UNBOUND:                -1.501
REMARK  5 active torsions:
REMARK  status: ('A' for Active; 'I' for Inactive)
REMARK    1  A    between atoms: C_7  and  N_8 
REMARK       I    between atoms: N_8  and  C_10 
REMARK    2  A    between atoms: C_10  and  C_12 
REMARK    3  A    between atoms: C_14  and  O_15 
REMARK    4  A    between atoms: C_22  and  C_23 
REMARK    5  A    between atoms: C_23  and  C_24 
ROOT
HETATM    1  C   UNL     1      -2.860  13.465  21.943  0.00  0.00     0.066 C 
HETATM    2  C   UNL     1      -1.804  14.182  21.337  0.00  0.00     0.035 C 
HETATM    3  C   UNL     1      -4.170  13.958  21.753  0.00  0.00     0.083 C 
HETATM    4  C   UNL     1      -4.426  15.165  21.087  0.00  0.00     0.069 C 
HETATM    5  C   UNL     1      -3.322  15.918  20.678  0.00  0.00     0.065 A 
HETATM    6  C   UNL     1      -2.014  15.479  20.815  0.00  0.00     0.020 A 
HETATM    7  N   UNL     1      -3.221  17.139  20.082  0.00  0.00    -0.277 N 
HETATM    8  H   UNL     1      -3.986  17.743  19.786  0.00  0.00     0.189 HD
HETATM    9  N   UNL     1      -1.967  17.580  19.926  0.00  0.00    -0.178 NA
HETATM   10  C   UNL     1      -1.195  16.583  20.398  0.00  0.00     0.071 A 
ENDROOT
BRANCH   1  11
HETATM   11  C   UNL     1      -2.660  12.222  22.797  0.00  0.00     0.260 C 
HETATM   12  N   UNL     1      -2.283  12.300  24.173  0.00  0.00    -0.318 N 
HETATM   13  C   UNL     1      -2.048  13.598  24.808  0.00  0.00     0.159 C 
HETATM   14  O   UNL     1      -2.947  11.167  22.219  0.00  0.00    -0.267 OA
BRANCH  12  15
HETATM   15  C   UNL     1      -1.952  11.124  24.976  0.00  0.00     0.037 C 
HETATM   16  C   UNL     1      -2.408  11.006  26.305  0.00  0.00     0.030 C 
HETATM   17  C   UNL     1      -1.947  10.020  27.183  0.00  0.00     0.009 C 
HETATM   18  C   UNL     1      -1.030   9.075  26.751  0.00  0.00    -0.062 C 
HETATM   19  C   UNL     1      -0.441   8.098  27.722  0.00  0.00     0.048 C 
HETATM   20  C   UNL     1      -0.668   9.076  25.404  0.00  0.00     0.009 C 
HETATM   21  C   UNL     1      -1.123  10.086  24.530  0.00  0.00     0.030 C 
ENDBRANCH  12  15
ENDBRANCH   1  11
BRANCH   3  22
HETATM   22  O   UNL     1      -5.294  13.299  22.193  0.00  0.00    -0.360 OA
HETATM   23  H   UNL     1      -5.002  12.532  22.738  0.00  0.00     0.217 HD
ENDBRANCH   3  22
BRANCH  10  24
HETATM   24  C   UNL     1       0.309  16.778  20.421  0.00  0.00     0.100 C 
BRANCH  24  25
HETATM   25  C   UNL     1       0.975  15.950  21.521  0.00  0.00    -0.052 C 
HETATM   26  C   UNL     1       1.780  14.834  21.250  0.00  0.00     0.007 C 
HETATM   27  C   UNL     1       2.403  14.123  22.278  0.00  0.00     0.001 C 
HETATM   28  C   UNL     1       2.141  14.433  23.608  0.00  0.00     0.007 C 
HETATM   29  C   UNL     1       1.222  15.436  23.926  0.00  0.00    -0.061 C 
HETATM   30  C   UNL     1       0.684  16.221  22.883  0.00  0.00     0.014 C 
HETATM   31  C   UNL     1       0.837  15.629  25.368  0.00  0.00     0.048 C 
ENDBRANCH  24  25
ENDBRANCH  10  24
TORSDOF 5
ENDMDL
MODEL 6
REMARK VINA RESULT:    -8.494      2.401      4.636
REMARK INTER + INTRA:         -12.230
REMARK INTER:                 -11.657
REMARK INTRA:                  -0.574
REMARK UNBOUND:                -1.501
REMARK  5 active torsions:
REMARK  status: ('A' for Active; 'I' for Inactive)
REMARK    1  A    between atoms: C_7  and  N_8 
REMARK       I    between atoms: N_8  and  C_10 
REMARK    2  A    between atoms: C_10  and  C_12 
REMARK    3  A    between atoms: C_14  and  O_15 
REMARK    4  A    between atoms: C_22  and  C_23 
REMARK    5  A    between atoms: C_23  and  C_24 
ROOT
HETATM    1  C   UNL     1       0.076  12.333  23.246  0.00  0.00     0.066 C 
HETATM    2  C   UNL     1      -1.122  13.005  22.916  0.00  0.00     0.035 C 
HETATM    3  C   UNL     1      -0.019  10.963  23.576  0.00  0.00     0.083 C 
HETATM    4  C   UNL     1      -1.252  10.304  23.684  0.00  0.00     0.069 C 
HETATM    5  C   UNL     1      -2.407  11.076  23.528  0.00  0.00     0.065 A 
HETATM    6  C   UNL     1      -2.380  12.418  23.182  0.00  0.00     0.020 A 
HETATM    7  N   UNL     1      -3.730  10.768  23.638  0.00  0.00    -0.277 N 
HETATM    8  H   UNL     1      -4.134   9.855  23.838  0.00  0.00     0.189 HD
HETATM    9  N   UNL     1      -4.556  11.814  23.507  0.00  0.00    -0.178 NA
HETATM   10  C   UNL     1      -3.745  12.858  23.252  0.00  0.00     0.071 A 
ENDROOT
BRANCH   1  11
HETATM   11  C   UNL     1       1.441  13.005  23.288  0.00  0.00     0.260 C 
HETATM   12  N   UNL     1       2.031  13.595  22.128  0.00  0.00    -0.318 N 
HETATM   13  C   UNL     1       1.343  13.549  20.837  0.00  0.00     0.159 C 
HETATM   14  O   UNL     1       1.930  13.073  24.421  0.00  0.00    -0.267 OA
BRANCH  12  15
HETATM   15  C   UNL     1       3.395  14.123  22.109  0.00  0.00     0.037 C 
HETATM   16  C   UNL     1       4.114  14.308  23.308  0.00  0.00     0.030 C 
HETATM   17  C   UNL     1       5.324  15.004  23.369  0.00  0.00     0.009 C 
HETATM   18  C   UNL     1       5.895  15.516  22.214  0.00  0.00    -0.062 C 
HETATM   19  C   UNL     1       7.123  16.369  22.293  0.00  0.00     0.048 C 
HETATM   20  C   UNL     1       5.283  15.226  20.994  0.00  0.00     0.009 C 
HETATM   21  C   UNL     1       4.051  14.539  20.944  0.00  0.00     0.030 C 
ENDBRANCH  12  15
ENDBRANCH   1  11
BRANCH   3  22
HETATM   22  O   UNL     1       1.077  10.166  23.809  0.00  0.00    -0.360 OA
HETATM   23  H   UNL     1       1.023   9.392  23.202  0.00  0.00     0.217 HD
ENDBRANCH   3  22
BRANCH  10  24
HETATM   24  C   UNL     1      -4.361  14.235  23.100  0.00  0.00     0.100 C 
BRANCH  24  25
HETATM   25  C   UNL     1      -4.125  14.816  21.704  0.00  0.00    -0.052 C 
HETATM   26  C   UNL     1      -4.762  14.320  20.558  0.00  0.00     0.007 C 
HETATM   27  C   UNL     1      -4.550  14.899  19.305  0.00  0.00     0.001 C 
HETATM   28  C   UNL     1      -3.607  15.906  19.144  0.00  0.00     0.007 C 
HETATM   29  C   UNL     1      -2.835  16.323  20.231  0.00  0.00    -0.061 C 
HETATM   30  C   UNL     1      -3.133  15.811  21.513  0.00  0.00     0.014 C 
HETATM   31  C   UNL     1      -1.709  17.292  19.986  0.00  0.00     0.048 C 
ENDBRANCH  24  25
ENDBRANCH  10  24
TORSDOF 5
ENDMDL
MODEL 7
REMARK VINA RESULT:    -8.205      2.844      6.270
REMARK INTER + INTRA:         -11.865
REMARK INTER:                 -10.527
REMARK INTRA:                  -1.337
REMARK UNBOUND:                -1.501
REMARK  5 active torsions:
REMARK  status: ('A' for Active; 'I' for Inactive)
REMARK    1  A    between atoms: C_7  and  N_8 
REMARK       I    between atoms: N_8  and  C_10 
REMARK    2  A    between atoms: C_10  and  C_12 
REMARK    3  A    between atoms: C_14  and  O_15 
REMARK    4  A    between atoms: C_22  and  C_23 
REMARK    5  A    between atoms: C_23  and  C_24 
ROOT
HETATM    1  C   UNL     1      -1.111  12.499  22.157  0.00  0.00     0.066 C 
HETATM    2  C   UNL     1      -0.454  13.736  21.967  0.00  0.00     0.035 C 
HETATM    3  C   UNL     1      -2.357  12.324  21.517  0.00  0.00     0.083 C 
HETATM    4  C   UNL     1      -2.987  13.358  20.809  0.00  0.00     0.069 C 
HETATM    5  C   UNL     1      -2.369  14.611  20.820  0.00  0.00     0.065 A 
HETATM    6  C   UNL     1      -1.136  14.842  21.410  0.00  0.00     0.020 A 
HETATM    7  N   UNL     1      -2.742  15.816  20.304  0.00  0.00    -0.277 N 
HETATM    8  H   UNL     1      -3.577  16.018  19.758  0.00  0.00     0.189 HD
HETATM    9  N   UNL     1      -1.918  16.828  20.604  0.00  0.00    -0.178 NA
HETATM   10  C   UNL     1      -0.926  16.259  21.315  0.00  0.00     0.071 A 
ENDROOT
BRANCH   1  11
HETATM   11  C   UNL     1      -0.565  11.373  23.021  0.00  0.00     0.260 C 
HETATM   12  N   UNL     1      -0.659  11.397  24.446  0.00  0.00    -0.318 N 
HETATM   13  C   UNL     1      -1.270  12.537  25.133  0.00  0.00     0.159 C 
HETATM   14  O   UNL     1      -0.131  10.412  22.375  0.00  0.00    -0.267 OA
BRANCH  12  15
HETATM   15  C   UNL     1      -0.022  10.398  25.304  0.00  0.00     0.037 C 
HETATM   16  C   UNL     1      -0.784   9.644  26.220  0.00  0.00     0.030 C 
HETATM   17  C   UNL     1      -0.207   8.840  27.208  0.00  0.00     0.009 C 
HETATM   18  C   UNL     1       1.172   8.723  27.297  0.00  0.00    -0.062 C 
HETATM   19  C   UNL     1       1.793   7.965  28.429  0.00  0.00     0.048 C 
HETATM   20  C   UNL     1       1.949   9.342  26.316  0.00  0.00     0.009 C 
HETATM   21  C   UNL     1       1.359  10.166  25.335  0.00  0.00     0.030 C 
ENDBRANCH  12  15
ENDBRANCH   1  11
BRANCH   3  22
HETATM   22  O   UNL     1      -3.049  11.135  21.527  0.00  0.00    -0.360 OA
HETATM   23  H   UNL     1      -2.800  10.647  22.346  0.00  0.00     0.217 HD
ENDBRANCH   3  22
BRANCH  10  24
HETATM   24  C   UNL     1       0.171  17.148  21.870  0.00  0.00     0.100 C 
BRANCH  24  25
HETATM   25  C   UNL     1       1.564  16.628  21.509  0.00  0.00    -0.052 C 
HETATM   26  C   UNL     1       2.080  16.679  20.207  0.00  0.00     0.007 C 
HETATM   27  C   UNL     1       3.371  16.229  19.921  0.00  0.00     0.001 C 
HETATM   28  C   UNL     1       4.133  15.606  20.901  0.00  0.00     0.007 C 
HETATM   29  C   UNL     1       3.597  15.391  22.174  0.00  0.00    -0.061 C 
HETATM   30  C   UNL     1       2.337  15.947  22.485  0.00  0.00     0.014 C 
HETATM   31  C   UNL     1       4.383  14.565  23.156  0.00  0.00     0.048 C 
ENDBRANCH  24  25
ENDBRANCH  10  24
TORSDOF 5
ENDMDL
MODEL 8
REMARK VINA RESULT:    -8.040      4.757      7.158
REMARK INTER + INTRA:         -11.657
REMARK INTER:                 -10.706
REMARK INTRA:                  -0.950
REMARK UNBOUND:                -1.501
REMARK  5 active torsions:
REMARK  status: ('A' for Active; 'I' for Inactive)
REMARK    1  A    between atoms: C_7  and  N_8 
REMARK       I    between atoms: N_8  and  C_10 
REMARK    2  A    between atoms: C_10  and  C_12 
REMARK    3  A    between atoms: C_14  and  O_15 
REMARK    4  A    between atoms: C_22  and  C_23 
REMARK    5  A    between atoms: C_23  and  C_24 
ROOT
HETATM    1  C   UNL     1      -1.260   9.799  25.539  0.00  0.00     0.066 C 
HETATM    2  C   UNL     1      -1.945  10.492  24.517  0.00  0.00     0.035 C 
HETATM    3  C   UNL     1      -1.681  10.023  26.868  0.00  0.00     0.083 C 
HETATM    4  C   UNL     1      -2.661  10.973  27.192  0.00  0.00     0.069 C 
HETATM    5  C   UNL     1      -3.162  11.757  26.150  0.00  0.00     0.065 A 
HETATM    6  C   UNL     1      -2.807  11.570  24.823  0.00  0.00     0.020 A 
HETATM    7  N   UNL     1      -4.050  12.791  26.134  0.00  0.00    -0.277 N 
HETATM    8  H   UNL     1      -4.557  13.178  26.928  0.00  0.00     0.189 HD
HETATM    9  N   UNL     1      -4.214  13.364  24.934  0.00  0.00    -0.178 NA
HETATM   10  C   UNL     1      -3.432  12.645  24.106  0.00  0.00     0.071 A 
ENDROOT
BRANCH   1  11
HETATM   11  C   UNL     1      -0.094   8.854  25.288  0.00  0.00     0.260 C 
HETATM   12  N   UNL     1       1.228   9.332  25.038  0.00  0.00    -0.318 N 
HETATM   13  C   UNL     1       1.504  10.769  24.989  0.00  0.00     0.159 C 
HETATM   14  O   UNL     1      -0.383   7.659  25.417  0.00  0.00    -0.267 OA
BRANCH  12  15
HETATM   15  C   UNL     1       2.335   8.454  24.659  0.00  0.00     0.037 C 
HETATM   16  C   UNL     1       3.440   8.275  25.516  0.00  0.00     0.030 C 
HETATM   17  C   UNL     1       4.614   7.629  25.118  0.00  0.00     0.009 C 
HETATM   18  C   UNL     1       4.719   7.092  23.844  0.00  0.00    -0.062 C 
HETATM   19  C   UNL     1       6.017   6.511  23.374  0.00  0.00     0.048 C 
HETATM   20  C   UNL     1       3.591   7.125  23.021  0.00  0.00     0.009 C 
HETATM   21  C   UNL     1       2.417   7.796  23.425  0.00  0.00     0.030 C 
ENDBRANCH  12  15
ENDBRANCH   1  11
BRANCH   3  22
HETATM   22  O   UNL     1      -1.176   9.333  27.945  0.00  0.00    -0.360 OA
HETATM   23  H   UNL     1      -1.661   9.630  28.749  0.00  0.00     0.217 HD
ENDBRANCH   3  22
BRANCH  10  24
HETATM   24  C   UNL     1      -3.339  13.066  22.651  0.00  0.00     0.100 C 
BRANCH  24  25
HETATM   25  C   UNL     1      -2.451  14.298  22.469  0.00  0.00    -0.052 C 
HETATM   26  C   UNL     1      -1.621  14.793  23.485  0.00  0.00     0.007 C 
HETATM   27  C   UNL     1      -0.796  15.900  23.272  0.00  0.00     0.001 C 
HETATM   28  C   UNL     1      -0.868  16.613  22.081  0.00  0.00     0.007 C 
HETATM   29  C   UNL     1      -1.795  16.249  21.102  0.00  0.00    -0.061 C 
HETATM   30  C   UNL     1      -2.545  15.066  21.280  0.00  0.00     0.014 C 
HETATM   31  C   UNL     1      -1.962  17.142  19.902  0.00  0.00     0.048 C 
ENDBRANCH  24  25
ENDBRANCH  10  24
TORSDOF 5
ENDMDL
MODEL 9
REMARK VINA RESULT:    -7.867      4.693      6.948
REMARK INTER + INTRA:         -11.438
REMARK INTER:                  -9.936
REMARK INTRA:                  -1.501
REMARK UNBOUND:                -1.501
REMARK  5 active torsions:
REMARK  status: ('A' for Active; 'I' for Inactive)
REMARK    1  A    between atoms: C_7  and  N_8 
REMARK       I    between atoms: N_8  and  C_10 
REMARK    2  A    between atoms: C_10  and  C_12 
REMARK    3  A    between atoms: C_14  and  O_15 
REMARK    4  A    between atoms: C_22  and  C_23 
REMARK    5  A    between atoms: C_23  and  C_24 
ROOT
HETATM    1  C   UNL     1      -1.132   9.628  25.813  0.00  0.00     0.066 C 
HETATM    2  C   UNL     1      -1.918  10.255  24.821  0.00  0.00     0.035 C 
HETATM    3  C   UNL     1      -1.451   9.903  27.161  0.00  0.00     0.083 C 
HETATM    4  C   UNL     1      -2.430  10.840  27.522  0.00  0.00     0.069 C 
HETATM    5  C   UNL     1      -3.037  11.562  26.491  0.00  0.00     0.065 A 
HETATM    6  C   UNL     1      -2.784  11.323  25.149  0.00  0.00     0.020 A 
HETATM    7  N   UNL     1      -3.954  12.570  26.502  0.00  0.00    -0.277 N 
HETATM    8  H   UNL     1      -4.407  12.980  27.317  0.00  0.00     0.189 HD
HETATM    9  N   UNL     1      -4.231  13.082  25.296  0.00  0.00    -0.178 NA
HETATM   10  C   UNL     1      -3.498  12.347  24.438  0.00  0.00     0.071 A 
ENDROOT
BRANCH   1  11
HETATM   11  C   UNL     1       0.038   8.705  25.509  0.00  0.00     0.260 C 
HETATM   12  N   UNL     1       1.333   9.206  25.175  0.00  0.00    -0.318 N 
HETATM   13  C   UNL     1       1.573  10.648  25.086  0.00  0.00     0.159 C 
HETATM   14  O   UNL     1      -0.216   7.506  25.675  0.00  0.00    -0.267 OA
BRANCH  12  15
HETATM   15  C   UNL     1       2.434   8.345  24.745  0.00  0.00     0.037 C 
HETATM   16  C   UNL     1       3.543   8.118  25.587  0.00  0.00     0.030 C 
HETATM   17  C   UNL     1       4.713   7.489  25.150  0.00  0.00     0.009 C 
HETATM   18  C   UNL     1       4.809   7.019  23.850  0.00  0.00    -0.062 C 
HETATM   19  C   UNL     1       6.103   6.459  23.344  0.00  0.00     0.048 C 
HETATM   20  C   UNL     1       3.679   7.098  23.036  0.00  0.00     0.009 C 
HETATM   21  C   UNL     1       2.509   7.751  23.479  0.00  0.00     0.030 C 
ENDBRANCH  12  15
ENDBRANCH   1  11
BRANCH   3  22
HETATM   22  O   UNL     1      -0.840   9.277  28.223  0.00  0.00    -0.360 OA
HETATM   23  H   UNL     1      -1.514   9.155  28.930  0.00  0.00     0.217 HD
ENDBRANCH   3  22
BRANCH  10  24
HETATM   24  C   UNL     1      -3.534  12.702  22.964  0.00  0.00     0.100 C 
BRANCH  24  25
HETATM   25  C   UNL     1      -2.160  12.558  22.308  0.00  0.00    -0.052 C 
HETATM   26  C   UNL     1      -1.906  11.657  21.264  0.00  0.00     0.007 C 
HETATM   27  C   UNL     1      -0.648  11.579  20.664  0.00  0.00     0.001 C 
HETATM   28  C   UNL     1       0.421  12.309  21.170  0.00  0.00     0.007 C 
HETATM   29  C   UNL     1       0.252  13.100  22.309  0.00  0.00    -0.061 C 
HETATM   30  C   UNL     1      -1.047  13.259  22.841  0.00  0.00     0.014 C 
HETATM   31  C   UNL     1       1.465  13.740  22.928  0.00  0.00     0.048 C 
ENDBRANCH  24  25
ENDBRANCH  10  24
TORSDOF 5
ENDMDL
