MODEL 1
REMARK VINA RESULT:    -8.352      0.000      0.000
REMARK INTER + INTRA:          -9.525
REMARK INTER:                  -9.028
REMARK INTRA:                  -0.497
REMARK UNBOUND:                -0.440
REMARK  2 active torsions:
REMARK  status: ('A' for Active; 'I' for Inactive)
REMARK    1  A    between atoms: C_7  and  N_8 
REMARK    2  A    between atoms: C_10  and  C_11 
REMARK       I    between atoms: C_11  and  N_13 
ROOT
HETATM    1  C   UNL     1       1.331   7.292  27.640  0.00  0.00     0.048 C 
HETATM    2  C   UNL     1       0.008   7.944  27.913  0.00  0.00    -0.061 A 
HETATM    3  C   UNL     1      -0.851   7.466  28.895  0.00  0.00     0.009 A 
HETATM    4  C   UNL     1      -2.067   8.115  29.132  0.00  0.00     0.033 A 
HETATM    5  C   UNL     1      -2.465   9.237  28.412  0.00  0.00     0.073 A 
HETATM    6  N   UNL     1      -3.638   9.799  28.718  0.00  0.00    -0.218 NA
HETATM    7  C   UNL     1      -4.020  10.878  28.035  0.00  0.00     0.200 A 
HETATM    8  N   UNL     1      -3.345  11.427  27.032  0.00  0.00    -0.212 NA
HETATM    9  C   UNL     1      -2.165  10.841  26.723  0.00  0.00     0.140 A 
HETATM   10  C   UNL     1      -1.633   9.724  27.404  0.00  0.00     0.028 A 
HETATM   11  C   UNL     1      -0.382   9.072  27.182  0.00  0.00     0.023 A 
ENDROOT
BRANCH   9  12
HETATM   12  C   UNL     1      -1.472  11.378  25.501  0.00  0.00     0.274 C 
HETATM   13  O   UNL     1      -1.814  10.961  24.390  0.00  0.00    -0.266 OA
HETATM   14  N   UNL     1      -0.464  12.327  25.586  0.00  0.00    -0.338 N 
HETATM   15  C   UNL     1       0.087  13.022  26.759  0.00  0.00     0.165 A 
HETATM   16  C   UNL     1       0.202  12.715  24.349  0.00  0.00     0.165 A 
HETATM   17  C   UNL     1       1.177  13.880  26.171  0.00  0.00    -0.032 A 
HETATM   18  C   UNL     1       2.042  14.767  26.793  0.00  0.00     0.011 A 
HETATM   19  C   UNL     1       1.239  13.691  24.784  0.00  0.00    -0.031 A 
HETATM   20  C   UNL     1       2.976  15.453  26.005  0.00  0.00     0.019 A 
HETATM   21  C   UNL     1       3.033  15.243  24.618  0.00  0.00     0.011 A 
HETATM   22 BR   UNL     1       4.309  16.173  23.575  0.00  0.00    -0.051 Br
HETATM   23  C   UNL     1       2.159  14.358  23.992  0.00  0.00     0.028 A 
ENDBRANCH   9  12
BRANCH   7  24
HETATM   24  N   UNL     1      -5.233  11.431  28.383  0.00  0.00    -0.271 NA
HETATM   25  H   UNL     1      -5.890  11.301  27.626  0.00  0.00     0.127 HD
HETATM   26  H   UNL     1      -5.105  12.376  28.718  0.00  0.00     0.127 HD
ENDBRANCH   7  24
TORSDOF 2
ENDMDL
MODEL 2
REMARK VINA RESULT:    -8.002      6.270     10.436
REMARK INTER + INTRA:          -9.145
REMARK INTER:                  -8.658
REMARK INTRA:                  -0.486
REMARK UNBOUND:                -0.440
REMARK  2 active torsions:
REMARK  status: ('A' for Active; 'I' for Inactive)
REMARK    1  A    between atoms: C_7  and  N_8 
REMARK    2  A    between atoms: C_10  and  C_11 
REMARK       I    between atoms: C_11  and  N_13 
ROOT
HETATM    1  C   UNL     1       9.795  14.882  26.602  0.00  0.00     0.048 C 
HETATM    2  C   UNL     1       9.610  15.029  25.122  0.00  0.00    -0.061 A 
HETATM    3  C   UNL     1      10.285  16.002  24.396  0.00  0.00     0.009 A 
HETATM    4  C   UNL     1      10.100  16.093  23.013  0.00  0.00     0.033 A 
HETATM    5  C   UNL     1       9.249  15.239  22.318  0.00  0.00     0.073 A 
HETATM    6  N   UNL     1       9.147  15.392  20.994  0.00  0.00    -0.218 NA
HETATM    7  C   UNL     1       8.339  14.571  20.324  0.00  0.00     0.200 A 
HETATM    8  N   UNL     1       7.582  13.627  20.871  0.00  0.00    -0.212 NA
HETATM    9  C   UNL     1       7.685  13.491  22.213  0.00  0.00     0.140 A 
HETATM   10  C   UNL     1       8.541  14.268  23.025  0.00  0.00     0.028 A 
HETATM   11  C   UNL     1       8.751  14.164  24.433  0.00  0.00     0.023 A 
ENDROOT
BRANCH   9  12
HETATM   12  C   UNL     1       6.727  12.518  22.844  0.00  0.00     0.274 C 
HETATM   13  O   UNL     1       7.100  11.359  23.044  0.00  0.00    -0.266 OA
HETATM   14  N   UNL     1       5.441  12.888  23.210  0.00  0.00    -0.338 N 
HETATM   15  C   UNL     1       4.774  14.196  23.138  0.00  0.00     0.165 A 
HETATM   16  C   UNL     1       4.564  11.847  23.732  0.00  0.00     0.165 A 
HETATM   17  C   UNL     1       3.385  13.904  23.645  0.00  0.00    -0.032 A 
HETATM   18  C   UNL     1       2.305  14.755  23.815  0.00  0.00     0.011 A 
HETATM   19  C   UNL     1       3.274  12.548  23.978  0.00  0.00    -0.031 A 
HETATM   20  C   UNL     1       1.107  14.224  24.314  0.00  0.00     0.019 A 
HETATM   21  C   UNL     1       1.008  12.860  24.632  0.00  0.00     0.011 A 
HETATM   22 BR   UNL     1      -0.622  12.162  25.294  0.00  0.00    -0.051 Br
HETATM   23  C   UNL     1       2.096  12.007  24.468  0.00  0.00     0.028 A 
ENDBRANCH   9  12
BRANCH   7  24
HETATM   24  N   UNL     1       8.262  14.757  18.961  0.00  0.00    -0.271 NA
HETATM   25  H   UNL     1       8.599  13.929  18.490  0.00  0.00     0.127 HD
HETATM   26  H   UNL     1       8.691  15.636  18.701  0.00  0.00     0.127 HD
ENDBRANCH   7  24
TORSDOF 2
ENDMDL
MODEL 3
REMARK VINA RESULT:    -7.935      3.296      6.874
REMARK INTER + INTRA:          -9.071
REMARK INTER:                  -8.630
REMARK INTRA:                  -0.442
REMARK UNBOUND:                -0.440
REMARK  2 active torsions:
REMARK  status: ('A' for Active; 'I' for Inactive)
REMARK    1  A    between atoms: C_7  and  N_8 
REMARK    2  A    between atoms: C_10  and  C_11 
REMARK       I    between atoms: C_11  and  N_13 
ROOT
HETATM    1  C   UNL     1       2.631  14.137  26.418  0.00  0.00     0.048 C 
HETATM    2  C   UNL     1       1.650  13.854  25.320  0.00  0.00    -0.061 A 
HETATM    3  C   UNL     1       1.787  14.416  24.058  0.00  0.00     0.009 A 
HETATM    4  C   UNL     1       0.862  14.111  23.055  0.00  0.00     0.033 A 
HETATM    5  C   UNL     1      -0.214  13.255  23.270  0.00  0.00     0.073 A 
HETATM    6  N   UNL     1      -1.040  13.009  22.248  0.00  0.00    -0.218 NA
HETATM    7  C   UNL     1      -2.067  12.185  22.448  0.00  0.00     0.200 A 
HETATM    8  N   UNL     1      -2.372  11.609  23.605  0.00  0.00    -0.212 NA
HETATM    9  C   UNL     1      -1.536  11.876  24.636  0.00  0.00     0.140 A 
HETATM   10  C   UNL     1      -0.389  12.694  24.535  0.00  0.00     0.028 A 
HETATM   11  C   UNL     1       0.571  12.991  25.549  0.00  0.00     0.023 A 
ENDROOT
BRANCH   9  12
HETATM   12  C   UNL     1      -1.961  11.336  25.974  0.00  0.00     0.274 C 
HETATM   13  O   UNL     1      -2.911  11.867  26.556  0.00  0.00    -0.266 OA
HETATM   14  N   UNL     1      -1.318  10.260  26.569  0.00  0.00    -0.338 N 
HETATM   15  C   UNL     1      -0.215   9.422  26.075  0.00  0.00     0.165 A 
HETATM   16  C   UNL     1      -1.752   9.873  27.906  0.00  0.00     0.165 A 
HETATM   17  C   UNL     1       0.034   8.472  27.216  0.00  0.00    -0.032 A 
HETATM   18  C   UNL     1       0.954   7.441  27.328  0.00  0.00     0.011 A 
HETATM   19  C   UNL     1      -0.851   8.743  28.267  0.00  0.00    -0.031 A 
HETATM   20  C   UNL     1       0.979   6.693  28.513  0.00  0.00     0.019 A 
HETATM   21  C   UNL     1       0.093   6.986  29.562  0.00  0.00     0.011 A 
HETATM   22 BR   UNL     1       0.152   5.970  31.158  0.00  0.00    -0.051 Br
HETATM   23  C   UNL     1      -0.835   8.017  29.447  0.00  0.00     0.028 A 
ENDBRANCH   9  12
BRANCH   7  24
HETATM   24  N   UNL     1      -2.892  11.954  21.369  0.00  0.00    -0.271 NA
HETATM   25  H   UNL     1      -3.852  12.118  21.641  0.00  0.00     0.127 HD
HETATM   26  H   UNL     1      -2.683  11.057  20.953  0.00  0.00     0.127 HD
ENDBRANCH   7  24
TORSDOF 2
ENDMDL
MODEL 4
REMARK VINA RESULT:    -7.898      7.869     11.338
REMARK INTER + INTRA:          -9.031
REMARK INTER:                  -8.547
REMARK INTRA:                  -0.483
REMARK UNBOUND:                -0.440
REMARK  2 active torsions:
REMARK  status: ('A' for Active; 'I' for Inactive)
REMARK    1  A    between atoms: C_7  and  N_8 
REMARK    2  A    between atoms: C_10  and  C_11 
REMARK       I    between atoms: C_11  and  N_13 
ROOT
HETATM    1  C   UNL     1       9.001   9.493  22.473  0.00  0.00     0.048 C 
HETATM    2  C   UNL     1       9.471  10.777  21.859  0.00  0.00    -0.061 A 
HETATM    3  C   UNL     1      10.170  10.797  20.658  0.00  0.00     0.009 A 
HETATM    4  C   UNL     1      10.574  12.018  20.108  0.00  0.00     0.033 A 
HETATM    5  C   UNL     1      10.306  13.237  20.723  0.00  0.00     0.073 A 
HETATM    6  N   UNL     1      10.718  14.354  20.115  0.00  0.00    -0.218 NA
HETATM    7  C   UNL     1      10.457  15.523  20.698  0.00  0.00     0.200 A 
HETATM    8  N   UNL     1       9.850  15.677  21.869  0.00  0.00    -0.212 NA
HETATM    9  C   UNL     1       9.449  14.538  22.480  0.00  0.00     0.140 A 
HETATM   10  C   UNL     1       9.626  13.244  21.940  0.00  0.00     0.028 A 
HETATM   11  C   UNL     1       9.196  11.998  22.486  0.00  0.00     0.023 A 
ENDROOT
BRANCH   9  12
HETATM   12  C   UNL     1       8.889  14.705  23.866  0.00  0.00     0.274 C 
HETATM   13  O   UNL     1       9.658  14.654  24.830  0.00  0.00    -0.266 OA
HETATM   14  N   UNL     1       7.536  14.919  24.090  0.00  0.00    -0.338 N 
HETATM   15  C   UNL     1       6.430  15.078  23.134  0.00  0.00     0.165 A 
HETATM   16  C   UNL     1       7.085  14.980  25.475  0.00  0.00     0.165 A 
HETATM   17  C   UNL     1       5.225  15.232  24.025  0.00  0.00    -0.032 A 
HETATM   18  C   UNL     1       3.893  15.424  23.690  0.00  0.00     0.011 A 
HETATM   19  C   UNL     1       5.612  15.167  25.369  0.00  0.00    -0.031 A 
HETATM   20  C   UNL     1       2.955  15.541  24.725  0.00  0.00     0.019 A 
HETATM   21  C   UNL     1       3.357  15.463  26.068  0.00  0.00     0.011 A 
HETATM   22 BR   UNL     1       2.071  15.613  27.448  0.00  0.00    -0.051 Br
HETATM   23  C   UNL     1       4.696  15.276  26.403  0.00  0.00     0.028 A 
ENDBRANCH   9  12
BRANCH   7  24
HETATM   24  N   UNL     1      10.894  16.652  20.039  0.00  0.00    -0.271 NA
HETATM   25  H   UNL     1      10.128  17.053  19.516  0.00  0.00     0.127 HD
HETATM   26  H   UNL     1      11.742  16.453  19.526  0.00  0.00     0.127 HD
ENDBRANCH   7  24
TORSDOF 2
ENDMDL
MODEL 5
REMARK VINA RESULT:    -7.861      5.949     10.007
REMARK INTER + INTRA:          -8.991
REMARK INTER:                  -8.498
REMARK INTRA:                  -0.493
REMARK UNBOUND:                -0.440
REMARK  2 active torsions:
REMARK  status: ('A' for Active; 'I' for Inactive)
REMARK    1  A    between atoms: C_7  and  N_8 
REMARK    2  A    between atoms: C_10  and  C_11 
REMARK       I    between atoms: C_11  and  N_13 
ROOT
HETATM    1  C   UNL     1       8.295  14.413  19.941  0.00  0.00     0.048 C 
HETATM    2  C   UNL     1       8.629  14.704  21.374  0.00  0.00    -0.061 A 
HETATM    3  C   UNL     1       9.677  15.548  21.720  0.00  0.00     0.009 A 
HETATM    4  C   UNL     1       9.943  15.810  23.067  0.00  0.00     0.033 A 
HETATM    5  C   UNL     1       9.195  15.249  24.097  0.00  0.00     0.073 A 
HETATM    6  N   UNL     1       9.514  15.569  25.355  0.00  0.00    -0.218 NA
HETATM    7  C   UNL     1       8.795  15.039  26.344  0.00  0.00     0.200 A 
HETATM    8  N   UNL     1       7.799  14.174  26.188  0.00  0.00    -0.212 NA
HETATM    9  C   UNL     1       7.494  13.849  24.910  0.00  0.00     0.140 A 
HETATM   10  C   UNL     1       8.152  14.380  23.779  0.00  0.00     0.028 A 
HETATM   11  C   UNL     1       7.869  14.134  22.401  0.00  0.00     0.023 A 
ENDROOT
BRANCH   9  12
HETATM   12  C   UNL     1       6.463  12.766  24.743  0.00  0.00     0.274 C 
HETATM   13  O   UNL     1       6.824  11.587  24.787  0.00  0.00    -0.266 OA
HETATM   14  N   UNL     1       5.120  13.057  24.544  0.00  0.00    -0.338 N 
HETATM   15  C   UNL     1       4.425  14.352  24.509  0.00  0.00     0.165 A 
HETATM   16  C   UNL     1       4.218  11.937  24.306  0.00  0.00     0.165 A 
HETATM   17  C   UNL     1       2.999  13.969  24.211  0.00  0.00    -0.032 A 
HETATM   18  C   UNL     1       1.877  14.771  24.068  0.00  0.00     0.011 A 
HETATM   19  C   UNL     1       2.892  12.578  24.090  0.00  0.00    -0.031 A 
HETATM   20  C   UNL     1       0.648  14.156  23.791  0.00  0.00     0.019 A 
HETATM   21  C   UNL     1       0.560  12.761  23.661  0.00  0.00     0.011 A 
HETATM   22 BR   UNL     1      -1.108  11.953  23.276  0.00  0.00    -0.051 Br
HETATM   23  C   UNL     1       1.686  11.956  23.811  0.00  0.00     0.028 A 
ENDBRANCH   9  12
BRANCH   7  24
HETATM   24  N   UNL     1       9.152  15.395  27.626  0.00  0.00    -0.271 NA
HETATM   25  H   UNL     1      10.158  15.372  27.713  0.00  0.00     0.127 HD
HETATM   26  H   UNL     1       8.623  14.857  28.300  0.00  0.00     0.127 HD
ENDBRANCH   7  24
TORSDOF 2
ENDMDL
MODEL 6
REMARK VINA RESULT:    -7.828      7.021     10.879
REMARK INTER + INTRA:          -8.955
REMARK INTER:                  -8.460
REMARK INTRA:                  -0.495
REMARK UNBOUND:                -0.440
REMARK  2 active torsions:
REMARK  status: ('A' for Active; 'I' for Inactive)
REMARK    1  A    between atoms: C_7  and  N_8 
REMARK    2  A    between atoms: C_10  and  C_11 
REMARK       I    between atoms: C_11  and  N_13 
ROOT
HETATM    1  C   UNL     1      10.452  11.781  26.160  0.00  0.00     0.048 C 
HETATM    2  C   UNL     1      10.533  13.029  25.333  0.00  0.00    -0.061 A 
HETATM    3  C   UNL     1      11.551  13.957  25.513  0.00  0.00     0.009 A 
HETATM    4  C   UNL     1      11.602  15.099  24.707  0.00  0.00     0.033 A 
HETATM    5  C   UNL     1      10.659  15.354  23.716  0.00  0.00     0.073 A 
HETATM    6  N   UNL     1      10.797  16.464  22.984  0.00  0.00    -0.218 NA
HETATM    7  C   UNL     1       9.899  16.708  22.031  0.00  0.00     0.200 A 
HETATM    8  N   UNL     1       8.839  15.954  21.766  0.00  0.00    -0.212 NA
HETATM    9  C   UNL     1       8.703  14.840  22.522  0.00  0.00     0.140 A 
HETATM   10  C   UNL     1       9.613  14.450  23.529  0.00  0.00     0.028 A 
HETATM   11  C   UNL     1       9.578  13.275  24.339  0.00  0.00     0.023 A 
ENDROOT
BRANCH   9  12
HETATM   12  C   UNL     1       7.431  14.064  22.315  0.00  0.00     0.274 C 
HETATM   13  O   UNL     1       7.394  13.204  21.430  0.00  0.00    -0.266 OA
HETATM   14  N   UNL     1       6.302  14.285  23.091  0.00  0.00    -0.338 N 
HETATM   15  C   UNL     1       6.098  15.192  24.230  0.00  0.00     0.165 A 
HETATM   16  C   UNL     1       5.095  13.542  22.751  0.00  0.00     0.165 A 
HETATM   17  C   UNL     1       4.648  14.981  24.583  0.00  0.00    -0.032 A 
HETATM   18  C   UNL     1       3.886  15.559  25.585  0.00  0.00     0.011 A 
HETATM   19  C   UNL     1       4.080  14.034  23.722  0.00  0.00    -0.031 A 
HETATM   20  C   UNL     1       2.541  15.181  25.704  0.00  0.00     0.019 A 
HETATM   21  C   UNL     1       1.983  14.239  24.825  0.00  0.00     0.011 A 
HETATM   22 BR   UNL     1       0.162  13.752  24.997  0.00  0.00    -0.051 Br
HETATM   23  C   UNL     1       2.752  13.653  23.823  0.00  0.00     0.028 A 
ENDBRANCH   9  12
BRANCH   7  24
HETATM   24  N   UNL     1      10.078  17.860  21.296  0.00  0.00    -0.271 NA
HETATM   25  H   UNL     1      10.944  18.301  21.569  0.00  0.00     0.127 HD
HETATM   26  H   UNL     1       9.244  18.432  21.331  0.00  0.00     0.127 HD
ENDBRANCH   7  24
TORSDOF 2
ENDMDL
MODEL 7
REMARK VINA RESULT:    -7.694      5.377      9.484
REMARK INTER + INTRA:          -8.809
REMARK INTER:                  -8.422
REMARK INTRA:                  -0.387
REMARK UNBOUND:                -0.440
REMARK  2 active torsions:
REMARK  status: ('A' for Active; 'I' for Inactive)
REMARK    1  A    between atoms: C_7  and  N_8 
REMARK    2  A    between atoms: C_10  and  C_11 
REMARK       I    between atoms: C_11  and  N_13 
ROOT
HETATM    1  C   UNL     1       8.142  14.495  19.825  0.00  0.00     0.048 C 
HETATM    2  C   UNL     1       8.261  14.470  21.319  0.00  0.00    -0.061 A 
HETATM    3  C   UNL     1       9.443  14.103  21.949  0.00  0.00     0.009 A 
HETATM    4  C   UNL     1       9.520  14.112  23.345  0.00  0.00     0.033 A 
HETATM    5  C   UNL     1       8.443  14.475  24.148  0.00  0.00     0.073 A 
HETATM    6  N   UNL     1       8.613  14.468  25.474  0.00  0.00    -0.218 NA
HETATM    7  C   UNL     1       7.586  14.822  26.245  0.00  0.00     0.200 A 
HETATM    8  N   UNL     1       6.375  15.145  25.806  0.00  0.00    -0.212 NA
HETATM    9  C   UNL     1       6.212  15.136  24.463  0.00  0.00     0.140 A 
HETATM   10  C   UNL     1       7.236  14.825  23.542  0.00  0.00     0.028 A 
HETATM   11  C   UNL     1       7.170  14.837  22.116  0.00  0.00     0.023 A 
ENDROOT
BRANCH   9  12
HETATM   12  C   UNL     1       4.807  15.367  23.977  0.00  0.00     0.274 C 
HETATM   13  O   UNL     1       4.515  16.465  23.495  0.00  0.00    -0.266 OA
HETATM   14  N   UNL     1       3.834  14.381  24.051  0.00  0.00    -0.338 N 
HETATM   15  C   UNL     1       3.927  12.989  24.518  0.00  0.00     0.165 A 
HETATM   16  C   UNL     1       2.482  14.736  23.634  0.00  0.00     0.165 A 
HETATM   17  C   UNL     1       2.514  12.484  24.381  0.00  0.00    -0.032 A 
HETATM   18  C   UNL     1       1.988  11.233  24.661  0.00  0.00     0.011 A 
HETATM   19  C   UNL     1       1.690  13.498  23.877  0.00  0.00    -0.031 A 
HETATM   20  C   UNL     1       0.621  11.017  24.438  0.00  0.00     0.019 A 
HETATM   21  C   UNL     1      -0.194  12.048  23.944  0.00  0.00     0.011 A 
HETATM   22 BR   UNL     1      -2.039  11.738  23.662  0.00  0.00    -0.051 Br
HETATM   23  C   UNL     1       0.337  13.303  23.657  0.00  0.00     0.028 A 
ENDBRANCH   9  12
BRANCH   7  24
HETATM   24  N   UNL     1       7.802  14.806  27.606  0.00  0.00    -0.271 NA
HETATM   25  H   UNL     1       8.300  15.642  27.876  0.00  0.00     0.127 HD
HETATM   26  H   UNL     1       8.207  13.923  27.887  0.00  0.00     0.127 HD
ENDBRANCH   7  24
TORSDOF 2
ENDMDL
MODEL 8
REMARK VINA RESULT:    -7.426      7.183     10.237
REMARK INTER + INTRA:          -8.518
REMARK INTER:                  -8.178
REMARK INTRA:                  -0.339
REMARK UNBOUND:                -0.440
REMARK  2 active torsions:
REMARK  status: ('A' for Active; 'I' for Inactive)
REMARK    1  A    between atoms: C_7  and  N_8 
REMARK    2  A    between atoms: C_10  and  C_11 
REMARK       I    between atoms: C_11  and  N_13 
ROOT
HETATM    1  C   UNL     1       2.268  14.782  24.210  0.00  0.00     0.048 C 
HETATM    2  C   UNL     1       3.697  14.631  23.780  0.00  0.00    -0.061 A 
HETATM    3  C   UNL     1       4.487  15.734  23.481  0.00  0.00     0.009 A 
HETATM    4  C   UNL     1       5.821  15.552  23.104  0.00  0.00     0.033 A 
HETATM    5  C   UNL     1       6.403  14.291  23.008  0.00  0.00     0.073 A 
HETATM    6  N   UNL     1       7.690  14.216  22.654  0.00  0.00    -0.218 NA
HETATM    7  C   UNL     1       8.252  13.011  22.568  0.00  0.00     0.200 A 
HETATM    8  N   UNL     1       7.625  11.857  22.766  0.00  0.00    -0.212 NA
HETATM    9  C   UNL     1       6.319  11.947  23.112  0.00  0.00     0.140 A 
HETATM   10  C   UNL     1       5.626  13.166  23.280  0.00  0.00     0.028 A 
HETATM   11  C   UNL     1       4.271  13.358  23.687  0.00  0.00     0.023 A 
ENDROOT
BRANCH   9  12
HETATM   12  C   UNL     1       5.578  10.641  23.199  0.00  0.00     0.274 C 
HETATM   13  O   UNL     1       5.263  10.207  24.311  0.00  0.00    -0.266 OA
HETATM   14  N   UNL     1       5.237   9.914  22.067  0.00  0.00    -0.338 N 
HETATM   15  C   UNL     1       5.436  10.226  20.644  0.00  0.00     0.165 A 
HETATM   16  C   UNL     1       4.598   8.619  22.267  0.00  0.00     0.165 A 
HETATM   17  C   UNL     1       4.884   9.011  19.945  0.00  0.00    -0.032 A 
HETATM   18  C   UNL     1       4.791   8.733  18.590  0.00  0.00     0.011 A 
HETATM   19  C   UNL     1       4.410   8.090  20.887  0.00  0.00    -0.031 A 
HETATM   20  C   UNL     1       4.224   7.513  18.195  0.00  0.00     0.019 A 
HETATM   21  C   UNL     1       3.764   6.595  19.154  0.00  0.00     0.011 A 
HETATM   22 BR   UNL     1       3.013   4.950  18.598  0.00  0.00    -0.051 Br
HETATM   23  C   UNL     1       3.853   6.878  20.514  0.00  0.00     0.028 A 
ENDBRANCH   9  12
BRANCH   7  24
HETATM   24  N   UNL     1       9.580  12.974  22.204  0.00  0.00    -0.271 NA
HETATM   25  H   UNL     1       9.912  13.916  22.050  0.00  0.00     0.127 HD
HETATM   26  H   UNL     1       9.720  12.313  21.452  0.00  0.00     0.127 HD
ENDBRANCH   7  24
TORSDOF 2
ENDMDL
MODEL 9
REMARK VINA RESULT:    -7.358      7.100      9.359
REMARK INTER + INTRA:          -8.444
REMARK INTER:                  -8.003
REMARK INTRA:                  -0.440
REMARK UNBOUND:                -0.440
REMARK  2 active torsions:
REMARK  status: ('A' for Active; 'I' for Inactive)
REMARK    1  A    between atoms: C_7  and  N_8 
REMARK    2  A    between atoms: C_10  and  C_11 
REMARK       I    between atoms: C_11  and  N_13 
ROOT
HETATM    1  C   UNL     1       1.654  14.781  23.668  0.00  0.00     0.048 C 
HETATM    2  C   UNL     1       2.999  14.822  24.328  0.00  0.00    -0.061 A 
HETATM    3  C   UNL     1       3.218  15.551  25.490  0.00  0.00     0.009 A 
HETATM    4  C   UNL     1       4.483  15.547  26.087  0.00  0.00     0.033 A 
HETATM    5  C   UNL     1       5.554  14.835  25.557  0.00  0.00     0.073 A 
HETATM    6  N   UNL     1       6.723  14.879  26.205  0.00  0.00    -0.218 NA
HETATM    7  C   UNL     1       7.749  14.193  25.703  0.00  0.00     0.200 A 
HETATM    8  N   UNL     1       7.724  13.492  24.576  0.00  0.00    -0.212 NA
HETATM    9  C   UNL     1       6.539  13.466  23.923  0.00  0.00     0.140 A 
HETATM   10  C   UNL     1       5.369  14.113  24.378  0.00  0.00     0.028 A 
HETATM   11  C   UNL     1       4.070  14.102  23.786  0.00  0.00     0.023 A 
ENDROOT
BRANCH   9  12
HETATM   12  C   UNL     1       6.551  12.790  22.579  0.00  0.00     0.274 C 
HETATM   13  O   UNL     1       7.106  13.355  21.632  0.00  0.00    -0.266 OA
HETATM   14  N   UNL     1       5.960  11.551  22.376  0.00  0.00    -0.338 N 
HETATM   15  C   UNL     1       5.295  10.650  23.329  0.00  0.00     0.165 A 
HETATM   16  C   UNL     1       5.951  11.024  21.017  0.00  0.00     0.165 A 
HETATM   17  C   UNL     1       4.842   9.504  22.461  0.00  0.00    -0.032 A 
HETATM   18  C   UNL     1       4.164   8.346  22.805  0.00  0.00     0.011 A 
HETATM   19  C   UNL     1       5.219   9.733  21.132  0.00  0.00    -0.031 A 
HETATM   20  C   UNL     1       3.860   7.424  21.793  0.00  0.00     0.019 A 
HETATM   21  C   UNL     1       4.235   7.673  20.463  0.00  0.00     0.011 A 
HETATM   22 BR   UNL     1       3.806   6.420  19.112  0.00  0.00    -0.051 Br
HETATM   23  C   UNL     1       4.922   8.835  20.120  0.00  0.00     0.028 A 
ENDBRANCH   9  12
BRANCH   7  24
HETATM   24  N   UNL     1       8.935  14.260  26.401  0.00  0.00    -0.271 NA
HETATM   25  H   UNL     1       9.688  14.477  25.763  0.00  0.00     0.127 HD
HETATM   26  H   UNL     1       9.050  13.437  26.978  0.00  0.00     0.127 HD
ENDBRANCH   7  24
TORSDOF 2
ENDMDL
