REMARK  2 active torsions:
REMARK  status: ('A' for Active; 'I' for Inactive)
REMARK    1  A    between atoms: C_7  and  N_8 
REMARK    2  A    between atoms: C_10  and  C_11 
REMARK       I    between atoms: C_11  and  N_13 
ROOT
HETATM    1  C   UNL     1       0.887   0.051  -0.021  0.00  0.00     0.048 C 
HETATM    2  C   UNL     1       2.384   0.008   0.052  0.00  0.00    -0.061 A 
HETATM    3  C   UNL     1       3.147   1.169   0.045  0.00  0.00     0.009 A 
HETATM    4  C   UNL     1       4.540   1.087   0.135  0.00  0.00     0.033 A 
HETATM    5  C   UNL     1       5.210  -0.129   0.229  0.00  0.00     0.073 A 
HETATM    6  N   UNL     1       6.543  -0.109   0.326  0.00  0.00    -0.218 NA
HETATM    7  C   UNL     1       7.187  -1.271   0.423  0.00  0.00     0.200 A 
HETATM    8  N   UNL     1       6.615  -2.469   0.389  0.00  0.00    -0.212 NA
HETATM    9  C   UNL     1       5.266  -2.476   0.278  0.00  0.00     0.140 A 
HETATM   10  C   UNL     1       4.470  -1.311   0.215  0.00  0.00     0.028 A 
HETATM   11  C   UNL     1       3.047  -1.221   0.146  0.00  0.00     0.023 A 
ENDROOT
BRANCH   9  12
HETATM   12  C   UNL     1       4.635  -3.830   0.100  0.00  0.00     0.274 C 
HETATM   13  O   UNL     1       3.606  -3.924  -0.575  0.00  0.00    -0.266 OA
HETATM   14  N   UNL     1       5.178  -4.973   0.669  0.00  0.00    -0.338 N 
HETATM   15  C   UNL     1       6.407  -5.148   1.457  0.00  0.00     0.165 A 
HETATM   16  C   UNL     1       4.440  -6.220   0.509  0.00  0.00     0.165 A 
HETATM   17  C   UNL     1       6.388  -6.614   1.804  0.00  0.00    -0.032 A 
HETATM   18  C   UNL     1       7.299  -7.366   2.529  0.00  0.00     0.011 A 
HETATM   19  C   UNL     1       5.249  -7.220   1.259  0.00  0.00    -0.031 A 
HETATM   20  C   UNL     1       7.045  -8.733   2.708  0.00  0.00     0.019 A 
HETATM   21  C   UNL     1       5.892  -9.323   2.165  0.00  0.00     0.011 A 
HETATM   22 BR   UNL     1       5.564 -11.168   2.428  0.00  0.00    -0.051 Br
HETATM   23  C   UNL     1       4.981  -8.568   1.431  0.00  0.00     0.028 A 
ENDBRANCH   9  12
BRANCH   7  24
HETATM   24  N   UNL     1       8.560  -1.209   0.525  0.00  0.00    -0.271 NA
HETATM   25  H   UNL     1       8.882  -0.317   0.177  0.00  0.00     0.127 HD
HETATM   26  H   UNL     1       8.980  -2.035   0.120  0.00  0.00     0.127 HD
ENDBRANCH   7  24
TORSDOF 2
