MODEL 1
REMARK VINA RESULT:   -10.644      0.000      0.000
REMARK INTER + INTRA:         -14.028
REMARK INTER:                 -12.590
REMARK INTRA:                  -1.438
REMARK UNBOUND:                -0.584
REMARK  5 active torsions:
REMARK  status: ('A' for Active; 'I' for Inactive)
REMARK       I    between atoms: C_2  and  N_4 
REMARK    1  A    between atoms: C_8  and  N_9 
REMARK       I    between atoms: N_9  and  C_10 
REMARK    2  A    between atoms: C_10  and  C_12 
REMARK    3  A    between atoms: C_13  and  O_14 
REMARK    4  A    between atoms: C_20  and  C_21 
REMARK    5  A    between atoms: C_21  and  C_22 
ROOT
HETATM    1  C   UNL     1      -2.739  13.338  21.850  0.00  0.00     0.066 C 
HETATM    2  C   UNL     1      -4.064  13.691  22.186  0.00  0.00     0.083 C 
HETATM    3  C   UNL     1      -4.678  14.849  21.700  0.00  0.00     0.069 C 
HETATM    4  C   UNL     1      -3.887  15.705  20.938  0.00  0.00     0.065 C 
HETATM    5  N   UNL     1      -4.167  16.888  20.317  0.00  0.00    -0.277 N 
HETATM    6  H   UNL     1      -5.069  17.341  20.238  0.00  0.00     0.189 HD
HETATM    7  N   UNL     1      -3.098  17.498  19.788  0.00  0.00    -0.178 NA
HETATM    8  C   UNL     1      -2.074  16.686  20.093  0.00  0.00     0.071 C 
HETATM    9  C   UNL     1      -2.549  15.456  20.654  0.00  0.00     0.020 C 
HETATM   10  C   UNL     1      -2.013  14.204  21.010  0.00  0.00     0.035 C 
ENDROOT
BRANCH   1  11
HETATM   11  C   UNL     1      -2.184  12.044  22.381  0.00  0.00     0.260 C 
HETATM   12  N   UNL     1      -1.253  11.986  23.457  0.00  0.00    -0.318 N 
HETATM   13  C   UNL     1      -0.989  13.174  24.267  0.00  0.00     0.159 C 
HETATM   14  O   UNL     1      -2.688  11.049  21.841  0.00  0.00    -0.267 OA
BRANCH  12  15
HETATM   15  C   UNL     1      -0.757  10.701  23.933  0.00  0.00     0.037 C 
HETATM   16  C   UNL     1      -1.267  10.106  25.100  0.00  0.00     0.039 C 
HETATM   17  C   UNL     1      -0.598   9.040  25.686  0.00  0.00    -0.027 C 
HETATM   18  C   UNL     1       0.493   8.439  25.076  0.00  0.00     0.043 C 
HETATM   19  C   UNL     1      -0.811   8.506  27.067  0.00  0.00     0.061 C 
HETATM   20  N   UNL     1       0.998   7.406  25.877  0.00  0.00    -0.318 N 
HETATM   21  C   UNL     1       0.936   8.898  23.859  0.00  0.00     0.032 C 
HETATM   22  C   UNL     1       2.062   6.575  25.558  0.00  0.00     0.220 C 
HETATM   23  C   UNL     1       0.164   7.324  27.096  0.00  0.00     0.137 C 
HETATM   24  O   UNL     1       2.747   6.658  24.538  0.00  0.00    -0.273 OA
HETATM   25  C   UNL     1       2.344   5.488  26.564  0.00  0.00     0.117 C 
HETATM   26  C   UNL     1       0.318  10.028  23.304  0.00  0.00     0.032 C 
ENDBRANCH  12  15
ENDBRANCH   1  11
BRANCH   2  27
HETATM   27  O   UNL     1      -4.865  12.934  23.010  0.00  0.00    -0.360 OA
HETATM   28  H   UNL     1      -5.729  13.399  23.095  0.00  0.00     0.217 HD
ENDBRANCH   2  27
BRANCH   8  29
HETATM   29  C   UNL     1      -0.658  17.160  19.898  0.00  0.00     0.100 C 
BRANCH  29  30
HETATM   30  C   UNL     1       0.188  16.588  21.034  0.00  0.00    -0.052 A 
HETATM   31  C   UNL     1       1.211  15.648  20.798  0.00  0.00     0.014 A 
HETATM   32  C   UNL     1       2.022  15.158  21.833  0.00  0.00    -0.061 A 
HETATM   33  C   UNL     1       3.203  14.286  21.521  0.00  0.00     0.048 C 
HETATM   34  C   UNL     1       1.763  15.559  23.145  0.00  0.00     0.007 A 
HETATM   35  C   UNL     1       0.704  16.425  23.414  0.00  0.00     0.001 A 
HETATM   36  C   UNL     1      -0.075  16.940  22.368  0.00  0.00     0.007 A 
ENDBRANCH  29  30
ENDBRANCH   8  29
TORSDOF 5
ENDMDL
MODEL 2
REMARK VINA RESULT:   -10.400      0.900      1.526
REMARK INTER + INTRA:         -13.720
REMARK INTER:                 -12.359
REMARK INTRA:                  -1.361
REMARK UNBOUND:                -0.584
REMARK  5 active torsions:
REMARK  status: ('A' for Active; 'I' for Inactive)
REMARK       I    between atoms: C_2  and  N_4 
REMARK    1  A    between atoms: C_8  and  N_9 
REMARK       I    between atoms: N_9  and  C_10 
REMARK    2  A    between atoms: C_10  and  C_12 
REMARK    3  A    between atoms: C_13  and  O_14 
REMARK    4  A    between atoms: C_20  and  C_21 
REMARK    5  A    between atoms: C_21  and  C_22 
ROOT
HETATM    1  C   UNL     1      -2.656  13.349  21.981  0.00  0.00     0.066 C 
HETATM    2  C   UNL     1      -4.013  13.636  22.250  0.00  0.00     0.083 C 
HETATM    3  C   UNL     1      -4.676  14.725  21.677  0.00  0.00     0.069 C 
HETATM    4  C   UNL     1      -3.908  15.587  20.897  0.00  0.00     0.065 C 
HETATM    5  N   UNL     1      -4.235  16.715  20.202  0.00  0.00    -0.277 N 
HETATM    6  H   UNL     1      -5.159  17.106  20.065  0.00  0.00     0.189 HD
HETATM    7  N   UNL     1      -3.185  17.361  19.677  0.00  0.00    -0.178 NA
HETATM    8  C   UNL     1      -2.126  16.632  20.063  0.00  0.00     0.071 C 
HETATM    9  C   UNL     1      -2.548  15.407  20.675  0.00  0.00     0.020 C 
HETATM   10  C   UNL     1      -1.952  14.211  21.120  0.00  0.00     0.035 C 
ENDROOT
BRANCH   1  11
HETATM   11  C   UNL     1      -2.046  12.122  22.603  0.00  0.00     0.260 C 
HETATM   12  N   UNL     1      -1.176  12.178  23.729  0.00  0.00    -0.318 N 
HETATM   13  C   UNL     1      -1.040  13.417  24.493  0.00  0.00     0.159 C 
HETATM   14  O   UNL     1      -2.449  11.070  22.086  0.00  0.00    -0.267 OA
BRANCH  12  15
HETATM   15  C   UNL     1      -0.621  10.954  24.293  0.00  0.00     0.037 C 
HETATM   16  C   UNL     1       0.542  10.367  23.766  0.00  0.00     0.039 C 
HETATM   17  C   UNL     1       0.891   9.071  24.123  0.00  0.00    -0.027 C 
HETATM   18  C   UNL     1       0.202   8.376  25.106  0.00  0.00     0.043 C 
HETATM   19  C   UNL     1       1.887   8.195  23.434  0.00  0.00     0.061 C 
HETATM   20  N   UNL     1       0.734   7.089  25.264  0.00  0.00    -0.318 N 
HETATM   21  C   UNL     1      -0.855   8.970  25.753  0.00  0.00     0.032 C 
HETATM   22  C   UNL     1       0.309   6.140  26.182  0.00  0.00     0.220 C 
HETATM   23  C   UNL     1       1.861   6.942  24.318  0.00  0.00     0.137 C 
HETATM   24  O   UNL     1      -0.633   6.279  26.963  0.00  0.00    -0.273 OA
HETATM   25  C   UNL     1       1.114   4.865  26.197  0.00  0.00     0.117 C 
HETATM   26  C   UNL     1      -1.265  10.245  25.336  0.00  0.00     0.032 C 
ENDBRANCH  12  15
ENDBRANCH   1  11
BRANCH   2  27
HETATM   27  O   UNL     1      -4.798  12.876  23.085  0.00  0.00    -0.360 OA
HETATM   28  H   UNL     1      -5.228  13.487  23.727  0.00  0.00     0.217 HD
ENDBRANCH   2  27
BRANCH   8  29
HETATM   29  C   UNL     1      -0.735  17.181  19.892  0.00  0.00     0.100 C 
BRANCH  29  30
HETATM   30  C   UNL     1       0.130  16.624  21.020  0.00  0.00    -0.052 A 
HETATM   31  C   UNL     1       1.142  15.673  20.780  0.00  0.00     0.014 A 
HETATM   32  C   UNL     1       1.972  15.197  21.807  0.00  0.00    -0.061 A 
HETATM   33  C   UNL     1       3.140  14.311  21.486  0.00  0.00     0.048 C 
HETATM   34  C   UNL     1       1.743  15.623  23.116  0.00  0.00     0.007 A 
HETATM   35  C   UNL     1       0.696  16.501  23.392  0.00  0.00     0.001 A 
HETATM   36  C   UNL     1      -0.101  17.002  22.353  0.00  0.00     0.007 A 
ENDBRANCH  29  30
ENDBRANCH   8  29
TORSDOF 5
ENDMDL
MODEL 3
REMARK VINA RESULT:    -9.982      0.612      1.256
REMARK INTER + INTRA:         -13.193
REMARK INTER:                 -12.034
REMARK INTRA:                  -1.159
REMARK UNBOUND:                -0.584
REMARK  5 active torsions:
REMARK  status: ('A' for Active; 'I' for Inactive)
REMARK       I    between atoms: C_2  and  N_4 
REMARK    1  A    between atoms: C_8  and  N_9 
REMARK       I    between atoms: N_9  and  C_10 
REMARK    2  A    between atoms: C_10  and  C_12 
REMARK    3  A    between atoms: C_13  and  O_14 
REMARK    4  A    between atoms: C_20  and  C_21 
REMARK    5  A    between atoms: C_21  and  C_22 
ROOT
HETATM    1  C   UNL     1      -2.670  13.126  22.001  0.00  0.00     0.066 C 
HETATM    2  C   UNL     1      -4.017  13.491  22.224  0.00  0.00     0.083 C 
HETATM    3  C   UNL     1      -4.569  14.666  21.709  0.00  0.00     0.069 C 
HETATM    4  C   UNL     1      -3.701  15.528  21.041  0.00  0.00     0.065 C 
HETATM    5  N   UNL     1      -3.909  16.727  20.425  0.00  0.00    -0.277 N 
HETATM    6  H   UNL     1      -4.795  17.195  20.274  0.00  0.00     0.189 HD
HETATM    7  N   UNL     1      -2.789  17.332  20.008  0.00  0.00    -0.178 NA
HETATM    8  C   UNL     1      -1.807  16.500  20.386  0.00  0.00     0.071 C 
HETATM    9  C   UNL     1      -2.347  15.266  20.875  0.00  0.00     0.020 C 
HETATM   10  C   UNL     1      -1.860  13.998  21.250  0.00  0.00     0.035 C 
ENDROOT
BRANCH   1  11
HETATM   11  C   UNL     1      -2.182  11.813  22.551  0.00  0.00     0.260 C 
HETATM   12  N   UNL     1      -1.415  11.713  23.747  0.00  0.00    -0.318 N 
HETATM   13  C   UNL     1      -1.285  12.866  24.636  0.00  0.00     0.159 C 
HETATM   14  O   UNL     1      -2.591  10.839  21.902  0.00  0.00    -0.267 OA
BRANCH  12  15
HETATM   15  C   UNL     1      -0.977  10.411  24.234  0.00  0.00     0.037 C 
HETATM   16  C   UNL     1      -1.382   9.926  25.489  0.00  0.00     0.039 C 
HETATM   17  C   UNL     1      -0.740   8.831  26.052  0.00  0.00    -0.027 C 
HETATM   18  C   UNL     1       0.205   8.100  25.348  0.00  0.00     0.043 C 
HETATM   19  C   UNL     1      -0.819   8.388  27.478  0.00  0.00     0.061 C 
HETATM   20  N   UNL     1       0.717   7.063  26.142  0.00  0.00    -0.318 N 
HETATM   21  C   UNL     1       0.526   8.453  24.060  0.00  0.00     0.032 C 
HETATM   22  C   UNL     1       1.653   6.119  25.743  0.00  0.00     0.220 C 
HETATM   23  C   UNL     1       0.044   7.121  27.457  0.00  0.00     0.137 C 
HETATM   24  O   UNL     1       2.204   6.087  24.643  0.00  0.00    -0.273 OA
HETATM   25  C   UNL     1       1.965   5.062  26.771  0.00  0.00     0.117 C 
HETATM   26  C   UNL     1      -0.056   9.609  23.518  0.00  0.00     0.032 C 
ENDBRANCH  12  15
ENDBRANCH   1  11
BRANCH   2  27
HETATM   27  O   UNL     1      -4.898  12.728  22.954  0.00  0.00    -0.360 OA
HETATM   28  H   UNL     1      -5.799  12.884  22.590  0.00  0.00     0.217 HD
ENDBRANCH   2  27
BRANCH   8  29
HETATM   29  C   UNL     1      -0.374  16.957  20.331  0.00  0.00     0.100 C 
BRANCH  29  30
HETATM   30  C   UNL     1       0.419  16.138  21.347  0.00  0.00    -0.052 A 
HETATM   31  C   UNL     1       0.303  16.361  22.734  0.00  0.00     0.014 A 
HETATM   32  C   UNL     1       0.992  15.576  23.672  0.00  0.00    -0.061 A 
HETATM   33  C   UNL     1       0.717  15.737  25.139  0.00  0.00     0.048 C 
HETATM   34  C   UNL     1       1.873  14.594  23.218  0.00  0.00     0.007 A 
HETATM   35  C   UNL     1       2.067  14.409  21.850  0.00  0.00     0.001 A 
HETATM   36  C   UNL     1       1.344  15.170  20.922  0.00  0.00     0.007 A 
ENDBRANCH  29  30
ENDBRANCH   8  29
TORSDOF 5
ENDMDL
MODEL 4
REMARK VINA RESULT:    -9.768      2.210      3.568
REMARK INTER + INTRA:         -12.922
REMARK INTER:                 -11.640
REMARK INTRA:                  -1.282
REMARK UNBOUND:                -0.584
REMARK  5 active torsions:
REMARK  status: ('A' for Active; 'I' for Inactive)
REMARK       I    between atoms: C_2  and  N_4 
REMARK    1  A    between atoms: C_8  and  N_9 
REMARK       I    between atoms: N_9  and  C_10 
REMARK    2  A    between atoms: C_10  and  C_12 
REMARK    3  A    between atoms: C_13  and  O_14 
REMARK    4  A    between atoms: C_20  and  C_21 
REMARK    5  A    between atoms: C_21  and  C_22 
ROOT
HETATM    1  C   UNL     1      -1.913  11.620  24.439  0.00  0.00     0.066 C 
HETATM    2  C   UNL     1      -2.449  12.284  25.565  0.00  0.00     0.083 C 
HETATM    3  C   UNL     1      -3.453  13.251  25.457  0.00  0.00     0.069 C 
HETATM    4  C   UNL     1      -3.840  13.612  24.168  0.00  0.00     0.065 C 
HETATM    5  N   UNL     1      -4.775  14.497  23.716  0.00  0.00    -0.277 N 
HETATM    6  H   UNL     1      -5.440  15.025  24.269  0.00  0.00     0.189 HD
HETATM    7  N   UNL     1      -4.765  14.677  22.389  0.00  0.00    -0.178 NA
HETATM    8  C   UNL     1      -3.768  13.889  21.959  0.00  0.00     0.071 C 
HETATM    9  C   UNL     1      -3.280  13.061  23.022  0.00  0.00     0.020 C 
HETATM   10  C   UNL     1      -2.401  11.970  23.165  0.00  0.00     0.035 C 
ENDROOT
BRANCH   1  11
HETATM   11  C   UNL     1      -0.874  10.555  24.662  0.00  0.00     0.260 C 
HETATM   12  N   UNL     1       0.506  10.748  24.367  0.00  0.00    -0.318 N 
HETATM   13  C   UNL     1       1.016  12.086  24.072  0.00  0.00     0.159 C 
HETATM   14  O   UNL     1      -1.335   9.540  25.204  0.00  0.00    -0.267 OA
BRANCH  12  15
HETATM   15  C   UNL     1       1.468   9.681  24.611  0.00  0.00     0.037 C 
HETATM   16  C   UNL     1       1.455   8.496  23.856  0.00  0.00     0.039 C 
HETATM   17  C   UNL     1       2.180   7.391  24.281  0.00  0.00    -0.027 C 
HETATM   18  C   UNL     1       3.044   7.460  25.364  0.00  0.00     0.043 C 
HETATM   19  C   UNL     1       2.033   5.987  23.792  0.00  0.00     0.061 C 
HETATM   20  N   UNL     1       3.637   6.212  25.602  0.00  0.00    -0.318 N 
HETATM   21  C   UNL     1       3.198   8.644  26.045  0.00  0.00     0.032 C 
HETATM   22  C   UNL     1       4.576   5.931  26.584  0.00  0.00     0.220 C 
HETATM   23  C   UNL     1       3.125   5.264  24.588  0.00  0.00     0.137 C 
HETATM   24  O   UNL     1       4.990   6.733  27.420  0.00  0.00    -0.273 OA
HETATM   25  C   UNL     1       5.113   4.522  26.563  0.00  0.00     0.117 C 
HETATM   26  C   UNL     1       2.404   9.739  25.672  0.00  0.00     0.032 C 
ENDBRANCH  12  15
ENDBRANCH   1  11
BRANCH   2  27
HETATM   27  O   UNL     1      -2.042  12.039  26.855  0.00  0.00    -0.360 OA
HETATM   28  H   UNL     1      -2.722  12.415  27.459  0.00  0.00     0.217 HD
ENDBRANCH   2  27
BRANCH   8  29
HETATM   29  C   UNL     1      -3.267  14.017  20.545  0.00  0.00     0.100 C 
BRANCH  29  30
HETATM   30  C   UNL     1      -2.367  15.249  20.476  0.00  0.00    -0.052 A 
HETATM   31  C   UNL     1      -1.161  15.329  21.201  0.00  0.00     0.014 A 
HETATM   32  C   UNL     1      -0.307  16.438  21.102  0.00  0.00    -0.061 A 
HETATM   33  C   UNL     1       1.042  16.416  21.759  0.00  0.00     0.048 C 
HETATM   34  C   UNL     1      -0.697  17.525  20.318  0.00  0.00     0.007 A 
HETATM   35  C   UNL     1      -1.924  17.505  19.656  0.00  0.00     0.001 A 
HETATM   36  C   UNL     1      -2.750  16.375  19.730  0.00  0.00     0.007 A 
ENDBRANCH  29  30
ENDBRANCH   8  29
TORSDOF 5
ENDMDL
MODEL 5
REMARK VINA RESULT:    -9.710      1.454      2.120
REMARK INTER + INTRA:         -12.849
REMARK INTER:                 -11.510
REMARK INTRA:                  -1.339
REMARK UNBOUND:                -0.584
REMARK  5 active torsions:
REMARK  status: ('A' for Active; 'I' for Inactive)
REMARK       I    between atoms: C_2  and  N_4 
REMARK    1  A    between atoms: C_8  and  N_9 
REMARK       I    between atoms: N_9  and  C_10 
REMARK    2  A    between atoms: C_10  and  C_12 
REMARK    3  A    between atoms: C_13  and  O_14 
REMARK    4  A    between atoms: C_20  and  C_21 
REMARK    5  A    between atoms: C_21  and  C_22 
ROOT
HETATM    1  C   UNL     1      -1.898  13.379  22.409  0.00  0.00     0.066 C 
HETATM    2  C   UNL     1      -3.284  13.484  22.158  0.00  0.00     0.083 C 
HETATM    3  C   UNL     1      -3.830  14.512  21.385  0.00  0.00     0.069 C 
HETATM    4  C   UNL     1      -2.952  15.501  20.946  0.00  0.00     0.065 C 
HETATM    5  N   UNL     1      -3.149  16.615  20.183  0.00  0.00    -0.277 N 
HETATM    6  H   UNL     1      -4.002  16.897  19.715  0.00  0.00     0.189 HD
HETATM    7  N   UNL     1      -2.075  17.411  20.086  0.00  0.00    -0.178 NA
HETATM    8  C   UNL     1      -1.145  16.798  20.833  0.00  0.00     0.071 C 
HETATM    9  C   UNL     1      -1.594  15.500  21.242  0.00  0.00     0.020 C 
HETATM   10  C   UNL     1      -1.048  14.365  21.872  0.00  0.00     0.035 C 
ENDROOT
BRANCH   1  11
HETATM   11  C   UNL     1      -1.400  12.206  23.208  0.00  0.00     0.260 C 
HETATM   12  N   UNL     1      -0.848  12.339  24.515  0.00  0.00    -0.318 N 
HETATM   13  C   UNL     1      -0.976  13.600  25.243  0.00  0.00     0.159 C 
HETATM   14  O   UNL     1      -1.603  11.121  22.645  0.00  0.00    -0.267 OA
BRANCH  12  15
HETATM   15  C   UNL     1      -0.389  11.164  25.244  0.00  0.00     0.037 C 
HETATM   16  C   UNL     1       0.906  10.649  25.063  0.00  0.00     0.039 C 
HETATM   17  C   UNL     1       1.226   9.386  25.541  0.00  0.00    -0.027 C 
HETATM   18  C   UNL     1       0.344   8.660  26.327  0.00  0.00     0.043 C 
HETATM   19  C   UNL     1       2.422   8.569  25.169  0.00  0.00     0.061 C 
HETATM   20  N   UNL     1       0.894   7.413  26.662  0.00  0.00    -0.318 N 
HETATM   21  C   UNL     1      -0.881   9.189  26.652  0.00  0.00     0.032 C 
HETATM   22  C   UNL     1       0.298   6.451  27.464  0.00  0.00     0.220 C 
HETATM   23  C   UNL     1       2.239   7.330  26.053  0.00  0.00     0.137 C 
HETATM   24  O   UNL     1      -0.824   6.537  27.962  0.00  0.00    -0.273 OA
HETATM   25  C   UNL     1       1.147   5.234  27.732  0.00  0.00     0.117 C 
HETATM   26  C   UNL     1      -1.243  10.428  26.100  0.00  0.00     0.032 C 
ENDBRANCH  12  15
ENDBRANCH   1  11
BRANCH   2  27
HETATM   27  O   UNL     1      -4.212  12.591  22.642  0.00  0.00    -0.360 OA
HETATM   28  H   UNL     1      -3.876  11.684  22.461  0.00  0.00     0.217 HD
ENDBRANCH   2  27
BRANCH   8  29
HETATM   29  C   UNL     1       0.126  17.522  21.190  0.00  0.00     0.100 C 
BRANCH  29  30
HETATM   30  C   UNL     1       1.266  16.505  21.170  0.00  0.00    -0.052 A 
HETATM   31  C   UNL     1       1.863  16.034  22.357  0.00  0.00     0.014 A 
HETATM   32  C   UNL     1       2.876  15.064  22.343  0.00  0.00    -0.061 A 
HETATM   33  C   UNL     1       3.372  14.470  23.630  0.00  0.00     0.048 C 
HETATM   34  C   UNL     1       3.357  14.602  21.117  0.00  0.00     0.007 A 
HETATM   35  C   UNL     1       2.839  15.113  19.927  0.00  0.00     0.001 A 
HETATM   36  C   UNL     1       1.799  16.052  19.952  0.00  0.00     0.007 A 
ENDBRANCH  29  30
ENDBRANCH   8  29
TORSDOF 5
ENDMDL
MODEL 6
REMARK VINA RESULT:    -9.474      1.945      2.631
REMARK INTER + INTRA:         -12.551
REMARK INTER:                 -11.893
REMARK INTRA:                  -0.658
REMARK UNBOUND:                -0.584
REMARK  5 active torsions:
REMARK  status: ('A' for Active; 'I' for Inactive)
REMARK       I    between atoms: C_2  and  N_4 
REMARK    1  A    between atoms: C_8  and  N_9 
REMARK       I    between atoms: N_9  and  C_10 
REMARK    2  A    between atoms: C_10  and  C_12 
REMARK    3  A    between atoms: C_13  and  O_14 
REMARK    4  A    between atoms: C_20  and  C_21 
REMARK    5  A    between atoms: C_21  and  C_22 
ROOT
HETATM    1  C   UNL     1      -2.196  13.217  23.214  0.00  0.00     0.066 C 
HETATM    2  C   UNL     1      -3.488  13.155  22.645  0.00  0.00     0.083 C 
HETATM    3  C   UNL     1      -3.894  14.006  21.614  0.00  0.00     0.069 C 
HETATM    4  C   UNL     1      -2.997  14.999  21.230  0.00  0.00     0.065 C 
HETATM    5  N   UNL     1      -3.072  15.970  20.273  0.00  0.00    -0.277 N 
HETATM    6  H   UNL     1      -3.805  16.101  19.587  0.00  0.00     0.189 HD
HETATM    7  N   UNL     1      -2.054  16.840  20.293  0.00  0.00    -0.178 NA
HETATM    8  C   UNL     1      -1.292  16.430  21.318  0.00  0.00     0.071 C 
HETATM    9  C   UNL     1      -1.749  15.168  21.819  0.00  0.00     0.020 C 
HETATM   10  C   UNL     1      -1.302  14.191  22.729  0.00  0.00     0.035 C 
ENDROOT
BRANCH   1  11
HETATM   11  C   UNL     1      -1.834  12.221  24.282  0.00  0.00     0.260 C 
HETATM   12  N   UNL     1      -1.039  11.068  24.026  0.00  0.00    -0.318 N 
HETATM   13  C   UNL     1      -0.321  10.935  22.760  0.00  0.00     0.159 C 
HETATM   14  O   UNL     1      -2.227  12.561  25.407  0.00  0.00    -0.267 OA
BRANCH  12  15
HETATM   15  C   UNL     1      -0.714  10.143  25.105  0.00  0.00     0.037 C 
HETATM   16  C   UNL     1      -0.391   8.800  24.845  0.00  0.00     0.039 C 
HETATM   17  C   UNL     1      -0.363   7.878  25.883  0.00  0.00    -0.027 C 
HETATM   18  C   UNL     1      -0.505   8.266  27.206  0.00  0.00     0.043 C 
HETATM   19  C   UNL     1      -0.356   6.389  25.751  0.00  0.00     0.061 C 
HETATM   20  N   UNL     1      -0.462   7.150  28.055  0.00  0.00    -0.318 N 
HETATM   21  C   UNL     1      -0.677   9.594  27.517  0.00  0.00     0.032 C 
HETATM   22  C   UNL     1      -0.538   7.178  29.440  0.00  0.00     0.220 C 
HETATM   23  C   UNL     1      -0.268   5.948  27.216  0.00  0.00     0.137 C 
HETATM   24  O   UNL     1      -0.701   8.190  30.122  0.00  0.00    -0.273 OA
HETATM   25  C   UNL     1      -0.381   5.837  30.111  0.00  0.00     0.117 C 
HETATM   26  C   UNL     1      -0.791  10.518  26.468  0.00  0.00     0.032 C 
ENDBRANCH  12  15
ENDBRANCH   1  11
BRANCH   2  27
HETATM   27  O   UNL     1      -4.451  12.258  23.046  0.00  0.00    -0.360 OA
HETATM   28  H   UNL     1      -5.328  12.684  22.916  0.00  0.00     0.217 HD
ENDBRANCH   2  27
BRANCH   8  29
HETATM   29  C   UNL     1      -0.185  17.313  21.830  0.00  0.00     0.100 C 
BRANCH  29  30
HETATM   30  C   UNL     1       1.144  16.640  21.495  0.00  0.00    -0.052 A 
HETATM   31  C   UNL     1       1.932  16.017  22.484  0.00  0.00     0.014 A 
HETATM   32  C   UNL     1       3.129  15.354  22.172  0.00  0.00    -0.061 A 
HETATM   33  C   UNL     1       3.854  14.566  23.224  0.00  0.00     0.048 C 
HETATM   34  C   UNL     1       3.590  15.373  20.855  0.00  0.00     0.007 A 
HETATM   35  C   UNL     1       2.871  16.052  19.872  0.00  0.00     0.001 A 
HETATM   36  C   UNL     1       1.656  16.676  20.187  0.00  0.00     0.007 A 
ENDBRANCH  29  30
ENDBRANCH   8  29
TORSDOF 5
ENDMDL
MODEL 7
REMARK VINA RESULT:    -9.051      1.934      2.738
REMARK INTER + INTRA:         -12.016
REMARK INTER:                 -10.622
REMARK INTRA:                  -1.394
REMARK UNBOUND:                -0.584
REMARK  5 active torsions:
REMARK  status: ('A' for Active; 'I' for Inactive)
REMARK       I    between atoms: C_2  and  N_4 
REMARK    1  A    between atoms: C_8  and  N_9 
REMARK       I    between atoms: N_9  and  C_10 
REMARK    2  A    between atoms: C_10  and  C_12 
REMARK    3  A    between atoms: C_13  and  O_14 
REMARK    4  A    between atoms: C_20  and  C_21 
REMARK    5  A    between atoms: C_21  and  C_22 
ROOT
HETATM    1  C   UNL     1      -1.364  11.821  23.293  0.00  0.00     0.066 C 
HETATM    2  C   UNL     1      -2.676  11.605  22.816  0.00  0.00     0.083 C 
HETATM    3  C   UNL     1      -3.371  12.564  22.074  0.00  0.00     0.069 C 
HETATM    4  C   UNL     1      -2.749  13.799  21.906  0.00  0.00     0.065 C 
HETATM    5  N   UNL     1      -3.137  14.928  21.245  0.00  0.00    -0.277 N 
HETATM    6  H   UNL     1      -3.960  15.050  20.668  0.00  0.00     0.189 HD
HETATM    7  N   UNL     1      -2.322  15.977  21.424  0.00  0.00    -0.178 NA
HETATM    8  C   UNL     1      -1.372  15.516  22.252  0.00  0.00     0.071 C 
HETATM    9  C   UNL     1      -1.499  14.100  22.434  0.00  0.00     0.020 C 
HETATM   10  C   UNL     1      -0.754  13.061  23.023  0.00  0.00     0.035 C 
ENDROOT
BRANCH   1  11
HETATM   11  C   UNL     1      -0.678  10.706  24.036  0.00  0.00     0.260 C 
HETATM   12  N   UNL     1      -0.673  10.613  25.457  0.00  0.00    -0.318 N 
HETATM   13  C   UNL     1      -1.557  11.463  26.253  0.00  0.00     0.159 C 
HETATM   14  O   UNL     1      -0.202   9.848  23.280  0.00  0.00    -0.267 OA
BRANCH  12  15
HETATM   15  C   UNL     1       0.002   9.505  26.120  0.00  0.00     0.037 C 
HETATM   16  C   UNL     1      -0.721   8.463  26.724  0.00  0.00     0.039 C 
HETATM   17  C   UNL     1      -0.083   7.579  27.583  0.00  0.00    -0.027 C 
HETATM   18  C   UNL     1       1.293   7.600  27.759  0.00  0.00     0.043 C 
HETATM   19  C   UNL     1      -0.739   6.634  28.539  0.00  0.00     0.061 C 
HETATM   20  N   UNL     1       1.686   6.627  28.689  0.00  0.00    -0.318 N 
HETATM   21  C   UNL     1       2.058   8.511  27.073  0.00  0.00     0.032 C 
HETATM   22  C   UNL     1       2.989   6.349  29.075  0.00  0.00     0.220 C 
HETATM   23  C   UNL     1       0.472   5.914  29.143  0.00  0.00     0.137 C 
HETATM   24  O   UNL     1       3.988   6.955  28.687  0.00  0.00    -0.273 OA
HETATM   25  C   UNL     1       3.136   5.192  30.030  0.00  0.00     0.117 C 
HETATM   26  C   UNL     1       1.409   9.462  26.270  0.00  0.00     0.032 C 
ENDBRANCH  12  15
ENDBRANCH   1  11
BRANCH   2  27
HETATM   27  O   UNL     1      -3.380  10.442  23.030  0.00  0.00    -0.360 OA
HETATM   28  H   UNL     1      -4.266  10.690  23.380  0.00  0.00     0.217 HD
ENDBRANCH   2  27
BRANCH   8  29
HETATM   29  C   UNL     1      -0.414  16.478  22.902  0.00  0.00     0.100 C 
BRANCH  29  30
HETATM   30  C   UNL     1       0.933  16.348  22.194  0.00  0.00    -0.052 A 
HETATM   31  C   UNL     1       2.016  15.660  22.777  0.00  0.00     0.014 A 
HETATM   32  C   UNL     1       3.238  15.496  22.108  0.00  0.00    -0.061 A 
HETATM   33  C   UNL     1       4.309  14.620  22.691  0.00  0.00     0.048 C 
HETATM   34  C   UNL     1       3.412  16.092  20.858  0.00  0.00     0.007 A 
HETATM   35  C   UNL     1       2.384  16.847  20.296  0.00  0.00     0.001 A 
HETATM   36  C   UNL     1       1.153  16.971  20.955  0.00  0.00     0.007 A 
ENDBRANCH  29  30
ENDBRANCH   8  29
TORSDOF 5
ENDMDL
MODEL 8
REMARK VINA RESULT:    -8.965      3.091      4.657
REMARK INTER + INTRA:         -11.908
REMARK INTER:                 -11.324
REMARK INTRA:                  -0.584
REMARK UNBOUND:                -0.584
REMARK  5 active torsions:
REMARK  status: ('A' for Active; 'I' for Inactive)
REMARK       I    between atoms: C_2  and  N_4 
REMARK    1  A    between atoms: C_8  and  N_9 
REMARK       I    between atoms: N_9  and  C_10 
REMARK    2  A    between atoms: C_10  and  C_12 
REMARK    3  A    between atoms: C_13  and  O_14 
REMARK    4  A    between atoms: C_20  and  C_21 
REMARK    5  A    between atoms: C_21  and  C_22 
ROOT
HETATM    1  C   UNL     1      -2.424  10.668  25.805  0.00  0.00     0.066 C 
HETATM    2  C   UNL     1      -3.682  11.138  26.241  0.00  0.00     0.083 C 
HETATM    3  C   UNL     1      -4.557  11.829  25.398  0.00  0.00     0.069 C 
HETATM    4  C   UNL     1      -4.091  12.128  24.120  0.00  0.00     0.065 C 
HETATM    5  N   UNL     1      -4.678  12.769  23.067  0.00  0.00    -0.277 N 
HETATM    6  H   UNL     1      -5.634  13.096  23.002  0.00  0.00     0.189 HD
HETATM    7  N   UNL     1      -3.855  12.993  22.033  0.00  0.00    -0.178 NA
HETATM    8  C   UNL     1      -2.678  12.492  22.436  0.00  0.00     0.071 C 
HETATM    9  C   UNL     1      -2.826  11.774  23.667  0.00  0.00     0.020 C 
HETATM   10  C   UNL     1      -2.039  10.930  24.476  0.00  0.00     0.035 C 
ENDROOT
BRANCH   1  11
HETATM   11  C   UNL     1      -1.576   9.886  26.771  0.00  0.00     0.260 C 
HETATM   12  N   UNL     1      -0.806   8.753  26.382  0.00  0.00    -0.318 N 
HETATM   13  C   UNL     1      -0.603   8.451  24.966  0.00  0.00     0.159 C 
HETATM   14  O   UNL     1      -1.557  10.385  27.905  0.00  0.00    -0.267 OA
BRANCH  12  15
HETATM   15  C   UNL     1       0.003   8.040  27.363  0.00  0.00     0.037 C 
HETATM   16  C   UNL     1      -0.573   7.128  28.263  0.00  0.00     0.039 C 
HETATM   17  C   UNL     1       0.152   6.679  29.359  0.00  0.00    -0.027 C 
HETATM   18  C   UNL     1       1.494   6.992  29.522  0.00  0.00     0.043 C 
HETATM   19  C   UNL     1      -0.393   5.979  30.562  0.00  0.00     0.061 C 
HETATM   20  N   UNL     1       1.987   6.439  30.713  0.00  0.00    -0.318 N 
HETATM   21  C   UNL     1       2.137   7.764  28.585  0.00  0.00     0.032 C 
HETATM   22  C   UNL     1       3.294   6.526  31.170  0.00  0.00     0.220 C 
HETATM   23  C   UNL     1       0.883   5.703  31.365  0.00  0.00     0.137 C 
HETATM   24  O   UNL     1       4.201   7.145  30.613  0.00  0.00    -0.273 OA
HETATM   25  C   UNL     1       3.574   5.766  32.441  0.00  0.00     0.117 C 
HETATM   26  C   UNL     1       1.388   8.290  27.522  0.00  0.00     0.032 C 
ENDBRANCH  12  15
ENDBRANCH   1  11
BRANCH   2  27
HETATM   27  O   UNL     1      -4.159  10.956  27.518  0.00  0.00    -0.360 OA
HETATM   28  H   UNL     1      -3.764  11.656  28.086  0.00  0.00     0.217 HD
ENDBRANCH   2  27
BRANCH   8  29
HETATM   29  C   UNL     1      -1.428  12.790  21.651  0.00  0.00     0.100 C 
BRANCH  29  30
HETATM   30  C   UNL     1      -1.066  14.255  21.885  0.00  0.00    -0.052 A 
HETATM   31  C   UNL     1      -1.178  15.221  20.865  0.00  0.00     0.014 A 
HETATM   32  C   UNL     1      -0.893  16.576  21.091  0.00  0.00    -0.061 A 
HETATM   33  C   UNL     1      -1.180  17.597  20.028  0.00  0.00     0.048 C 
HETATM   34  C   UNL     1      -0.417  16.969  22.342  0.00  0.00     0.007 A 
HETATM   35  C   UNL     1      -0.220  16.020  23.344  0.00  0.00     0.001 A 
HETATM   36  C   UNL     1      -0.545  14.675  23.121  0.00  0.00     0.007 A 
ENDBRANCH  29  30
ENDBRANCH   8  29
TORSDOF 5
ENDMDL
