MODEL 1
REMARK VINA RESULT:    -7.401      0.000      0.000
REMARK INTER + INTRA:         -10.502
REMARK INTER:                  -9.067
REMARK INTRA:                  -1.435
REMARK UNBOUND:                -1.370
REMARK  5 active torsions:
REMARK  status: ('A' for Active; 'I' for Inactive)
REMARK    1  A    between atoms: O_1  and  C_2 
REMARK    2  A    between atoms: C_4  and  O_5 
REMARK    3  A    between atoms: C_6  and  C_11 
REMARK    4  A    between atoms: C_8  and  C_9 
REMARK    5  A    between atoms: C_17  and  C_18 
ROOT
HETATM    1  C   UNL     1      -1.930  11.761  22.785  0.00  0.00     0.103 A 
HETATM    2  N   UNL     1      -2.480  11.030  21.800  0.00  0.00    -0.173 NA
HETATM    3  N   UNL     1      -1.620  11.101  20.794  0.00  0.00    -0.281 N 
HETATM    4  H   UNL     1      -1.864  10.620  19.935  0.00  0.00     0.189 HD
HETATM    5  C   UNL     1      -0.480  11.798  21.067  0.00  0.00     0.037 A 
HETATM    6  C   UNL     1       0.549  11.943  20.006  0.00  0.00     0.070 C 
HETATM    7  C   UNL     1      -0.620  12.241  22.382  0.00  0.00     0.032 A 
ENDROOT
BRANCH   1   8
HETATM    8  C   UNL     1      -2.635  11.818  24.081  0.00  0.00     0.029 A 
HETATM    9  C   UNL     1      -3.968  12.254  24.201  0.00  0.00     0.081 A 
HETATM   10  C   UNL     1      -4.656  12.138  25.413  0.00  0.00     0.074 A 
HETATM   11  C   UNL     1      -4.014  11.588  26.523  0.00  0.00     0.074 A 
HETATM   12  C   UNL     1      -2.681  11.171  26.454  0.00  0.00    -0.024 A 
HETATM   13  C   UNL     1      -2.002  11.303  25.227  0.00  0.00     0.026 A 
BRANCH   9  14
HETATM   14  O   UNL     1      -4.633  12.803  23.135  0.00  0.00    -0.360 OA
HETATM   15  H   UNL     1      -4.385  12.327  22.329  0.00  0.00     0.217 HD
ENDBRANCH   9  14
BRANCH  11  16
HETATM   16  O   UNL     1      -4.705  11.427  27.692  0.00  0.00    -0.360 OA
HETATM   17  H   UNL     1      -5.327  10.689  27.592  0.00  0.00     0.217 HD
ENDBRANCH  11  16
BRANCH  12  18
HETATM   18  C   UNL     1      -2.006  10.452  27.598  0.00  0.00     0.037 C 
HETATM   19  C   UNL     1      -0.834   9.564  27.201  0.00  0.00     0.010 C 
ENDBRANCH  12  18
ENDBRANCH   1   8
BRANCH   7  20
HETATM   20  C   UNL     1       0.409  12.971  23.131  0.00  0.00     0.017 A 
HETATM   21  C   UNL     1       1.305  12.322  23.991  0.00  0.00     0.127 A 
HETATM   22  F   UNL     1       1.188  11.011  24.249  0.00  0.00    -0.205 F 
HETATM   23  C   UNL     1       2.365  13.006  24.597  0.00  0.00     0.043 A 
HETATM   24  C   UNL     1       2.525  14.373  24.392  0.00  0.00     0.003 A 
HETATM   25  C   UNL     1       1.624  15.051  23.579  0.00  0.00     0.001 A 
HETATM   26  C   UNL     1       0.591  14.353  22.940  0.00  0.00     0.015 A 
ENDBRANCH   7  20
TORSDOF 5
ENDMDL
MODEL 2
REMARK VINA RESULT:    -7.262      2.965      3.779
REMARK INTER + INTRA:         -10.331
REMARK INTER:                  -8.972
REMARK INTRA:                  -1.358
REMARK UNBOUND:                -1.370
REMARK  5 active torsions:
REMARK  status: ('A' for Active; 'I' for Inactive)
REMARK    1  A    between atoms: O_1  and  C_2 
REMARK    2  A    between atoms: C_4  and  O_5 
REMARK    3  A    between atoms: C_6  and  C_11 
REMARK    4  A    between atoms: C_8  and  C_9 
REMARK    5  A    between atoms: C_17  and  C_18 
ROOT
HETATM    1  C   UNL     1      -3.952  14.338  22.872  0.00  0.00     0.103 A 
HETATM    2  N   UNL     1      -5.154  14.890  22.631  0.00  0.00    -0.173 NA
HETATM    3  N   UNL     1      -5.104  15.291  21.369  0.00  0.00    -0.281 N 
HETATM    4  H   UNL     1      -5.923  15.757  20.994  0.00  0.00     0.189 HD
HETATM    5  C   UNL     1      -3.945  14.985  20.718  0.00  0.00     0.037 A 
HETATM    6  C   UNL     1      -3.784  15.394  19.300  0.00  0.00     0.070 C 
HETATM    7  C   UNL     1      -3.151  14.331  21.661  0.00  0.00     0.032 A 
ENDROOT
BRANCH   1   8
HETATM    8  C   UNL     1      -3.722  13.729  24.198  0.00  0.00     0.029 A 
HETATM    9  C   UNL     1      -4.168  12.435  24.525  0.00  0.00     0.081 A 
HETATM   10  C   UNL     1      -3.790  11.828  25.727  0.00  0.00     0.074 A 
HETATM   11  C   UNL     1      -2.966  12.513  26.619  0.00  0.00     0.074 A 
HETATM   12  C   UNL     1      -2.527  13.812  26.346  0.00  0.00    -0.024 A 
HETATM   13  C   UNL     1      -2.924  14.411  25.134  0.00  0.00     0.026 A 
BRANCH   9  14
HETATM   14  O   UNL     1      -4.981  11.729  23.676  0.00  0.00    -0.360 OA
HETATM   15  H   UNL     1      -5.383  10.995  24.162  0.00  0.00     0.217 HD
ENDBRANCH   9  14
BRANCH  11  16
HETATM   16  O   UNL     1      -2.556  11.897  27.769  0.00  0.00    -0.360 OA
HETATM   17  H   UNL     1      -1.708  11.454  27.605  0.00  0.00     0.217 HD
ENDBRANCH  11  16
BRANCH  12  18
HETATM   18  C   UNL     1      -1.529  14.524  27.229  0.00  0.00     0.037 C 
HETATM   19  C   UNL     1      -0.419  15.257  26.488  0.00  0.00     0.010 C 
ENDBRANCH  12  18
ENDBRANCH   1   8
BRANCH   7  20
HETATM   20  C   UNL     1      -1.836  13.745  21.380  0.00  0.00     0.017 A 
HETATM   21  C   UNL     1      -0.643  14.385  21.741  0.00  0.00     0.127 A 
HETATM   22  F   UNL     1      -0.654  15.619  22.266  0.00  0.00    -0.205 F 
HETATM   23  C   UNL     1       0.600  13.760  21.590  0.00  0.00     0.043 A 
HETATM   24  C   UNL     1       0.681  12.490  21.025  0.00  0.00     0.003 A 
HETATM   25  C   UNL     1      -0.483  11.850  20.616  0.00  0.00     0.001 A 
HETATM   26  C   UNL     1      -1.728  12.463  20.812  0.00  0.00     0.015 A 
ENDBRANCH   7  20
TORSDOF 5
ENDMDL
MODEL 3
REMARK VINA RESULT:    -7.089      1.801      2.341
REMARK INTER + INTRA:         -10.117
REMARK INTER:                  -8.804
REMARK INTRA:                  -1.313
REMARK UNBOUND:                -1.370
REMARK  5 active torsions:
REMARK  status: ('A' for Active; 'I' for Inactive)
REMARK    1  A    between atoms: O_1  and  C_2 
REMARK    2  A    between atoms: C_4  and  O_5 
REMARK    3  A    between atoms: C_6  and  C_11 
REMARK    4  A    between atoms: C_8  and  C_9 
REMARK    5  A    between atoms: C_17  and  C_18 
ROOT
HETATM    1  C   UNL     1      -1.700  11.916  22.521  0.00  0.00     0.103 A 
HETATM    2  N   UNL     1      -2.380  11.203  21.606  0.00  0.00    -0.173 NA
HETATM    3  N   UNL     1      -1.571  11.123  20.558  0.00  0.00    -0.281 N 
HETATM    4  H   UNL     1      -1.912  10.630  19.740  0.00  0.00     0.189 HD
HETATM    5  C   UNL     1      -0.347  11.698  20.738  0.00  0.00     0.037 A 
HETATM    6  C   UNL     1       0.634  11.669  19.624  0.00  0.00     0.070 C 
HETATM    7  C   UNL     1      -0.368  12.221  22.031  0.00  0.00     0.032 A 
ENDROOT
BRANCH   1   8
HETATM    8  C   UNL     1      -2.325  12.119  23.843  0.00  0.00     0.029 A 
HETATM    9  C   UNL     1      -3.131  11.142  24.459  0.00  0.00     0.081 A 
HETATM   10  C   UNL     1      -3.569  11.299  25.778  0.00  0.00     0.074 A 
HETATM   11  C   UNL     1      -3.209  12.441  26.495  0.00  0.00     0.074 A 
HETATM   12  C   UNL     1      -2.436  13.448  25.910  0.00  0.00    -0.024 A 
HETATM   13  C   UNL     1      -2.011  13.277  24.578  0.00  0.00     0.026 A 
BRANCH   9  14
HETATM   14  O   UNL     1      -3.508  10.008  23.788  0.00  0.00    -0.360 OA
HETATM   15  H   UNL     1      -4.469  10.014  23.671  0.00  0.00     0.217 HD
ENDBRANCH   9  14
BRANCH  11  16
HETATM   16  O   UNL     1      -3.594  12.567  27.801  0.00  0.00    -0.360 OA
HETATM   17  H   UNL     1      -4.557  12.683  27.836  0.00  0.00     0.217 HD
ENDBRANCH  11  16
BRANCH  12  18
HETATM   18  C   UNL     1      -1.923  14.627  26.702  0.00  0.00     0.037 C 
HETATM   19  C   UNL     1      -0.573  15.170  26.251  0.00  0.00     0.010 C 
ENDBRANCH  12  18
ENDBRANCH   1   8
BRANCH   7  20
HETATM   20  C   UNL     1       0.775  12.865  22.689  0.00  0.00     0.017 A 
HETATM   21  C   UNL     1       1.303  14.082  22.240  0.00  0.00     0.127 A 
HETATM   22  F   UNL     1       0.850  14.658  21.116  0.00  0.00    -0.205 F 
HETATM   23  C   UNL     1       2.304  14.754  22.950  0.00  0.00     0.043 A 
HETATM   24  C   UNL     1       2.836  14.195  24.109  0.00  0.00     0.003 A 
HETATM   25  C   UNL     1       2.362  12.966  24.553  0.00  0.00     0.001 A 
HETATM   26  C   UNL     1       1.328  12.320  23.862  0.00  0.00     0.015 A 
ENDBRANCH   7  20
TORSDOF 5
ENDMDL
MODEL 4
REMARK VINA RESULT:    -7.068      2.704      5.624
REMARK INTER + INTRA:         -10.091
REMARK INTER:                  -8.625
REMARK INTRA:                  -1.466
REMARK UNBOUND:                -1.370
REMARK  5 active torsions:
REMARK  status: ('A' for Active; 'I' for Inactive)
REMARK    1  A    between atoms: O_1  and  C_2 
REMARK    2  A    between atoms: C_4  and  O_5 
REMARK    3  A    between atoms: C_6  and  C_11 
REMARK    4  A    between atoms: C_8  and  C_9 
REMARK    5  A    between atoms: C_17  and  C_18 
ROOT
HETATM    1  C   UNL     1      -2.848  12.897  25.010  0.00  0.00     0.103 A 
HETATM    2  N   UNL     1      -4.014  13.566  25.048  0.00  0.00    -0.173 NA
HETATM    3  N   UNL     1      -4.900  12.692  25.503  0.00  0.00    -0.281 N 
HETATM    4  H   UNL     1      -5.862  13.003  25.590  0.00  0.00     0.189 HD
HETATM    5  C   UNL     1      -4.382  11.474  25.834  0.00  0.00     0.037 A 
HETATM    6  C   UNL     1      -5.291  10.420  26.350  0.00  0.00     0.070 C 
HETATM    7  C   UNL     1      -3.019  11.560  25.549  0.00  0.00     0.032 A 
ENDROOT
BRANCH   1   8
HETATM    8  C   UNL     1      -1.638  13.638  24.601  0.00  0.00     0.029 A 
HETATM    9  C   UNL     1      -0.986  14.553  25.450  0.00  0.00     0.081 A 
HETATM   10  C   UNL     1       0.246  15.109  25.095  0.00  0.00     0.074 A 
HETATM   11  C   UNL     1       0.839  14.761  23.881  0.00  0.00     0.074 A 
HETATM   12  C   UNL     1       0.210  13.880  22.996  0.00  0.00    -0.024 A 
HETATM   13  C   UNL     1      -1.035  13.336  23.367  0.00  0.00     0.026 A 
BRANCH   9  14
HETATM   14  O   UNL     1      -1.536  14.922  26.650  0.00  0.00    -0.360 OA
HETATM   15  H   UNL     1      -1.322  15.850  26.824  0.00  0.00     0.217 HD
ENDBRANCH   9  14
BRANCH  11  16
HETATM   16  O   UNL     1       2.068  15.266  23.560  0.00  0.00    -0.360 OA
HETATM   17  H   UNL     1       1.970  15.898  22.830  0.00  0.00     0.217 HD
ENDBRANCH  11  16
BRANCH  12  18
HETATM   18  C   UNL     1       0.888  13.385  21.740  0.00  0.00     0.037 C 
HETATM   19  C   UNL     1       0.306  12.105  21.154  0.00  0.00     0.010 C 
ENDBRANCH  12  18
ENDBRANCH   1   8
BRANCH   7  20
HETATM   20  C   UNL     1      -2.042  10.501  25.824  0.00  0.00     0.017 A 
HETATM   21  C   UNL     1      -1.350   9.841  24.800  0.00  0.00     0.127 A 
HETATM   22  F   UNL     1      -1.635  10.078  23.512  0.00  0.00    -0.205 F 
HETATM   23  C   UNL     1      -0.326   8.929  25.077  0.00  0.00     0.043 A 
HETATM   24  C   UNL     1      -0.001   8.619  26.395  0.00  0.00     0.003 A 
HETATM   25  C   UNL     1      -0.702   9.225  27.431  0.00  0.00     0.001 A 
HETATM   26  C   UNL     1      -1.696  10.171  27.148  0.00  0.00     0.015 A 
ENDBRANCH   7  20
TORSDOF 5
ENDMDL
MODEL 5
REMARK VINA RESULT:    -7.014      2.581      4.280
REMARK INTER + INTRA:         -10.025
REMARK INTER:                  -8.605
REMARK INTRA:                  -1.420
REMARK UNBOUND:                -1.370
REMARK  5 active torsions:
REMARK  status: ('A' for Active; 'I' for Inactive)
REMARK    1  A    between atoms: O_1  and  C_2 
REMARK    2  A    between atoms: C_4  and  O_5 
REMARK    3  A    between atoms: C_6  and  C_11 
REMARK    4  A    between atoms: C_8  and  C_9 
REMARK    5  A    between atoms: C_17  and  C_18 
ROOT
HETATM    1  C   UNL     1      -1.815  11.227  23.395  0.00  0.00     0.103 A 
HETATM    2  N   UNL     1      -2.266  10.116  24.003  0.00  0.00    -0.173 NA
HETATM    3  N   UNL     1      -1.189   9.370  24.205  0.00  0.00    -0.281 N 
HETATM    4  H   UNL     1      -1.322   8.466  24.646  0.00  0.00     0.189 HD
HETATM    5  C   UNL     1      -0.015   9.947  23.817  0.00  0.00     0.037 A 
HETATM    6  C   UNL     1       1.252   9.194  23.994  0.00  0.00     0.070 C 
HETATM    7  C   UNL     1      -0.367  11.190  23.292  0.00  0.00     0.032 A 
ENDROOT
BRANCH   1   8
HETATM    8  C   UNL     1      -2.788  12.297  23.097  0.00  0.00     0.029 A 
HETATM    9  C   UNL     1      -3.392  13.074  24.103  0.00  0.00     0.081 A 
HETATM   10  C   UNL     1      -4.179  14.184  23.779  0.00  0.00     0.074 A 
HETATM   11  C   UNL     1      -4.376  14.526  22.441  0.00  0.00     0.074 A 
HETATM   12  C   UNL     1      -3.818  13.762  21.410  0.00  0.00    -0.024 A 
HETATM   13  C   UNL     1      -3.036  12.642  21.756  0.00  0.00     0.026 A 
BRANCH   9  14
HETATM   14  O   UNL     1      -3.226  12.770  25.430  0.00  0.00    -0.360 OA
HETATM   15  H   UNL     1      -2.313  12.484  25.576  0.00  0.00     0.217 HD
ENDBRANCH   9  14
BRANCH  11  16
HETATM   16  O   UNL     1      -5.101  15.641  22.128  0.00  0.00    -0.360 OA
HETATM   17  H   UNL     1      -4.733  16.402  22.605  0.00  0.00     0.217 HD
ENDBRANCH  11  16
BRANCH  12  18
HETATM   18  C   UNL     1      -3.904  14.184  19.963  0.00  0.00     0.037 C 
HETATM   19  C   UNL     1      -5.168  13.745  19.236  0.00  0.00     0.010 C 
ENDBRANCH  12  18
ENDBRANCH   1   8
BRANCH   7  20
HETATM   20  C   UNL     1       0.590  12.198  22.821  0.00  0.00     0.017 A 
HETATM   21  C   UNL     1       0.696  12.550  21.469  0.00  0.00     0.127 A 
HETATM   22  F   UNL     1      -0.004  11.897  20.530  0.00  0.00    -0.205 F 
HETATM   23  C   UNL     1       1.515  13.603  21.048  0.00  0.00     0.043 A 
HETATM   24  C   UNL     1       2.288  14.302  21.970  0.00  0.00     0.003 A 
HETATM   25  C   UNL     1       2.237  13.944  23.313  0.00  0.00     0.001 A 
HETATM   26  C   UNL     1       1.381  12.918  23.735  0.00  0.00     0.015 A 
ENDBRANCH   7  20
TORSDOF 5
ENDMDL
MODEL 6
REMARK VINA RESULT:    -6.891      2.422      2.939
REMARK INTER + INTRA:          -9.873
REMARK INTER:                  -8.561
REMARK INTRA:                  -1.312
REMARK UNBOUND:                -1.370
REMARK  5 active torsions:
REMARK  status: ('A' for Active; 'I' for Inactive)
REMARK    1  A    between atoms: O_1  and  C_2 
REMARK    2  A    between atoms: C_4  and  O_5 
REMARK    3  A    between atoms: C_6  and  C_11 
REMARK    4  A    between atoms: C_8  and  C_9 
REMARK    5  A    between atoms: C_17  and  C_18 
ROOT
HETATM    1  C   UNL     1      -3.297  12.988  23.288  0.00  0.00     0.103 A 
HETATM    2  N   UNL     1      -4.489  12.685  22.746  0.00  0.00    -0.173 NA
HETATM    3  N   UNL     1      -4.587  13.454  21.671  0.00  0.00    -0.281 N 
HETATM    4  H   UNL     1      -5.438  13.386  21.123  0.00  0.00     0.189 HD
HETATM    5  C   UNL     1      -3.492  14.226  21.421  0.00  0.00     0.037 A 
HETATM    6  C   UNL     1      -3.499  15.130  20.242  0.00  0.00     0.070 C 
HETATM    7  C   UNL     1      -2.593  13.942  22.449  0.00  0.00     0.032 A 
ENDROOT
BRANCH   1   8
HETATM    8  C   UNL     1      -2.866  12.233  24.481  0.00  0.00     0.029 A 
HETATM    9  C   UNL     1      -3.709  12.020  25.588  0.00  0.00     0.081 A 
HETATM   10  C   UNL     1      -3.329  11.163  26.626  0.00  0.00     0.074 A 
HETATM   11  C   UNL     1      -2.096  10.512  26.570  0.00  0.00     0.074 A 
HETATM   12  C   UNL     1      -1.217  10.720  25.502  0.00  0.00    -0.024 A 
HETATM   13  C   UNL     1      -1.613  11.593  24.470  0.00  0.00     0.026 A 
BRANCH   9  14
HETATM   14  O   UNL     1      -4.927  12.642  25.683  0.00  0.00    -0.360 OA
HETATM   15  H   UNL     1      -5.625  12.004  25.478  0.00  0.00     0.217 HD
ENDBRANCH   9  14
BRANCH  11  16
HETATM   16  O   UNL     1      -1.750   9.634  27.559  0.00  0.00    -0.360 OA
HETATM   17  H   UNL     1      -2.400   8.914  27.584  0.00  0.00     0.217 HD
ENDBRANCH  11  16
BRANCH  12  18
HETATM   18  C   UNL     1       0.061   9.929  25.350  0.00  0.00     0.037 C 
HETATM   19  C   UNL     1       0.052   8.898  24.229  0.00  0.00     0.010 C 
ENDBRANCH  12  18
ENDBRANCH   1   8
BRANCH   7  20
HETATM   20  C   UNL     1      -1.234  14.488  22.544  0.00  0.00     0.017 A 
HETATM   21  C   UNL     1      -0.809  15.239  23.648  0.00  0.00     0.127 A 
HETATM   22  F   UNL     1      -1.667  15.582  24.620  0.00  0.00    -0.205 F 
HETATM   23  C   UNL     1       0.523  15.642  23.791  0.00  0.00     0.043 A 
HETATM   24  C   UNL     1       1.456  15.341  22.803  0.00  0.00     0.003 A 
HETATM   25  C   UNL     1       1.052  14.636  21.675  0.00  0.00     0.001 A 
HETATM   26  C   UNL     1      -0.273  14.196  21.559  0.00  0.00     0.015 A 
ENDBRANCH   7  20
TORSDOF 5
ENDMDL
MODEL 7
REMARK VINA RESULT:    -6.873      2.490      3.777
REMARK INTER + INTRA:          -9.851
REMARK INTER:                  -8.605
REMARK INTRA:                  -1.246
REMARK UNBOUND:                -1.370
REMARK  5 active torsions:
REMARK  status: ('A' for Active; 'I' for Inactive)
REMARK    1  A    between atoms: O_1  and  C_2 
REMARK    2  A    between atoms: C_4  and  O_5 
REMARK    3  A    between atoms: C_6  and  C_11 
REMARK    4  A    between atoms: C_8  and  C_9 
REMARK    5  A    between atoms: C_17  and  C_18 
ROOT
HETATM    1  C   UNL     1      -2.984  12.594  24.908  0.00  0.00     0.103 A 
HETATM    2  N   UNL     1      -4.206  13.017  25.275  0.00  0.00    -0.173 NA
HETATM    3  N   UNL     1      -4.602  13.823  24.300  0.00  0.00    -0.281 N 
HETATM    4  H   UNL     1      -5.509  14.267  24.398  0.00  0.00     0.189 HD
HETATM    5  C   UNL     1      -3.731  13.923  23.255  0.00  0.00     0.037 A 
HETATM    6  C   UNL     1      -4.076  14.805  22.111  0.00  0.00     0.070 C 
HETATM    7  C   UNL     1      -2.649  13.111  23.593  0.00  0.00     0.032 A 
ENDROOT
BRANCH   1   8
HETATM    8  C   UNL     1      -2.301  11.614  25.775  0.00  0.00     0.029 A 
HETATM    9  C   UNL     1      -2.590  11.484  27.147  0.00  0.00     0.081 A 
HETATM   10  C   UNL     1      -2.048  10.438  27.899  0.00  0.00     0.074 A 
HETATM   11  C   UNL     1      -1.203   9.511  27.288  0.00  0.00     0.074 A 
HETATM   12  C   UNL     1      -0.867   9.622  25.935  0.00  0.00    -0.024 A 
HETATM   13  C   UNL     1      -1.416  10.687  25.195  0.00  0.00     0.026 A 
BRANCH   9  14
HETATM   14  O   UNL     1      -3.414  12.375  27.785  0.00  0.00    -0.360 OA
HETATM   15  H   UNL     1      -3.181  13.274  27.510  0.00  0.00     0.217 HD
ENDBRANCH   9  14
BRANCH  11  16
HETATM   16  O   UNL     1      -0.717   8.459  28.014  0.00  0.00    -0.360 OA
HETATM   17  H   UNL     1      -1.389   8.180  28.655  0.00  0.00     0.217 HD
ENDBRANCH  11  16
BRANCH  12  18
HETATM   18  C   UNL     1      -0.064   8.561  25.219  0.00  0.00     0.037 C 
HETATM   19  C   UNL     1       0.501   8.981  23.869  0.00  0.00     0.010 C 
ENDBRANCH  12  18
ENDBRANCH   1   8
BRANCH   7  20
HETATM   20  C   UNL     1      -1.499  12.848  22.720  0.00  0.00     0.017 A 
HETATM   21  C   UNL     1      -1.547  11.900  21.690  0.00  0.00     0.127 A 
HETATM   22  F   UNL     1      -2.619  11.113  21.527  0.00  0.00    -0.205 F 
HETATM   23  C   UNL     1      -0.493  11.751  20.781  0.00  0.00     0.043 A 
HETATM   24  C   UNL     1       0.660  12.520  20.913  0.00  0.00     0.003 A 
HETATM   25  C   UNL     1       0.753  13.436  21.954  0.00  0.00     0.001 A 
HETATM   26  C   UNL     1      -0.323  13.613  22.834  0.00  0.00     0.015 A 
ENDBRANCH   7  20
TORSDOF 5
ENDMDL
MODEL 8
REMARK VINA RESULT:    -6.843      2.277      2.882
REMARK INTER + INTRA:          -9.813
REMARK INTER:                  -8.406
REMARK INTRA:                  -1.408
REMARK UNBOUND:                -1.370
REMARK  5 active torsions:
REMARK  status: ('A' for Active; 'I' for Inactive)
REMARK    1  A    between atoms: O_1  and  C_2 
REMARK    2  A    between atoms: C_4  and  O_5 
REMARK    3  A    between atoms: C_6  and  C_11 
REMARK    4  A    between atoms: C_8  and  C_9 
REMARK    5  A    between atoms: C_17  and  C_18 
ROOT
HETATM    1  C   UNL     1      -3.389  12.840  23.265  0.00  0.00     0.103 A 
HETATM    2  N   UNL     1      -4.670  12.685  22.889  0.00  0.00    -0.173 NA
HETATM    3  N   UNL     1      -4.799  13.414  21.789  0.00  0.00    -0.281 N 
HETATM    4  H   UNL     1      -5.714  13.443  21.352  0.00  0.00     0.189 HD
HETATM    5  C   UNL     1      -3.650  14.013  21.364  0.00  0.00     0.037 A 
HETATM    6  C   UNL     1      -3.686  14.857  20.144  0.00  0.00     0.070 C 
HETATM    7  C   UNL     1      -2.675  13.649  22.293  0.00  0.00     0.032 A 
ENDROOT
BRANCH   1   8
HETATM    8  C   UNL     1      -2.916  12.083  24.441  0.00  0.00     0.029 A 
HETATM    9  C   UNL     1      -3.688  11.938  25.610  0.00  0.00     0.081 A 
HETATM   10  C   UNL     1      -3.282  11.080  26.637  0.00  0.00     0.074 A 
HETATM   11  C   UNL     1      -2.095  10.359  26.508  0.00  0.00     0.074 A 
HETATM   12  C   UNL     1      -1.284  10.498  25.377  0.00  0.00    -0.024 A 
HETATM   13  C   UNL     1      -1.704  11.374  24.356  0.00  0.00     0.026 A 
BRANCH   9  14
HETATM   14  O   UNL     1      -4.860  12.630  25.776  0.00  0.00    -0.360 OA
HETATM   15  H   UNL     1      -5.255  12.384  26.625  0.00  0.00     0.217 HD
ENDBRANCH   9  14
BRANCH  11  16
HETATM   16  O   UNL     1      -1.728   9.481  27.489  0.00  0.00    -0.360 OA
HETATM   17  H   UNL     1      -0.989   9.860  27.992  0.00  0.00     0.217 HD
ENDBRANCH  11  16
BRANCH  12  18
HETATM   18  C   UNL     1      -0.066   9.634  25.153  0.00  0.00     0.037 C 
HETATM   19  C   UNL     1       0.576   9.767  23.778  0.00  0.00     0.010 C 
ENDBRANCH  12  18
ENDBRANCH   1   8
BRANCH   7  20
HETATM   20  C   UNL     1      -1.255  14.002  22.193  0.00  0.00     0.017 A 
HETATM   21  C   UNL     1      -0.322  13.165  21.568  0.00  0.00     0.127 A 
HETATM   22  F   UNL     1      -0.673  11.948  21.127  0.00  0.00    -0.205 F 
HETATM   23  C   UNL     1       1.002  13.568  21.360  0.00  0.00     0.043 A 
HETATM   24  C   UNL     1       1.437  14.809  21.819  0.00  0.00     0.003 A 
HETATM   25  C   UNL     1       0.543  15.642  22.483  0.00  0.00     0.001 A 
HETATM   26  C   UNL     1      -0.792  15.250  22.648  0.00  0.00     0.015 A 
ENDBRANCH   7  20
TORSDOF 5
ENDMDL
MODEL 9
REMARK VINA RESULT:    -6.838      2.581      3.123
REMARK INTER + INTRA:          -9.808
REMARK INTER:                  -8.437
REMARK INTRA:                  -1.370
REMARK UNBOUND:                -1.370
REMARK  5 active torsions:
REMARK  status: ('A' for Active; 'I' for Inactive)
REMARK    1  A    between atoms: O_1  and  C_2 
REMARK    2  A    between atoms: C_4  and  O_5 
REMARK    3  A    between atoms: C_6  and  C_11 
REMARK    4  A    between atoms: C_8  and  C_9 
REMARK    5  A    between atoms: C_17  and  C_18 
ROOT
HETATM    1  C   UNL     1      -3.399  13.231  22.967  0.00  0.00     0.103 A 
HETATM    2  N   UNL     1      -4.551  13.003  22.311  0.00  0.00    -0.173 NA
HETATM    3  N   UNL     1      -4.514  13.809  21.258  0.00  0.00    -0.281 N 
HETATM    4  H   UNL     1      -5.314  13.799  20.634  0.00  0.00     0.189 HD
HETATM    5  C   UNL     1      -3.365  14.532  21.133  0.00  0.00     0.037 A 
HETATM    6  C   UNL     1      -3.223  15.469  19.990  0.00  0.00     0.070 C 
HETATM    7  C   UNL     1      -2.578  14.172  22.227  0.00  0.00     0.032 A 
ENDROOT
BRANCH   1   8
HETATM    8  C   UNL     1      -3.115  12.419  24.167  0.00  0.00     0.029 A 
HETATM    9  C   UNL     1      -2.683  11.081  24.093  0.00  0.00     0.081 A 
HETATM   10  C   UNL     1      -2.264  10.397  25.239  0.00  0.00     0.074 A 
HETATM   11  C   UNL     1      -2.279  11.044  26.475  0.00  0.00     0.074 A 
HETATM   12  C   UNL     1      -2.730  12.362  26.596  0.00  0.00    -0.024 A 
HETATM   13  C   UNL     1      -3.156  13.033  25.433  0.00  0.00     0.026 A 
BRANCH   9  14
HETATM   14  O   UNL     1      -2.655  10.410  22.898  0.00  0.00    -0.360 OA
HETATM   15  H   UNL     1      -3.240  10.859  22.270  0.00  0.00     0.217 HD
ENDBRANCH   9  14
BRANCH  11  16
HETATM   16  O   UNL     1      -1.820  10.390  27.585  0.00  0.00    -0.360 OA
HETATM   17  H   UNL     1      -2.195   9.495  27.602  0.00  0.00     0.217 HD
ENDBRANCH  11  16
BRANCH  12  18
HETATM   18  C   UNL     1      -2.632  13.127  27.895  0.00  0.00     0.037 C 
HETATM   19  C   UNL     1      -2.043  14.527  27.777  0.00  0.00     0.010 C 
ENDBRANCH  12  18
ENDBRANCH   1   8
BRANCH   7  20
HETATM   20  C   UNL     1      -1.209  14.646  22.462  0.00  0.00     0.017 A 
HETATM   21  C   UNL     1      -0.843  15.312  23.638  0.00  0.00     0.127 A 
HETATM   22  F   UNL     1      -1.761  15.641  24.559  0.00  0.00    -0.205 F 
HETATM   23  C   UNL     1       0.489  15.642  23.911  0.00  0.00     0.043 A 
HETATM   24  C   UNL     1       1.486  15.352  22.983  0.00  0.00     0.003 A 
HETATM   25  C   UNL     1       1.145  14.732  21.786  0.00  0.00     0.001 A 
HETATM   26  C   UNL     1      -0.184  14.364  21.540  0.00  0.00     0.015 A 
ENDBRANCH   7  20
TORSDOF 5
ENDMDL
