MODEL 1
REMARK VINA RESULT:    -9.993      0.000      0.000
REMARK INTER + INTRA:         -13.333
REMARK INTER:                 -12.052
REMARK INTRA:                  -1.282
REMARK UNBOUND:                -0.711
REMARK  5 active torsions:
REMARK  status: ('A' for Active; 'I' for Inactive)
REMARK       I    between atoms: C_2  and  N_3 
REMARK    1  A    between atoms: C_2  and  C_15 
REMARK    2  A    between atoms: N_3  and  C_5 
REMARK    3  A    between atoms: C_16  and  O_17 
REMARK    4  A    between atoms: C_23  and  C_24 
REMARK    5  A    between atoms: C_24  and  C_25 
ROOT
HETATM    1  C   UNL     1      -2.799  13.377  21.864  0.00  0.00     0.066 C 
HETATM    2  C   UNL     1      -4.149  13.725  21.954  0.00  0.00     0.083 C 
HETATM    3  C   UNL     1      -4.659  14.874  21.337  0.00  0.00     0.069 C 
HETATM    4  C   UNL     1      -3.753  15.741  20.727  0.00  0.00     0.065 A 
HETATM    5  N   UNL     1      -3.947  16.945  20.112  0.00  0.00    -0.277 N 
HETATM    6  H   UNL     1      -4.825  17.430  19.970  0.00  0.00     0.189 HD
HETATM    7  N   UNL     1      -2.823  17.554  19.724  0.00  0.00    -0.178 NA
HETATM    8  C   UNL     1      -1.840  16.715  20.095  0.00  0.00     0.071 A 
HETATM    9  C   UNL     1      -2.375  15.529  20.710  0.00  0.00     0.020 A 
HETATM   10  C   UNL     1      -1.897  14.325  21.288  0.00  0.00     0.035 C 
ENDROOT
BRANCH   1  11
HETATM   11  C   UNL     1      -2.195  12.111  22.424  0.00  0.00     0.260 C 
HETATM   12  O   UNL     1      -2.539  11.091  21.822  0.00  0.00    -0.267 OA
HETATM   13  N   UNL     1      -1.344  12.098  23.571  0.00  0.00    -0.318 N 
HETATM   14  C   UNL     1      -1.154  13.272  24.440  0.00  0.00     0.159 C 
BRANCH  13  15
HETATM   15  C   UNL     1      -0.702  10.862  24.033  0.00  0.00     0.039 A 
HETATM   16  C   UNL     1      -1.088  10.202  25.213  0.00  0.00     0.069 A 
HETATM   17  C   UNL     1      -0.455   9.025  25.644  0.00  0.00     0.104 A 
HETATM   18  O   UNL     1      -0.938   8.446  26.794  0.00  0.00    -0.346 OA
HETATM   19  C   UNL     1       0.611   8.492  24.926  0.00  0.00     0.102 A 
HETATM   20  C   UNL     1      -0.462   7.102  26.939  0.00  0.00     0.202 C 
HETATM   21  C   UNL     1       1.031   7.034  26.673  0.00  0.00     0.202 C 
HETATM   22  O   UNL     1       1.311   7.380  25.311  0.00  0.00    -0.346 OA
HETATM   23  C   UNL     1       0.995   9.095  23.737  0.00  0.00     0.042 A 
HETATM   24  C   UNL     1       0.337  10.249  23.296  0.00  0.00     0.032 A 
ENDBRANCH  13  15
ENDBRANCH   1  11
BRANCH   2  25
HETATM   25  O   UNL     1      -5.075  13.019  22.681  0.00  0.00    -0.360 OA
HETATM   26  H   UNL     1      -4.858  13.110  23.627  0.00  0.00     0.217 HD
ENDBRANCH   2  25
BRANCH   8  27
HETATM   27  C   UNL     1      -0.442  17.221  19.959  0.00  0.00     0.100 C 
BRANCH  27  28
HETATM   28  C   UNL     1       0.424  16.740  21.092  0.00  0.00    -0.052 A 
HETATM   29  C   UNL     1       1.480  15.866  20.804  0.00  0.00     0.014 A 
HETATM   30  C   UNL     1       2.148  15.178  21.821  0.00  0.00    -0.061 A 
HETATM   31  C   UNL     1       3.153  14.123  21.467  0.00  0.00     0.048 C 
HETATM   32  C   UNL     1       1.829  15.453  23.154  0.00  0.00     0.007 A 
HETATM   33  C   UNL     1       0.813  16.362  23.459  0.00  0.00     0.001 A 
HETATM   34  C   UNL     1       0.099  16.989  22.434  0.00  0.00     0.007 A 
ENDBRANCH  27  28
ENDBRANCH   8  27
TORSDOF 5
ENDMDL
MODEL 2
REMARK VINA RESULT:    -9.662      1.331      1.465
REMARK INTER + INTRA:         -12.915
REMARK INTER:                 -11.832
REMARK INTRA:                  -1.083
REMARK UNBOUND:                -0.711
REMARK  5 active torsions:
REMARK  status: ('A' for Active; 'I' for Inactive)
REMARK       I    between atoms: C_2  and  N_3 
REMARK    1  A    between atoms: C_2  and  C_15 
REMARK    2  A    between atoms: N_3  and  C_5 
REMARK    3  A    between atoms: C_16  and  O_17 
REMARK    4  A    between atoms: C_23  and  C_24 
REMARK    5  A    between atoms: C_24  and  C_25 
ROOT
HETATM    1  C   UNL     1      -2.368  13.924  22.974  0.00  0.00     0.066 C 
HETATM    2  C   UNL     1      -3.765  13.953  22.979  0.00  0.00     0.083 C 
HETATM    3  C   UNL     1      -4.493  14.696  22.042  0.00  0.00     0.069 C 
HETATM    4  C   UNL     1      -3.779  15.517  21.169  0.00  0.00     0.065 A 
HETATM    5  N   UNL     1      -4.213  16.388  20.209  0.00  0.00    -0.277 N 
HETATM    6  H   UNL     1      -5.171  16.581  19.940  0.00  0.00     0.189 HD
HETATM    7  N   UNL     1      -3.241  17.092  19.623  0.00  0.00    -0.178 NA
HETATM    8  C   UNL     1      -2.112  16.668  20.219  0.00  0.00     0.071 A 
HETATM    9  C   UNL     1      -2.391  15.643  21.189  0.00  0.00     0.020 A 
HETATM   10  C   UNL     1      -1.680  14.829  22.109  0.00  0.00     0.035 C 
ENDROOT
BRANCH   1  11
HETATM   11  C   UNL     1      -1.520  13.077  23.894  0.00  0.00     0.260 C 
HETATM   12  O   UNL     1      -1.034  13.706  24.837  0.00  0.00    -0.267 OA
HETATM   13  N   UNL     1      -1.269  11.691  23.661  0.00  0.00    -0.318 N 
HETATM   14  C   UNL     1      -1.624  11.014  22.401  0.00  0.00     0.159 C 
BRANCH  13  15
HETATM   15  C   UNL     1      -0.516  10.878  24.623  0.00  0.00     0.039 A 
HETATM   16  C   UNL     1      -1.124  10.244  25.721  0.00  0.00     0.069 A 
HETATM   17  C   UNL     1      -0.385   9.478  26.637  0.00  0.00     0.104 A 
HETATM   18  O   UNL     1      -1.089   8.875  27.653  0.00  0.00    -0.346 OA
HETATM   19  C   UNL     1       0.994   9.353  26.502  0.00  0.00     0.102 A 
HETATM   20  C   UNL     1      -0.307   7.864  28.299  0.00  0.00     0.202 C 
HETATM   21  C   UNL     1       1.089   8.382  28.600  0.00  0.00     0.202 C 
HETATM   22  O   UNL     1       1.789   8.669  27.383  0.00  0.00    -0.346 OA
HETATM   23  C   UNL     1       1.623   9.934  25.410  0.00  0.00     0.042 A 
HETATM   24  C   UNL     1       0.875  10.668  24.483  0.00  0.00     0.032 A 
ENDBRANCH  13  15
ENDBRANCH   1  11
BRANCH   2  25
HETATM   25  O   UNL     1      -4.540  13.312  23.913  0.00  0.00    -0.360 OA
HETATM   26  H   UNL     1      -4.713  13.929  24.648  0.00  0.00     0.217 HD
ENDBRANCH   2  25
BRANCH   8  27
HETATM   27  C   UNL     1      -0.864  17.422  19.899  0.00  0.00     0.100 C 
BRANCH  27  28
HETATM   28  C   UNL     1       0.267  17.011  20.802  0.00  0.00    -0.052 A 
HETATM   29  C   UNL     1       1.143  16.009  20.365  0.00  0.00     0.014 A 
HETATM   30  C   UNL     1       2.040  15.398  21.246  0.00  0.00    -0.061 A 
HETATM   31  C   UNL     1       2.839  14.213  20.788  0.00  0.00     0.048 C 
HETATM   32  C   UNL     1       2.141  15.872  22.557  0.00  0.00     0.007 A 
HETATM   33  C   UNL     1       1.309  16.906  22.994  0.00  0.00     0.001 A 
HETATM   34  C   UNL     1       0.363  17.461  22.127  0.00  0.00     0.007 A 
ENDBRANCH  27  28
ENDBRANCH   8  27
TORSDOF 5
ENDMDL
MODEL 3
REMARK VINA RESULT:    -9.524      1.352      2.190
REMARK INTER + INTRA:         -12.741
REMARK INTER:                 -11.613
REMARK INTRA:                  -1.128
REMARK UNBOUND:                -0.711
REMARK  5 active torsions:
REMARK  status: ('A' for Active; 'I' for Inactive)
REMARK       I    between atoms: C_2  and  N_3 
REMARK    1  A    between atoms: C_2  and  C_15 
REMARK    2  A    between atoms: N_3  and  C_5 
REMARK    3  A    between atoms: C_16  and  O_17 
REMARK    4  A    between atoms: C_23  and  C_24 
REMARK    5  A    between atoms: C_24  and  C_25 
ROOT
HETATM    1  C   UNL     1      -2.871  13.804  22.285  0.00  0.00     0.066 C 
HETATM    2  C   UNL     1      -4.100  14.043  21.663  0.00  0.00     0.083 C 
HETATM    3  C   UNL     1      -4.253  15.031  20.684  0.00  0.00     0.069 C 
HETATM    4  C   UNL     1      -3.165  15.866  20.427  0.00  0.00     0.065 A 
HETATM    5  N   UNL     1      -3.042  16.937  19.588  0.00  0.00    -0.277 N 
HETATM    6  H   UNL     1      -3.745  17.315  18.963  0.00  0.00     0.189 HD
HETATM    7  N   UNL     1      -1.870  17.573  19.673  0.00  0.00    -0.178 NA
HETATM    8  C   UNL     1      -1.184  16.891  20.608  0.00  0.00     0.071 A 
HETATM    9  C   UNL     1      -1.948  15.775  21.100  0.00  0.00     0.020 A 
HETATM   10  C   UNL     1      -1.805  14.724  22.042  0.00  0.00     0.035 C 
ENDROOT
BRANCH   1  11
HETATM   11  C   UNL     1      -2.609  12.700  23.282  0.00  0.00     0.260 C 
HETATM   12  O   UNL     1      -2.853  11.572  22.846  0.00  0.00    -0.267 OA
HETATM   13  N   UNL     1      -2.165  12.948  24.616  0.00  0.00    -0.318 N 
HETATM   14  C   UNL     1      -2.135  14.295  25.212  0.00  0.00     0.159 C 
BRANCH  13  15
HETATM   15  C   UNL     1      -1.833  11.847  25.528  0.00  0.00     0.039 A 
HETATM   16  C   UNL     1      -0.644  11.106  25.421  0.00  0.00     0.069 A 
HETATM   17  C   UNL     1      -0.348  10.049  26.297  0.00  0.00     0.104 A 
HETATM   18  O   UNL     1       0.861   9.416  26.121  0.00  0.00    -0.346 OA
HETATM   19  C   UNL     1      -1.252   9.678  27.288  0.00  0.00     0.102 A 
HETATM   20  C   UNL     1       1.198   8.614  27.259  0.00  0.00     0.202 C 
HETATM   21  C   UNL     1       0.006   7.779  27.696  0.00  0.00     0.202 C 
HETATM   22  O   UNL     1      -1.059   8.627  28.144  0.00  0.00    -0.346 OA
HETATM   23  C   UNL     1      -2.420  10.411  27.447  0.00  0.00     0.042 A 
HETATM   24  C   UNL     1      -2.692  11.483  26.591  0.00  0.00     0.032 A 
ENDBRANCH  13  15
ENDBRANCH   1  11
BRANCH   2  25
HETATM   25  O   UNL     1      -5.260  13.382  21.982  0.00  0.00    -0.360 OA
HETATM   26  H   UNL     1      -5.627  12.993  21.166  0.00  0.00     0.217 HD
ENDBRANCH   2  25
BRANCH   8  27
HETATM   27  C   UNL     1       0.107  17.489  21.058  0.00  0.00     0.100 C 
BRANCH  27  28
HETATM   28  C   UNL     1       1.212  16.467  21.050  0.00  0.00    -0.052 A 
HETATM   29  C   UNL     1       1.545  15.831  22.253  0.00  0.00     0.014 A 
HETATM   30  C   UNL     1       2.717  15.081  22.375  0.00  0.00    -0.061 A 
HETATM   31  C   UNL     1       3.129  14.560  23.720  0.00  0.00     0.048 C 
HETATM   32  C   UNL     1       3.514  14.871  21.246  0.00  0.00     0.007 A 
HETATM   33  C   UNL     1       3.168  15.456  20.025  0.00  0.00     0.001 A 
HETATM   34  C   UNL     1       2.033  16.266  19.931  0.00  0.00     0.007 A 
ENDBRANCH  27  28
ENDBRANCH   8  27
TORSDOF 5
ENDMDL
MODEL 4
REMARK VINA RESULT:    -9.208      0.699      1.317
REMARK INTER + INTRA:         -12.341
REMARK INTER:                 -11.436
REMARK INTRA:                  -0.905
REMARK UNBOUND:                -0.711
REMARK  5 active torsions:
REMARK  status: ('A' for Active; 'I' for Inactive)
REMARK       I    between atoms: C_2  and  N_3 
REMARK    1  A    between atoms: C_2  and  C_15 
REMARK    2  A    between atoms: N_3  and  C_5 
REMARK    3  A    between atoms: C_16  and  O_17 
REMARK    4  A    between atoms: C_23  and  C_24 
REMARK    5  A    between atoms: C_24  and  C_25 
ROOT
HETATM    1  C   UNL     1      -2.536  13.351  22.052  0.00  0.00     0.066 C 
HETATM    2  C   UNL     1      -3.868  13.708  21.828  0.00  0.00     0.083 C 
HETATM    3  C   UNL     1      -4.215  14.877  21.140  0.00  0.00     0.069 C 
HETATM    4  C   UNL     1      -3.187  15.751  20.786  0.00  0.00     0.065 A 
HETATM    5  N   UNL     1      -3.227  16.973  20.175  0.00  0.00    -0.277 N 
HETATM    6  H   UNL     1      -4.046  17.469  19.842  0.00  0.00     0.189 HD
HETATM    7  N   UNL     1      -2.042  17.583  20.082  0.00  0.00    -0.178 NA
HETATM    8  C   UNL     1      -1.177  16.725  20.653  0.00  0.00     0.071 A 
HETATM    9  C   UNL     1      -1.845  15.528  21.090  0.00  0.00     0.020 A 
HETATM   10  C   UNL     1      -1.521  14.306  21.733  0.00  0.00     0.035 C 
ENDROOT
BRANCH   1  11
HETATM   11  C   UNL     1      -2.085  12.065  22.705  0.00  0.00     0.260 C 
HETATM   12  O   UNL     1      -2.650  11.062  22.263  0.00  0.00    -0.267 OA
HETATM   13  N   UNL     1      -1.129  12.027  23.764  0.00  0.00    -0.318 N 
HETATM   14  C   UNL     1      -0.662  13.236  24.466  0.00  0.00     0.159 C 
BRANCH  13  15
HETATM   15  C   UNL     1      -0.646  10.754  24.313  0.00  0.00     0.039 A 
HETATM   16  C   UNL     1      -1.059  10.262  25.564  0.00  0.00     0.069 A 
HETATM   17  C   UNL     1      -0.579   9.047  26.077  0.00  0.00     0.104 A 
HETATM   18  O   UNL     1      -1.078   8.646  27.295  0.00  0.00    -0.346 OA
HETATM   19  C   UNL     1       0.360   8.302  25.369  0.00  0.00     0.102 A 
HETATM   20  C   UNL     1      -0.792   7.265  27.545  0.00  0.00     0.202 C 
HETATM   21  C   UNL     1       0.660   6.954  27.225  0.00  0.00     0.202 C 
HETATM   22  O   UNL     1       0.914   7.137  25.827  0.00  0.00    -0.346 OA
HETATM   23  C   UNL     1       0.762   8.738  24.114  0.00  0.00     0.042 A 
HETATM   24  C   UNL     1       0.253   9.933  23.595  0.00  0.00     0.032 A 
ENDBRANCH  13  15
ENDBRANCH   1  11
BRANCH   2  25
HETATM   25  O   UNL     1      -4.941  12.991  22.295  0.00  0.00    -0.360 OA
HETATM   26  H   UNL     1      -5.120  12.263  21.671  0.00  0.00     0.217 HD
ENDBRANCH   2  25
BRANCH   8  27
HETATM   27  C   UNL     1       0.214  17.222  20.866  0.00  0.00     0.100 C 
BRANCH  27  28
HETATM   28  C   UNL     1       1.182  16.081  21.023  0.00  0.00    -0.052 A 
HETATM   29  C   UNL     1       1.533  15.673  22.316  0.00  0.00     0.014 A 
HETATM   30  C   UNL     1       2.611  14.812  22.536  0.00  0.00    -0.061 A 
HETATM   31  C   UNL     1       3.066  14.535  23.938  0.00  0.00     0.048 C 
HETATM   32  C   UNL     1       3.282  14.263  21.439  0.00  0.00     0.007 A 
HETATM   33  C   UNL     1       2.911  14.620  20.140  0.00  0.00     0.001 A 
HETATM   34  C   UNL     1       1.879  15.540  19.932  0.00  0.00     0.007 A 
ENDBRANCH  27  28
ENDBRANCH   8  27
TORSDOF 5
ENDMDL
MODEL 5
REMARK VINA RESULT:    -9.196      2.466      4.105
REMARK INTER + INTRA:         -12.327
REMARK INTER:                 -11.283
REMARK INTRA:                  -1.044
REMARK UNBOUND:                -0.711
REMARK  5 active torsions:
REMARK  status: ('A' for Active; 'I' for Inactive)
REMARK       I    between atoms: C_2  and  N_3 
REMARK    1  A    between atoms: C_2  and  C_15 
REMARK    2  A    between atoms: N_3  and  C_5 
REMARK    3  A    between atoms: C_16  and  O_17 
REMARK    4  A    between atoms: C_23  and  C_24 
REMARK    5  A    between atoms: C_24  and  C_25 
ROOT
HETATM    1  C   UNL     1      -1.898  11.385  24.855  0.00  0.00     0.066 C 
HETATM    2  C   UNL     1      -2.484  12.079  25.917  0.00  0.00     0.083 C 
HETATM    3  C   UNL     1      -3.493  13.027  25.712  0.00  0.00     0.069 C 
HETATM    4  C   UNL     1      -3.818  13.357  24.396  0.00  0.00     0.065 A 
HETATM    5  N   UNL     1      -4.700  14.275  23.898  0.00  0.00    -0.277 N 
HETATM    6  H   UNL     1      -5.313  14.888  24.423  0.00  0.00     0.189 HD
HETATM    7  N   UNL     1      -4.679  14.395  22.568  0.00  0.00    -0.178 NA
HETATM    8  C   UNL     1      -3.744  13.516  22.165  0.00  0.00     0.071 A 
HETATM    9  C   UNL     1      -3.185  12.804  23.284  0.00  0.00     0.020 A 
HETATM   10  C   UNL     1      -2.211  11.801  23.525  0.00  0.00     0.035 C 
ENDROOT
BRANCH   1  11
HETATM   11  C   UNL     1      -0.871  10.287  25.005  0.00  0.00     0.260 C 
HETATM   12  O   UNL     1      -1.324   9.250  25.497  0.00  0.00    -0.267 OA
HETATM   13  N   UNL     1       0.502  10.455  24.652  0.00  0.00    -0.318 N 
HETATM   14  C   UNL     1       1.090  11.765  24.322  0.00  0.00     0.159 C 
BRANCH  13  15
HETATM   15  C   UNL     1       1.453   9.339  24.725  0.00  0.00     0.039 A 
HETATM   16  C   UNL     1       2.303   9.138  25.826  0.00  0.00     0.069 A 
HETATM   17  C   UNL     1       3.214   8.070  25.874  0.00  0.00     0.104 A 
HETATM   18  O   UNL     1       3.971   7.950  27.016  0.00  0.00    -0.346 OA
HETATM   19  C   UNL     1       3.327   7.189  24.802  0.00  0.00     0.102 A 
HETATM   20  C   UNL     1       4.591   6.661  27.096  0.00  0.00     0.202 C 
HETATM   21  C   UNL     1       5.229   6.292  25.768  0.00  0.00     0.202 C 
HETATM   22  O   UNL     1       4.226   6.158  24.752  0.00  0.00    -0.346 OA
HETATM   23  C   UNL     1       2.477   7.335  23.715  0.00  0.00     0.042 A 
HETATM   24  C   UNL     1       1.550   8.382  23.689  0.00  0.00     0.032 A 
ENDBRANCH  13  15
ENDBRANCH   1  11
BRANCH   2  25
HETATM   25  O   UNL     1      -2.101  11.939  27.227  0.00  0.00    -0.360 OA
HETATM   26  H   UNL     1      -2.799  11.449  27.702  0.00  0.00     0.217 HD
ENDBRANCH   2  25
BRANCH   8  27
HETATM   27  C   UNL     1      -3.361  13.561  20.723  0.00  0.00     0.100 C 
BRANCH  27  28
HETATM   28  C   UNL     1      -2.815  14.911  20.347  0.00  0.00    -0.052 A 
HETATM   29  C   UNL     1      -1.628  15.346  20.952  0.00  0.00     0.014 A 
HETATM   30  C   UNL     1      -1.212  16.677  20.855  0.00  0.00    -0.061 A 
HETATM   31  C   UNL     1      -0.035  17.146  21.656  0.00  0.00     0.048 C 
HETATM   32  C   UNL     1      -1.934  17.561  20.048  0.00  0.00     0.007 A 
HETATM   33  C   UNL     1      -3.091  17.129  19.395  0.00  0.00     0.001 A 
HETATM   34  C   UNL     1      -3.542  15.816  19.558  0.00  0.00     0.007 A 
ENDBRANCH  27  28
ENDBRANCH   8  27
TORSDOF 5
ENDMDL
MODEL 6
REMARK VINA RESULT:    -9.099      1.603      2.121
REMARK INTER + INTRA:         -12.204
REMARK INTER:                 -11.005
REMARK INTRA:                  -1.199
REMARK UNBOUND:                -0.711
REMARK  5 active torsions:
REMARK  status: ('A' for Active; 'I' for Inactive)
REMARK       I    between atoms: C_2  and  N_3 
REMARK    1  A    between atoms: C_2  and  C_15 
REMARK    2  A    between atoms: N_3  and  C_5 
REMARK    3  A    between atoms: C_16  and  O_17 
REMARK    4  A    between atoms: C_23  and  C_24 
REMARK    5  A    between atoms: C_24  and  C_25 
ROOT
HETATM    1  C   UNL     1      -1.059  12.380  22.096  0.00  0.00     0.066 C 
HETATM    2  C   UNL     1      -2.230  12.311  21.337  0.00  0.00     0.083 C 
HETATM    3  C   UNL     1      -2.720  13.417  20.632  0.00  0.00     0.069 C 
HETATM    4  C   UNL     1      -2.069  14.639  20.807  0.00  0.00     0.065 A 
HETATM    5  N   UNL     1      -2.352  15.879  20.308  0.00  0.00    -0.277 N 
HETATM    6  H   UNL     1      -3.107  16.134  19.681  0.00  0.00     0.189 HD
HETATM    7  N   UNL     1      -1.565  16.853  20.770  0.00  0.00    -0.178 NA
HETATM    8  C   UNL     1      -0.719  16.231  21.611  0.00  0.00     0.071 A 
HETATM    9  C   UNL     1      -0.973  14.815  21.649  0.00  0.00     0.020 A 
HETATM   10  C   UNL     1      -0.464  13.663  22.300  0.00  0.00     0.035 C 
ENDROOT
BRANCH   1  11
HETATM   11  C   UNL     1      -0.422  11.209  22.808  0.00  0.00     0.260 C 
HETATM   12  O   UNL     1       0.383  10.585  22.112  0.00  0.00    -0.267 OA
HETATM   13  N   UNL     1      -0.760  10.837  24.144  0.00  0.00    -0.318 N 
HETATM   14  C   UNL     1      -1.905  11.412  24.870  0.00  0.00     0.159 C 
BRANCH  13  15
HETATM   15  C   UNL     1      -0.056   9.750  24.836  0.00  0.00     0.039 A 
HETATM   16  C   UNL     1      -0.568   8.443  24.912  0.00  0.00     0.069 A 
HETATM   17  C   UNL     1       0.115   7.418  25.588  0.00  0.00     0.104 A 
HETATM   18  O   UNL     1      -0.462   6.170  25.569  0.00  0.00    -0.346 OA
HETATM   19  C   UNL     1       1.316   7.680  26.241  0.00  0.00     0.102 A 
HETATM   20  C   UNL     1       0.470   5.161  25.975  0.00  0.00     0.202 C 
HETATM   21  C   UNL     1       1.210   5.591  27.230  0.00  0.00     0.202 C 
HETATM   22  O   UNL     1       2.011   6.749  26.964  0.00  0.00    -0.346 OA
HETATM   23  C   UNL     1       1.870   8.950  26.155  0.00  0.00     0.042 A 
HETATM   24  C   UNL     1       1.200   9.957  25.452  0.00  0.00     0.032 A 
ENDBRANCH  13  15
ENDBRANCH   1  11
BRANCH   2  25
HETATM   25  O   UNL     1      -3.024  11.195  21.253  0.00  0.00    -0.360 OA
HETATM   26  H   UNL     1      -3.815  11.336  21.806  0.00  0.00     0.217 HD
ENDBRANCH   2  25
BRANCH   8  27
HETATM   27  C   UNL     1       0.170  17.105  22.432  0.00  0.00     0.100 C 
BRANCH  27  28
HETATM   28  C   UNL     1       1.259  16.305  23.094  0.00  0.00    -0.052 A 
HETATM   29  C   UNL     1       2.399  15.979  22.348  0.00  0.00     0.014 A 
HETATM   30  C   UNL     1       3.315  15.027  22.805  0.00  0.00    -0.061 A 
HETATM   31  C   UNL     1       4.427  14.576  21.905  0.00  0.00     0.048 C 
HETATM   32  C   UNL     1       3.147  14.474  24.078  0.00  0.00     0.007 A 
HETATM   33  C   UNL     1       2.042  14.828  24.856  0.00  0.00     0.001 A 
HETATM   34  C   UNL     1       1.092  15.724  24.360  0.00  0.00     0.007 A 
ENDBRANCH  27  28
ENDBRANCH   8  27
TORSDOF 5
ENDMDL
MODEL 7
REMARK VINA RESULT:    -9.076      2.077      4.444
REMARK INTER + INTRA:         -12.175
REMARK INTER:                 -11.209
REMARK INTRA:                  -0.966
REMARK UNBOUND:                -0.711
REMARK  5 active torsions:
REMARK  status: ('A' for Active; 'I' for Inactive)
REMARK       I    between atoms: C_2  and  N_3 
REMARK    1  A    between atoms: C_2  and  C_15 
REMARK    2  A    between atoms: N_3  and  C_5 
REMARK    3  A    between atoms: C_16  and  O_17 
REMARK    4  A    between atoms: C_23  and  C_24 
REMARK    5  A    between atoms: C_24  and  C_25 
ROOT
HETATM    1  C   UNL     1       0.401  14.648  22.322  0.00  0.00     0.066 C 
HETATM    2  C   UNL     1       1.592  14.826  21.613  0.00  0.00     0.083 C 
HETATM    3  C   UNL     1       1.723  15.806  20.622  0.00  0.00     0.069 C 
HETATM    4  C   UNL     1       0.582  16.527  20.267  0.00  0.00     0.065 A 
HETATM    5  N   UNL     1       0.394  17.483  19.309  0.00  0.00    -0.277 N 
HETATM    6  H   UNL     1       1.087  17.865  18.675  0.00  0.00     0.189 HD
HETATM    7  N   UNL     1      -0.870  17.892  19.178  0.00  0.00    -0.178 NA
HETATM    8  C   UNL     1      -1.552  17.178  20.092  0.00  0.00     0.071 A 
HETATM    9  C   UNL     1      -0.672  16.315  20.836  0.00  0.00     0.020 A 
HETATM   10  C   UNL     1      -0.757  15.359  21.881  0.00  0.00     0.035 C 
ENDROOT
BRANCH   1  11
HETATM   11  C   UNL     1       0.214  13.676  23.463  0.00  0.00     0.260 C 
HETATM   12  O   UNL     1       0.388  14.180  24.575  0.00  0.00    -0.267 OA
HETATM   13  N   UNL     1      -0.091  12.295  23.265  0.00  0.00    -0.318 N 
HETATM   14  C   UNL     1      -0.032  11.644  21.944  0.00  0.00     0.159 C 
BRANCH  13  15
HETATM   15  C   UNL     1      -0.356  11.400  24.398  0.00  0.00     0.039 A 
HETATM   16  C   UNL     1       0.648  10.624  25.002  0.00  0.00     0.069 A 
HETATM   17  C   UNL     1       0.374   9.765  26.078  0.00  0.00     0.104 A 
HETATM   18  O   UNL     1       1.440   9.080  26.614  0.00  0.00    -0.346 OA
HETATM   19  C   UNL     1      -0.924   9.629  26.561  0.00  0.00     0.102 A 
HETATM   20  C   UNL     1       1.110   8.523  27.892  0.00  0.00     0.202 C 
HETATM   21  C   UNL     1      -0.239   7.827  27.839  0.00  0.00     0.202 C 
HETATM   22  O   UNL     1      -1.279   8.774  27.570  0.00  0.00    -0.346 OA
HETATM   23  C   UNL     1      -1.935  10.408  26.013  0.00  0.00     0.042 A 
HETATM   24  C   UNL     1      -1.647  11.286  24.963  0.00  0.00     0.032 A 
ENDBRANCH  13  15
ENDBRANCH   1  11
BRANCH   2  25
HETATM   25  O   UNL     1       2.707  14.044  21.781  0.00  0.00    -0.360 OA
HETATM   26  H   UNL     1       3.474  14.627  21.928  0.00  0.00     0.217 HD
ENDBRANCH   2  25
BRANCH   8  27
HETATM   27  C   UNL     1      -3.040  17.284  20.050  0.00  0.00     0.100 C 
BRANCH  27  28
HETATM   28  C   UNL     1      -3.689  15.964  20.364  0.00  0.00    -0.052 A 
HETATM   29  C   UNL     1      -4.175  15.187  19.305  0.00  0.00     0.014 A 
HETATM   30  C   UNL     1      -5.015  14.094  19.535  0.00  0.00    -0.061 A 
HETATM   31  C   UNL     1      -5.654  13.392  18.374  0.00  0.00     0.048 C 
HETATM   32  C   UNL     1      -5.284  13.704  20.850  0.00  0.00     0.007 A 
HETATM   33  C   UNL     1      -4.765  14.439  21.919  0.00  0.00     0.001 A 
HETATM   34  C   UNL     1      -3.987  15.575  21.679  0.00  0.00     0.007 A 
ENDBRANCH  27  28
ENDBRANCH   8  27
TORSDOF 5
ENDMDL
MODEL 8
REMARK VINA RESULT:    -9.038      2.604      4.468
REMARK INTER + INTRA:         -12.127
REMARK INTER:                 -11.197
REMARK INTRA:                  -0.930
REMARK UNBOUND:                -0.711
REMARK  5 active torsions:
REMARK  status: ('A' for Active; 'I' for Inactive)
REMARK       I    between atoms: C_2  and  N_3 
REMARK    1  A    between atoms: C_2  and  C_15 
REMARK    2  A    between atoms: N_3  and  C_5 
REMARK    3  A    between atoms: C_16  and  O_17 
REMARK    4  A    between atoms: C_23  and  C_24 
REMARK    5  A    between atoms: C_24  and  C_25 
ROOT
HETATM    1  C   UNL     1      -1.639  11.132  25.026  0.00  0.00     0.066 C 
HETATM    2  C   UNL     1      -2.315  11.795  26.053  0.00  0.00     0.083 C 
HETATM    3  C   UNL     1      -3.387  12.658  25.797  0.00  0.00     0.069 C 
HETATM    4  C   UNL     1      -3.690  12.940  24.465  0.00  0.00     0.065 A 
HETATM    5  N   UNL     1      -4.623  13.777  23.920  0.00  0.00    -0.277 N 
HETATM    6  H   UNL     1      -5.300  14.349  24.412  0.00  0.00     0.189 HD
HETATM    7  N   UNL     1      -4.565  13.877  22.590  0.00  0.00    -0.178 NA
HETATM    8  C   UNL     1      -3.551  13.067  22.235  0.00  0.00     0.071 A 
HETATM    9  C   UNL     1      -2.978  12.420  23.386  0.00  0.00     0.020 A 
HETATM   10  C   UNL     1      -1.937  11.501  23.678  0.00  0.00     0.035 C 
ENDROOT
BRANCH   1  11
HETATM   11  C   UNL     1      -0.536  10.121  25.231  0.00  0.00     0.260 C 
HETATM   12  O   UNL     1      -0.915   9.077  25.768  0.00  0.00    -0.267 OA
HETATM   13  N   UNL     1       0.824  10.373  24.876  0.00  0.00    -0.318 N 
HETATM   14  C   UNL     1       1.316  11.706  24.488  0.00  0.00     0.159 C 
BRANCH  13  15
HETATM   15  C   UNL     1       1.853   9.334  25.005  0.00  0.00     0.039 A 
HETATM   16  C   UNL     1       1.955   8.253  24.113  0.00  0.00     0.069 A 
HETATM   17  C   UNL     1       2.940   7.263  24.258  0.00  0.00     0.104 A 
HETATM   18  O   UNL     1       2.968   6.269  23.307  0.00  0.00    -0.346 OA
HETATM   19  C   UNL     1       3.833   7.306  25.324  0.00  0.00     0.102 A 
HETATM   20  C   UNL     1       4.198   5.536  23.357  0.00  0.00     0.202 C 
HETATM   21  C   UNL     1       4.543   5.169  24.789  0.00  0.00     0.202 C 
HETATM   22  O   UNL     1       4.786   6.351  25.563  0.00  0.00    -0.346 OA
HETATM   23  C   UNL     1       3.787   8.379  26.203  0.00  0.00     0.042 A 
HETATM   24  C   UNL     1       2.823   9.379  26.032  0.00  0.00     0.032 A 
ENDBRANCH  13  15
ENDBRANCH   1  11
BRANCH   2  25
HETATM   25  O   UNL     1      -1.968  11.707  27.379  0.00  0.00    -0.360 OA
HETATM   26  H   UNL     1      -1.000  11.608  27.438  0.00  0.00     0.217 HD
ENDBRANCH   2  25
BRANCH   8  27
HETATM   27  C   UNL     1      -3.123  13.119  20.806  0.00  0.00     0.100 C 
BRANCH  27  28
HETATM   28  C   UNL     1      -2.795  14.526  20.386  0.00  0.00    -0.052 A 
HETATM   29  C   UNL     1      -1.655  15.137  20.924  0.00  0.00     0.014 A 
HETATM   30  C   UNL     1      -1.440  16.511  20.790  0.00  0.00    -0.061 A 
HETATM   31  C   UNL     1      -0.303  17.159  21.524  0.00  0.00     0.048 C 
HETATM   32  C   UNL     1      -2.320  17.268  20.011  0.00  0.00     0.007 A 
HETATM   33  C   UNL     1      -3.434  16.663  19.425  0.00  0.00     0.001 A 
HETATM   34  C   UNL     1      -3.683  15.302  19.626  0.00  0.00     0.007 A 
ENDBRANCH  27  28
ENDBRANCH   8  27
TORSDOF 5
ENDMDL
MODEL 9
REMARK VINA RESULT:    -8.767      2.833      4.727
REMARK INTER + INTRA:         -11.784
REMARK INTER:                 -11.073
REMARK INTRA:                  -0.711
REMARK UNBOUND:                -0.711
REMARK  5 active torsions:
REMARK  status: ('A' for Active; 'I' for Inactive)
REMARK       I    between atoms: C_2  and  N_3 
REMARK    1  A    between atoms: C_2  and  C_15 
REMARK    2  A    between atoms: N_3  and  C_5 
REMARK    3  A    between atoms: C_16  and  O_17 
REMARK    4  A    between atoms: C_23  and  C_24 
REMARK    5  A    between atoms: C_24  and  C_25 
ROOT
HETATM    1  C   UNL     1      -2.590  10.720  26.116  0.00  0.00     0.066 C 
HETATM    2  C   UNL     1      -3.946  10.967  26.349  0.00  0.00     0.083 C 
HETATM    3  C   UNL     1      -4.779  11.509  25.363  0.00  0.00     0.069 C 
HETATM    4  C   UNL     1      -4.189  11.919  24.167  0.00  0.00     0.065 A 
HETATM    5  N   UNL     1      -4.728  12.528  23.069  0.00  0.00    -0.277 N 
HETATM    6  H   UNL     1      -5.697  12.782  22.920  0.00  0.00     0.189 HD
HETATM    7  N   UNL     1      -3.837  12.871  22.135  0.00  0.00    -0.178 NA
HETATM    8  C   UNL     1      -2.654  12.469  22.633  0.00  0.00     0.071 A 
HETATM    9  C   UNL     1      -2.822  11.826  23.910  0.00  0.00     0.020 A 
HETATM   10  C   UNL     1      -2.015  11.215  24.905  0.00  0.00     0.035 C 
ENDROOT
BRANCH   1  11
HETATM   11  C   UNL     1      -1.653  10.056  27.097  0.00  0.00     0.260 C 
HETATM   12  O   UNL     1      -1.712  10.529  28.235  0.00  0.00    -0.267 OA
HETATM   13  N   UNL     1      -0.754   9.011  26.726  0.00  0.00    -0.318 N 
HETATM   14  C   UNL     1      -0.496   8.636  25.325  0.00  0.00     0.159 C 
BRANCH  13  15
HETATM   15  C   UNL     1       0.076   8.326  27.724  0.00  0.00     0.039 A 
HETATM   16  C   UNL     1      -0.453   7.412  28.653  0.00  0.00     0.069 A 
HETATM   17  C   UNL     1       0.356   6.775  29.607  0.00  0.00     0.104 A 
HETATM   18  O   UNL     1      -0.262   5.873  30.443  0.00  0.00    -0.346 OA
HETATM   19  C   UNL     1       1.715   7.060  29.685  0.00  0.00     0.102 A 
HETATM   20  C   UNL     1       0.695   5.049  31.118  0.00  0.00     0.202 C 
HETATM   21  C   UNL     1       1.824   5.895  31.682  0.00  0.00     0.202 C 
HETATM   22  O   UNL     1       2.557   6.519  30.621  0.00  0.00    -0.346 OA
HETATM   23  C   UNL     1       2.279   7.928  28.761  0.00  0.00     0.042 A 
HETATM   24  C   UNL     1       1.473   8.534  27.792  0.00  0.00     0.032 A 
ENDBRANCH  13  15
ENDBRANCH   1  11
BRANCH   2  25
HETATM   25  O   UNL     1      -4.566  10.754  27.554  0.00  0.00    -0.360 OA
HETATM   26  H   UNL     1      -5.371  10.226  27.398  0.00  0.00     0.217 HD
ENDBRANCH   2  25
BRANCH   8  27
HETATM   27  C   UNL     1      -1.434  12.892  21.884  0.00  0.00     0.100 C 
BRANCH  27  28
HETATM   28  C   UNL     1      -1.103  14.334  22.154  0.00  0.00    -0.052 A 
HETATM   29  C   UNL     1      -1.384  15.283  21.162  0.00  0.00     0.014 A 
HETATM   30  C   UNL     1      -0.867  16.579  21.233  0.00  0.00    -0.061 A 
HETATM   31  C   UNL     1      -1.043  17.513  20.073  0.00  0.00     0.048 C 
HETATM   32  C   UNL     1      -0.150  16.967  22.369  0.00  0.00     0.007 A 
HETATM   33  C   UNL     1       0.095  16.047  23.391  0.00  0.00     0.001 A 
HETATM   34  C   UNL     1      -0.362  14.731  23.277  0.00  0.00     0.007 A 
ENDBRANCH  27  28
ENDBRANCH   8  27
TORSDOF 5
ENDMDL
