MODEL 1
REMARK VINA RESULT:    -7.445      0.000      0.000
REMARK INTER + INTRA:         -11.639
REMARK INTER:                 -10.479
REMARK INTRA:                  -1.159
REMARK UNBOUND:                -1.800
REMARK  6 active torsions:
REMARK  status: ('A' for Active; 'I' for Inactive)
REMARK    1  A    between atoms: C_2  and  C_3 
REMARK    2  A    between atoms: C_3  and  C_4 
REMARK    3  A    between atoms: C_10  and  O_11 
REMARK    4  A    between atoms: C_12  and  C_13 
REMARK       I    between atoms: C_13  and  N_15 
REMARK    5  A    between atoms: N_15  and  C_17 
REMARK    6  A    between atoms: C_20  and  C_21 
ROOT
HETATM    1  C   UNL     1       4.548   7.149  23.848  0.00  0.00     0.260 C 
HETATM    2  O   UNL     1       5.403   7.106  24.742  0.00  0.00    -0.267 OA
HETATM    3  N   UNL     1       4.865   6.707  22.549  0.00  0.00    -0.318 N 
HETATM    4  C   UNL     1       6.198   6.177  22.283  0.00  0.00     0.159 C 
ENDROOT
BRANCH   1   5
HETATM    5  C   UNL     1       3.167   7.576  24.278  0.00  0.00     0.066 C 
HETATM    6  C   UNL     1       2.069   6.746  24.534  0.00  0.00     0.083 C 
HETATM    7  C   UNL     1       0.836   7.231  24.997  0.00  0.00     0.069 C 
HETATM    8  C   UNL     1       0.678   8.613  25.027  0.00  0.00     0.065 A 
HETATM    9  N   UNL     1      -0.410   9.385  25.315  0.00  0.00    -0.277 N 
HETATM   10  C   UNL     1       1.685   9.499  24.671  0.00  0.00     0.019 A 
HETATM   11  N   UNL     1      -0.221  10.693  25.122  0.00  0.00    -0.178 NA
HETATM   12  H   UNL     1      -1.332   9.074  25.610  0.00  0.00     0.189 HD
HETATM   13  C   UNL     1       1.061  10.773  24.727  0.00  0.00     0.067 A 
HETATM   14  C   UNL     1       2.952   8.976  24.330  0.00  0.00     0.035 C 
BRANCH   6  15
HETATM   15  O   UNL     1       2.064   5.424  24.202  0.00  0.00    -0.360 OA
HETATM   16  H   UNL     1       2.871   5.245  23.687  0.00  0.00     0.217 HD
ENDBRANCH   6  15
BRANCH  13  17
HETATM   17  C   UNL     1       1.619  12.114  24.370  0.00  0.00     0.062 C 
BRANCH  17  18
HETATM   18  C   UNL     1       0.732  13.253  24.880  0.00  0.00     0.002 C 
HETATM   19  C   UNL     1       0.098  14.026  23.740  0.00  0.00     0.005 C 
ENDBRANCH  17  18
ENDBRANCH  13  17
ENDBRANCH   1   5
BRANCH   3  20
HETATM   20  C   UNL     1       4.014   6.743  21.435  0.00  0.00     0.037 C 
HETATM   21  C   UNL     1       4.102   7.829  20.572  0.00  0.00     0.030 C 
HETATM   22  C   UNL     1       3.200   7.955  19.520  0.00  0.00     0.010 C 
HETATM   23  C   UNL     1       2.268   6.945  19.231  0.00  0.00    -0.054 C 
HETATM   24  C   UNL     1       2.290   5.794  20.044  0.00  0.00     0.010 C 
HETATM   25  C   UNL     1       3.155   5.691  21.140  0.00  0.00     0.030 C 
BRANCH  23  26
HETATM   26  C   UNL     1       1.217   7.138  18.134  0.00  0.00     0.022 C 
HETATM   27  C   UNL     1       1.794   7.515  16.752  0.00  0.00     0.039 C 
HETATM   28  C   UNL     1       2.519   6.320  16.120  0.00  0.00     0.272 C 
HETATM   29  N   UNL     1       1.652   5.147  15.949  0.00  0.00     0.084 N 
HETATM   30  C   UNL     1       0.703   5.329  14.853  0.00  0.00     0.309 C 
HETATM   31  C   UNL     1       0.992   4.776  17.210  0.00  0.00     0.272 C 
HETATM   32  C   UNL     1       0.275   5.938  17.907  0.00  0.00     0.039 C 
ENDBRANCH  23  26
ENDBRANCH   3  20
TORSDOF 6
ENDMDL
MODEL 2
REMARK VINA RESULT:    -7.369      2.272      3.745
REMARK INTER + INTRA:         -11.538
REMARK INTER:                  -9.955
REMARK INTRA:                  -1.583
REMARK UNBOUND:                -1.800
REMARK  6 active torsions:
REMARK  status: ('A' for Active; 'I' for Inactive)
REMARK    1  A    between atoms: C_2  and  C_3 
REMARK    2  A    between atoms: C_3  and  C_4 
REMARK    3  A    between atoms: C_10  and  O_11 
REMARK    4  A    between atoms: C_12  and  C_13 
REMARK       I    between atoms: C_13  and  N_15 
REMARK    5  A    between atoms: N_15  and  C_17 
REMARK    6  A    between atoms: C_20  and  C_21 
ROOT
HETATM    1  C   UNL     1       2.573   6.822  27.223  0.00  0.00     0.260 C 
HETATM    2  O   UNL     1       2.445   6.755  28.453  0.00  0.00    -0.267 OA
HETATM    3  N   UNL     1       3.652   6.174  26.591  0.00  0.00    -0.318 N 
HETATM    4  C   UNL     1       4.594   5.407  27.400  0.00  0.00     0.159 C 
ENDROOT
BRANCH   1   5
HETATM    5  C   UNL     1       1.458   7.517  26.482  0.00  0.00     0.066 C 
HETATM    6  C   UNL     1       0.219   6.975  26.122  0.00  0.00     0.083 C 
HETATM    7  C   UNL     1      -0.788   7.723  25.490  0.00  0.00     0.069 C 
HETATM    8  C   UNL     1      -0.444   9.002  25.063  0.00  0.00     0.065 A 
HETATM    9  N   UNL     1      -1.141   9.922  24.336  0.00  0.00    -0.277 N 
HETATM   10  C   UNL     1       0.808   9.561  25.279  0.00  0.00     0.019 A 
HETATM   11  N   UNL     1      -0.438  11.009  24.009  0.00  0.00    -0.178 NA
HETATM   12  H   UNL     1      -2.096   9.850  23.995  0.00  0.00     0.189 HD
HETATM   13  C   UNL     1       0.759  10.797  24.582  0.00  0.00     0.067 A 
HETATM   14  C   UNL     1       1.754   8.827  26.028  0.00  0.00     0.035 C 
BRANCH   6  15
HETATM   15  O   UNL     1      -0.045   5.641  26.214  0.00  0.00    -0.360 OA
HETATM   16  H   UNL     1      -0.940   5.491  25.863  0.00  0.00     0.217 HD
ENDBRANCH   6  15
BRANCH  13  17
HETATM   17  C   UNL     1       1.840  11.811  24.381  0.00  0.00     0.062 C 
BRANCH  17  18
HETATM   18  C   UNL     1       3.234  11.189  24.506  0.00  0.00     0.002 C 
HETATM   19  C   UNL     1       3.886  10.996  23.151  0.00  0.00     0.005 C 
ENDBRANCH  17  18
ENDBRANCH  13  17
ENDBRANCH   1   5
BRANCH   3  20
HETATM   20  C   UNL     1       3.944   6.206  25.220  0.00  0.00     0.037 C 
HETATM   21  C   UNL     1       3.366   5.245  24.399  0.00  0.00     0.030 C 
HETATM   22  C   UNL     1       3.720   5.177  23.056  0.00  0.00     0.010 C 
HETATM   23  C   UNL     1       4.564   6.136  22.472  0.00  0.00    -0.054 C 
HETATM   24  C   UNL     1       5.031   7.175  23.300  0.00  0.00     0.010 C 
HETATM   25  C   UNL     1       4.725   7.213  24.666  0.00  0.00     0.030 C 
BRANCH  23  26
HETATM   26  C   UNL     1       5.024   5.994  21.018  0.00  0.00     0.022 C 
HETATM   27  C   UNL     1       4.091   5.143  20.129  0.00  0.00     0.039 C 
HETATM   28  C   UNL     1       2.781   5.887  19.848  0.00  0.00     0.272 C 
HETATM   29  N   UNL     1       2.985   7.183  19.186  0.00  0.00     0.084 N 
HETATM   30  C   UNL     1       3.358   7.022  17.783  0.00  0.00     0.309 C 
HETATM   31  C   UNL     1       3.937   8.022  19.929  0.00  0.00     0.272 C 
HETATM   32  C   UNL     1       5.257   7.322  20.270  0.00  0.00     0.039 C 
ENDBRANCH  23  26
ENDBRANCH   3  20
TORSDOF 6
ENDMDL
MODEL 3
REMARK VINA RESULT:    -7.218      2.606      7.497
REMARK INTER + INTRA:         -11.339
REMARK INTER:                  -9.856
REMARK INTRA:                  -1.483
REMARK UNBOUND:                -1.800
REMARK  6 active torsions:
REMARK  status: ('A' for Active; 'I' for Inactive)
REMARK    1  A    between atoms: C_2  and  C_3 
REMARK    2  A    between atoms: C_3  and  C_4 
REMARK    3  A    between atoms: C_10  and  O_11 
REMARK    4  A    between atoms: C_12  and  C_13 
REMARK       I    between atoms: C_13  and  N_15 
REMARK    5  A    between atoms: N_15  and  C_17 
REMARK    6  A    between atoms: C_20  and  C_21 
ROOT
HETATM    1  C   UNL     1       4.711   6.907  18.984  0.00  0.00     0.260 C 
HETATM    2  O   UNL     1       5.422   6.827  17.973  0.00  0.00    -0.267 OA
HETATM    3  N   UNL     1       5.255   7.392  20.189  0.00  0.00    -0.318 N 
HETATM    4  C   UNL     1       6.650   7.819  20.220  0.00  0.00     0.159 C 
ENDROOT
BRANCH   1   5
HETATM    5  C   UNL     1       3.252   6.576  18.791  0.00  0.00     0.066 C 
HETATM    6  C   UNL     1       2.234   7.453  18.397  0.00  0.00     0.083 C 
HETATM    7  C   UNL     1       0.911   7.037  18.178  0.00  0.00     0.069 C 
HETATM    8  C   UNL     1       0.595   5.732  18.543  0.00  0.00     0.065 A 
HETATM    9  N   UNL     1      -0.597   5.070  18.560  0.00  0.00    -0.277 N 
HETATM   10  C   UNL     1       1.529   4.842  19.055  0.00  0.00     0.019 A 
HETATM   11  N   UNL     1      -0.537   3.847  19.093  0.00  0.00    -0.178 NA
HETATM   12  H   UNL     1      -1.504   5.416  18.259  0.00  0.00     0.189 HD
HETATM   13  C   UNL     1       0.762   3.698  19.400  0.00  0.00     0.067 A 
HETATM   14  C   UNL     1       2.876   5.256  19.145  0.00  0.00     0.035 C 
BRANCH   6  15
HETATM   15  O   UNL     1       2.415   8.803  18.350  0.00  0.00    -0.360 OA
HETATM   16  H   UNL     1       2.351   9.078  17.420  0.00  0.00     0.217 HD
ENDBRANCH   6  15
BRANCH  13  17
HETATM   17  C   UNL     1       1.201   2.435  20.071  0.00  0.00     0.062 C 
BRANCH  17  18
HETATM   18  C   UNL     1       1.994   2.717  21.351  0.00  0.00     0.002 C 
HETATM   19  C   UNL     1       3.432   2.251  21.236  0.00  0.00     0.005 C 
ENDBRANCH  17  18
ENDBRANCH  13  17
ENDBRANCH   1   5
BRANCH   3  20
HETATM   20  C   UNL     1       4.583   7.491  21.416  0.00  0.00     0.037 C 
HETATM   21  C   UNL     1       4.299   8.757  21.914  0.00  0.00     0.030 C 
HETATM   22  C   UNL     1       3.735   8.895  23.177  0.00  0.00     0.010 C 
HETATM   23  C   UNL     1       3.329   7.777  23.924  0.00  0.00    -0.054 C 
HETATM   24  C   UNL     1       3.509   6.509  23.337  0.00  0.00     0.010 C 
HETATM   25  C   UNL     1       4.132   6.363  22.091  0.00  0.00     0.030 C 
BRANCH  23  26
HETATM   26  C   UNL     1       2.800   7.937  25.352  0.00  0.00     0.022 C 
HETATM   27  C   UNL     1       2.307   9.359  25.699  0.00  0.00     0.039 C 
HETATM   28  C   UNL     1       0.996   9.673  24.969  0.00  0.00     0.272 C 
HETATM   29  N   UNL     1      -0.081   8.725  25.287  0.00  0.00     0.084 N 
HETATM   30  C   UNL     1      -0.614   8.943  26.630  0.00  0.00     0.309 C 
HETATM   31  C   UNL     1       0.343   7.335  25.067  0.00  0.00     0.272 C 
HETATM   32  C   UNL     1       1.668   6.968  25.747  0.00  0.00     0.039 C 
ENDBRANCH  23  26
ENDBRANCH   3  20
TORSDOF 6
ENDMDL
MODEL 4
REMARK VINA RESULT:    -7.197      2.618      7.692
REMARK INTER + INTRA:         -11.311
REMARK INTER:                 -10.207
REMARK INTRA:                  -1.104
REMARK UNBOUND:                -1.800
REMARK  6 active torsions:
REMARK  status: ('A' for Active; 'I' for Inactive)
REMARK    1  A    between atoms: C_2  and  C_3 
REMARK    2  A    between atoms: C_3  and  C_4 
REMARK    3  A    between atoms: C_10  and  O_11 
REMARK    4  A    between atoms: C_12  and  C_13 
REMARK       I    between atoms: C_13  and  N_15 
REMARK    5  A    between atoms: N_15  and  C_17 
REMARK    6  A    between atoms: C_20  and  C_21 
ROOT
HETATM    1  C   UNL     1       4.971   7.028  19.178  0.00  0.00     0.260 C 
HETATM    2  O   UNL     1       5.869   7.071  18.327  0.00  0.00    -0.267 OA
HETATM    3  N   UNL     1       5.295   7.094  20.547  0.00  0.00    -0.318 N 
HETATM    4  C   UNL     1       6.693   7.238  20.941  0.00  0.00     0.159 C 
ENDROOT
BRANCH   1   5
HETATM    5  C   UNL     1       3.559   7.028  18.647  0.00  0.00     0.066 C 
HETATM    6  C   UNL     1       2.729   8.140  18.460  0.00  0.00     0.083 C 
HETATM    7  C   UNL     1       1.447   8.049  17.893  0.00  0.00     0.069 C 
HETATM    8  C   UNL     1       0.945   6.768  17.681  0.00  0.00     0.065 A 
HETATM    9  N   UNL     1      -0.281   6.345  17.257  0.00  0.00    -0.277 N 
HETATM   10  C   UNL     1       1.668   5.616  17.957  0.00  0.00     0.019 A 
HETATM   11  N   UNL     1      -0.444   5.020  17.288  0.00  0.00    -0.178 NA
HETATM   12  H   UNL     1      -1.070   6.917  16.971  0.00  0.00     0.189 HD
HETATM   13  C   UNL     1       0.746   4.564  17.716  0.00  0.00     0.067 A 
HETATM   14  C   UNL     1       3.000   5.747  18.408  0.00  0.00     0.035 C 
BRANCH   6  15
HETATM   15  O   UNL     1       3.038   9.370  18.959  0.00  0.00    -0.360 OA
HETATM   16  H   UNL     1       3.786   9.718  18.445  0.00  0.00     0.217 HD
ENDBRANCH   6  15
BRANCH  13  17
HETATM   17  C   UNL     1       0.919   3.092  17.918  0.00  0.00     0.062 C 
BRANCH  17  18
HETATM   18  C   UNL     1       0.400   2.640  19.286  0.00  0.00     0.002 C 
HETATM   19  C   UNL     1       1.397   2.933  20.390  0.00  0.00     0.005 C 
ENDBRANCH  17  18
ENDBRANCH  13  17
ENDBRANCH   1   5
BRANCH   3  20
HETATM   20  C   UNL     1       4.390   7.009  21.614  0.00  0.00     0.037 C 
HETATM   21  C   UNL     1       4.111   8.162  22.338  0.00  0.00     0.030 C 
HETATM   22  C   UNL     1       3.306   8.094  23.469  0.00  0.00     0.010 C 
HETATM   23  C   UNL     1       2.663   6.901  23.839  0.00  0.00    -0.054 C 
HETATM   24  C   UNL     1       2.859   5.779  23.011  0.00  0.00     0.010 C 
HETATM   25  C   UNL     1       3.717   5.828  21.905  0.00  0.00     0.030 C 
BRANCH  23  26
HETATM   26  C   UNL     1       1.859   6.813  25.139  0.00  0.00     0.022 C 
HETATM   27  C   UNL     1       2.451   7.621  26.315  0.00  0.00     0.039 C 
HETATM   28  C   UNL     1       2.281   9.126  26.082  0.00  0.00     0.272 C 
HETATM   29  N   UNL     1       0.878   9.527  25.913  0.00  0.00     0.084 N 
HETATM   30  C   UNL     1       0.150   9.500  27.180  0.00  0.00     0.309 C 
HETATM   31  C   UNL     1       0.214   8.737  24.865  0.00  0.00     0.272 C 
HETATM   32  C   UNL     1       0.377   7.221  25.025  0.00  0.00     0.039 C 
ENDBRANCH  23  26
ENDBRANCH   3  20
TORSDOF 6
ENDMDL
MODEL 5
REMARK VINA RESULT:    -6.930      4.578      7.644
REMARK INTER + INTRA:         -10.958
REMARK INTER:                  -9.134
REMARK INTRA:                  -1.824
REMARK UNBOUND:                -1.800
REMARK  6 active torsions:
REMARK  status: ('A' for Active; 'I' for Inactive)
REMARK    1  A    between atoms: C_2  and  C_3 
REMARK    2  A    between atoms: C_3  and  C_4 
REMARK    3  A    between atoms: C_10  and  O_11 
REMARK    4  A    between atoms: C_12  and  C_13 
REMARK       I    between atoms: C_13  and  N_15 
REMARK    5  A    between atoms: N_15  and  C_17 
REMARK    6  A    between atoms: C_20  and  C_21 
ROOT
HETATM    1  C   UNL     1       5.129   7.423  18.936  0.00  0.00     0.260 C 
HETATM    2  O   UNL     1       5.893   8.295  18.501  0.00  0.00    -0.267 OA
HETATM    3  N   UNL     1       5.517   6.632  20.035  0.00  0.00    -0.318 N 
HETATM    4  C   UNL     1       6.812   6.873  20.663  0.00  0.00     0.159 C 
ENDROOT
BRANCH   1   5
HETATM    5  C   UNL     1       3.762   7.369  18.301  0.00  0.00     0.066 C 
HETATM    6  C   UNL     1       2.802   8.388  18.277  0.00  0.00     0.083 C 
HETATM    7  C   UNL     1       1.578   8.268  17.599  0.00  0.00     0.069 C 
HETATM    8  C   UNL     1       1.265   7.012  17.087  0.00  0.00     0.065 A 
HETATM    9  N   UNL     1       0.133   6.546  16.485  0.00  0.00    -0.277 N 
HETATM   10  C   UNL     1       2.119   5.922  17.181  0.00  0.00     0.019 A 
HETATM   11  N   UNL     1       0.147   5.235  16.230  0.00  0.00    -0.178 NA
HETATM   12  H   UNL     1      -0.709   7.068  16.258  0.00  0.00     0.189 HD
HETATM   13  C   UNL     1       1.361   4.843  16.653  0.00  0.00     0.067 A 
HETATM   14  C   UNL     1       3.394   6.111  17.759  0.00  0.00     0.035 C 
BRANCH   6  15
HETATM   15  O   UNL     1       2.915   9.510  19.041  0.00  0.00    -0.360 OA
HETATM   16  H   UNL     1       2.739   9.259  19.964  0.00  0.00     0.217 HD
ENDBRANCH   6  15
BRANCH  13  17
HETATM   17  C   UNL     1       1.719   3.393  16.563  0.00  0.00     0.062 C 
BRANCH  17  18
HETATM   18  C   UNL     1       1.941   2.775  17.946  0.00  0.00     0.002 C 
HETATM   19  C   UNL     1       0.702   2.878  18.814  0.00  0.00     0.005 C 
ENDBRANCH  17  18
ENDBRANCH  13  17
ENDBRANCH   1   5
BRANCH   3  20
HETATM   20  C   UNL     1       4.776   5.583  20.598  0.00  0.00     0.037 C 
HETATM   21  C   UNL     1       5.112   4.279  20.253  0.00  0.00     0.030 C 
HETATM   22  C   UNL     1       4.331   3.220  20.703  0.00  0.00     0.010 C 
HETATM   23  C   UNL     1       3.272   3.422  21.603  0.00  0.00    -0.054 C 
HETATM   24  C   UNL     1       3.037   4.741  22.038  0.00  0.00     0.010 C 
HETATM   25  C   UNL     1       3.783   5.817  21.541  0.00  0.00     0.030 C 
BRANCH  23  26
HETATM   26  C   UNL     1       2.359   2.263  22.013  0.00  0.00     0.022 C 
HETATM   27  C   UNL     1       2.703   0.910  21.353  0.00  0.00     0.039 C 
HETATM   28  C   UNL     1       4.008   0.343  21.925  0.00  0.00     0.272 C 
HETATM   29  N   UNL     1       3.961   0.143  23.379  0.00  0.00     0.084 N 
HETATM   30  C   UNL     1       3.138  -1.009  23.742  0.00  0.00     0.309 C 
HETATM   31  C   UNL     1       3.550   1.370  24.078  0.00  0.00     0.272 C 
HETATM   32  C   UNL     1       2.267   2.004  23.531  0.00  0.00     0.039 C 
ENDBRANCH  23  26
ENDBRANCH   3  20
TORSDOF 6
ENDMDL
MODEL 6
REMARK VINA RESULT:    -6.899      3.576      7.842
REMARK INTER + INTRA:         -10.917
REMARK INTER:                  -8.935
REMARK INTRA:                  -1.981
REMARK UNBOUND:                -1.800
REMARK  6 active torsions:
REMARK  status: ('A' for Active; 'I' for Inactive)
REMARK    1  A    between atoms: C_2  and  C_3 
REMARK    2  A    between atoms: C_3  and  C_4 
REMARK    3  A    between atoms: C_10  and  O_11 
REMARK    4  A    between atoms: C_12  and  C_13 
REMARK       I    between atoms: C_13  and  N_15 
REMARK    5  A    between atoms: N_15  and  C_17 
REMARK    6  A    between atoms: C_20  and  C_21 
ROOT
HETATM    1  C   UNL     1       4.760   6.361  18.824  0.00  0.00     0.260 C 
HETATM    2  O   UNL     1       5.037   6.395  17.618  0.00  0.00    -0.267 OA
HETATM    3  N   UNL     1       5.378   7.261  19.714  0.00  0.00    -0.318 N 
HETATM    4  C   UNL     1       6.323   8.242  19.191  0.00  0.00     0.159 C 
ENDROOT
BRANCH   1   5
HETATM    5  C   UNL     1       3.663   5.405  19.221  0.00  0.00     0.066 C 
HETATM    6  C   UNL     1       2.287   5.661  19.239  0.00  0.00     0.083 C 
HETATM    7  C   UNL     1       1.332   4.683  19.560  0.00  0.00     0.069 C 
HETATM    8  C   UNL     1       1.814   3.471  20.043  0.00  0.00     0.065 A 
HETATM    9  N   UNL     1       1.162   2.379  20.536  0.00  0.00    -0.277 N 
HETATM   10  C   UNL     1       3.168   3.190  20.167  0.00  0.00     0.019 A 
HETATM   11  N   UNL     1       1.968   1.433  21.025  0.00  0.00    -0.178 NA
HETATM   12  H   UNL     1       0.158   2.234  20.605  0.00  0.00     0.189 HD
HETATM   13  C   UNL     1       3.200   1.921  20.803  0.00  0.00     0.067 A 
HETATM   14  C   UNL     1       4.100   4.150  19.717  0.00  0.00     0.035 C 
BRANCH   6  15
HETATM   15  O   UNL     1       1.780   6.919  19.101  0.00  0.00    -0.360 OA
HETATM   16  H   UNL     1       2.498   7.495  18.786  0.00  0.00     0.217 HD
ENDBRANCH   6  15
BRANCH  13  17
HETATM   17  C   UNL     1       4.380   1.131  21.274  0.00  0.00     0.062 C 
BRANCH  17  18
HETATM   18  C   UNL     1       4.559   1.225  22.792  0.00  0.00     0.002 C 
HETATM   19  C   UNL     1       5.064   2.591  23.214  0.00  0.00     0.005 C 
ENDBRANCH  17  18
ENDBRANCH  13  17
ENDBRANCH   1   5
BRANCH   3  20
HETATM   20  C   UNL     1       5.197   7.302  21.103  0.00  0.00     0.037 C 
HETATM   21  C   UNL     1       5.969   6.461  21.896  0.00  0.00     0.030 C 
HETATM   22  C   UNL     1       5.739   6.394  23.266  0.00  0.00     0.010 C 
HETATM   23  C   UNL     1       4.820   7.248  23.896  0.00  0.00    -0.054 C 
HETATM   24  C   UNL     1       4.146   8.183  23.085  0.00  0.00     0.010 C 
HETATM   25  C   UNL     1       4.330   8.212  21.697  0.00  0.00     0.030 C 
BRANCH  23  26
HETATM   26  C   UNL     1       4.504   7.099  25.387  0.00  0.00     0.022 C 
HETATM   27  C   UNL     1       3.158   7.718  25.823  0.00  0.00     0.039 C 
HETATM   28  C   UNL     1       1.981   6.893  25.290  0.00  0.00     0.272 C 
HETATM   29  N   UNL     1       2.008   5.495  25.741  0.00  0.00     0.084 N 
HETATM   30  C   UNL     1       1.637   5.372  27.149  0.00  0.00     0.309 C 
HETATM   31  C   UNL     1       3.298   4.857  25.440  0.00  0.00     0.272 C 
HETATM   32  C   UNL     1       4.518   5.652  25.920  0.00  0.00     0.039 C 
ENDBRANCH  23  26
ENDBRANCH   3  20
TORSDOF 6
ENDMDL
MODEL 7
REMARK VINA RESULT:    -6.832      2.759      7.429
REMARK INTER + INTRA:         -10.829
REMARK INTER:                  -9.479
REMARK INTRA:                  -1.349
REMARK UNBOUND:                -1.800
REMARK  6 active torsions:
REMARK  status: ('A' for Active; 'I' for Inactive)
REMARK    1  A    between atoms: C_2  and  C_3 
REMARK    2  A    between atoms: C_3  and  C_4 
REMARK    3  A    between atoms: C_10  and  O_11 
REMARK    4  A    between atoms: C_12  and  C_13 
REMARK       I    between atoms: C_13  and  N_15 
REMARK    5  A    between atoms: N_15  and  C_17 
REMARK    6  A    between atoms: C_20  and  C_21 
ROOT
HETATM    1  C   UNL     1       5.007   6.696  19.096  0.00  0.00     0.260 C 
HETATM    2  O   UNL     1       5.480   6.661  17.953  0.00  0.00    -0.267 OA
HETATM    3  N   UNL     1       5.573   7.547  20.066  0.00  0.00    -0.318 N 
HETATM    4  C   UNL     1       6.700   8.398  19.696  0.00  0.00     0.159 C 
ENDROOT
BRANCH   1   5
HETATM    5  C   UNL     1       3.755   5.885  19.317  0.00  0.00     0.066 C 
HETATM    6  C   UNL     1       3.613   4.759  20.136  0.00  0.00     0.083 C 
HETATM    7  C   UNL     1       2.385   4.107  20.332  0.00  0.00     0.069 C 
HETATM    8  C   UNL     1       1.324   4.515  19.531  0.00  0.00     0.065 A 
HETATM    9  N   UNL     1       0.058   4.022  19.399  0.00  0.00    -0.277 N 
HETATM   10  C   UNL     1       1.424   5.547  18.608  0.00  0.00     0.019 A 
HETATM   11  N   UNL     1      -0.658   4.601  18.432  0.00  0.00    -0.178 NA
HETATM   12  H   UNL     1      -0.367   3.257  19.916  0.00  0.00     0.189 HD
HETATM   13  C   UNL     1       0.171   5.538  17.941  0.00  0.00     0.067 A 
HETATM   14  C   UNL     1       2.639   6.263  18.527  0.00  0.00     0.035 C 
BRANCH   6  15
HETATM   15  O   UNL     1       4.685   4.116  20.679  0.00  0.00    -0.360 OA
HETATM   16  H   UNL     1       5.277   4.791  21.054  0.00  0.00     0.217 HD
ENDBRANCH   6  15
BRANCH  13  17
HETATM   17  C   UNL     1      -0.290   6.370  16.787  0.00  0.00     0.062 C 
BRANCH  17  18
HETATM   18  C   UNL     1       0.498   6.061  15.511  0.00  0.00     0.002 C 
HETATM   19  C   UNL     1      -0.153   4.956  14.702  0.00  0.00     0.005 C 
ENDBRANCH  17  18
ENDBRANCH  13  17
ENDBRANCH   1   5
BRANCH   3  20
HETATM   20  C   UNL     1       5.172   7.653  21.405  0.00  0.00     0.037 C 
HETATM   21  C   UNL     1       5.720   6.772  22.330  0.00  0.00     0.030 C 
HETATM   22  C   UNL     1       5.265   6.774  23.644  0.00  0.00     0.010 C 
HETATM   23  C   UNL     1       4.341   7.730  24.097  0.00  0.00    -0.054 C 
HETATM   24  C   UNL     1       3.902   8.694  23.169  0.00  0.00     0.010 C 
HETATM   25  C   UNL     1       4.312   8.658  21.830  0.00  0.00     0.030 C 
BRANCH  23  26
HETATM   26  C   UNL     1       3.774   7.661  25.518  0.00  0.00     0.022 C 
HETATM   27  C   UNL     1       2.483   8.481  25.734  0.00  0.00     0.039 C 
HETATM   28  C   UNL     1       1.296   7.826  25.017  0.00  0.00     0.272 C 
HETATM   29  N   UNL     1       1.043   6.449  25.464  0.00  0.00     0.084 N 
HETATM   30  C   UNL     1       0.439   6.413  26.794  0.00  0.00     0.309 C 
HETATM   31  C   UNL     1       2.256   5.622  25.373  0.00  0.00     0.272 C 
HETATM   32  C   UNL     1       3.488   6.240  26.044  0.00  0.00     0.039 C 
ENDBRANCH  23  26
ENDBRANCH   3  20
TORSDOF 6
ENDMDL
MODEL 8
REMARK VINA RESULT:    -6.827      3.851      8.169
REMARK INTER + INTRA:         -10.822
REMARK INTER:                  -9.022
REMARK INTRA:                  -1.800
REMARK UNBOUND:                -1.800
REMARK  6 active torsions:
REMARK  status: ('A' for Active; 'I' for Inactive)
REMARK    1  A    between atoms: C_2  and  C_3 
REMARK    2  A    between atoms: C_3  and  C_4 
REMARK    3  A    between atoms: C_10  and  O_11 
REMARK    4  A    between atoms: C_12  and  C_13 
REMARK       I    between atoms: C_13  and  N_15 
REMARK    5  A    between atoms: N_15  and  C_17 
REMARK    6  A    between atoms: C_20  and  C_21 
ROOT
HETATM    1  C   UNL     1       1.306   5.185  16.248  0.00  0.00     0.260 C 
HETATM    2  O   UNL     1       0.686   4.843  15.233  0.00  0.00    -0.267 OA
HETATM    3  N   UNL     1       2.073   6.367  16.238  0.00  0.00    -0.318 N 
HETATM    4  C   UNL     1       2.103   7.186  15.030  0.00  0.00     0.159 C 
ENDROOT
BRANCH   1   5
HETATM    5  C   UNL     1       1.081   4.339  17.476  0.00  0.00     0.066 C 
HETATM    6  C   UNL     1       0.169   4.581  18.510  0.00  0.00     0.083 C 
HETATM    7  C   UNL     1      -0.019   3.696  19.584  0.00  0.00     0.069 C 
HETATM    8  C   UNL     1       0.874   2.634  19.685  0.00  0.00     0.065 A 
HETATM    9  N   UNL     1       1.029   1.681  20.650  0.00  0.00    -0.277 N 
HETATM   10  C   UNL     1       1.882   2.401  18.760  0.00  0.00     0.019 A 
HETATM   11  N   UNL     1       2.083   0.882  20.467  0.00  0.00    -0.178 NA
HETATM   12  H   UNL     1       0.467   1.548  21.487  0.00  0.00     0.189 HD
HETATM   13  C   UNL     1       2.613   1.316  19.311  0.00  0.00     0.067 A 
HETATM   14  C   UNL     1       1.962   3.238  17.625  0.00  0.00     0.035 C 
BRANCH   6  15
HETATM   15  O   UNL     1      -0.490   5.767  18.636  0.00  0.00    -0.360 OA
HETATM   16  H   UNL     1      -1.283   5.610  19.176  0.00  0.00     0.217 HD
ENDBRANCH   6  15
BRANCH  13  17
HETATM   17  C   UNL     1       3.863   0.667  18.807  0.00  0.00     0.062 C 
BRANCH  17  18
HETATM   18  C   UNL     1       5.111   1.221  19.501  0.00  0.00     0.002 C 
HETATM   19  C   UNL     1       5.142   2.736  19.476  0.00  0.00     0.005 C 
ENDBRANCH  17  18
ENDBRANCH  13  17
ENDBRANCH   1   5
BRANCH   3  20
HETATM   20  C   UNL     1       2.861   6.848  17.294  0.00  0.00     0.037 C 
HETATM   21  C   UNL     1       4.068   6.212  17.560  0.00  0.00     0.030 C 
HETATM   22  C   UNL     1       4.822   6.590  18.666  0.00  0.00     0.010 C 
HETATM   23  C   UNL     1       4.453   7.685  19.463  0.00  0.00    -0.054 C 
HETATM   24  C   UNL     1       3.293   8.393  19.092  0.00  0.00     0.010 C 
HETATM   25  C   UNL     1       2.499   7.979  18.015  0.00  0.00     0.030 C 
BRANCH  23  26
HETATM   26  C   UNL     1       5.235   8.030  20.734  0.00  0.00     0.022 C 
HETATM   27  C   UNL     1       4.356   8.423  21.942  0.00  0.00     0.039 C 
HETATM   28  C   UNL     1       3.614   7.201  22.495  0.00  0.00     0.272 C 
HETATM   29  N   UNL     1       4.516   6.122  22.918  0.00  0.00     0.084 N 
HETATM   30  C   UNL     1       5.200   6.447  24.169  0.00  0.00     0.309 C 
HETATM   31  C   UNL     1       5.450   5.750  21.846  0.00  0.00     0.272 C 
HETATM   32  C   UNL     1       6.202   6.935  21.228  0.00  0.00     0.039 C 
ENDBRANCH  23  26
ENDBRANCH   3  20
TORSDOF 6
ENDMDL
MODEL 9
REMARK VINA RESULT:    -6.811      4.317      7.597
REMARK INTER + INTRA:         -10.801
REMARK INTER:                  -9.823
REMARK INTRA:                  -0.978
REMARK UNBOUND:                -1.800
REMARK  6 active torsions:
REMARK  status: ('A' for Active; 'I' for Inactive)
REMARK    1  A    between atoms: C_2  and  C_3 
REMARK    2  A    between atoms: C_3  and  C_4 
REMARK    3  A    between atoms: C_10  and  O_11 
REMARK    4  A    between atoms: C_12  and  C_13 
REMARK       I    between atoms: C_13  and  N_15 
REMARK    5  A    between atoms: N_15  and  C_17 
REMARK    6  A    between atoms: C_20  and  C_21 
ROOT
HETATM    1  C   UNL     1       2.351   3.409  17.331  0.00  0.00     0.260 C 
HETATM    2  O   UNL     1       2.057   2.673  16.380  0.00  0.00    -0.267 OA
HETATM    3  N   UNL     1       3.052   2.887  18.435  0.00  0.00    -0.318 N 
HETATM    4  C   UNL     1       3.446   1.481  18.428  0.00  0.00     0.159 C 
ENDROOT
BRANCH   1   5
HETATM    5  C   UNL     1       2.021   4.871  17.158  0.00  0.00     0.066 C 
HETATM    6  C   UNL     1       1.294   5.454  16.114  0.00  0.00     0.083 C 
HETATM    7  C   UNL     1       0.978   6.821  16.073  0.00  0.00     0.069 C 
HETATM    8  C   UNL     1       1.575   7.631  17.035  0.00  0.00     0.065 A 
HETATM    9  N   UNL     1       1.562   8.986  17.199  0.00  0.00    -0.277 N 
HETATM   10  C   UNL     1       2.407   7.138  18.030  0.00  0.00     0.019 A 
HETATM   11  N   UNL     1       2.358   9.426  18.177  0.00  0.00    -0.178 NA
HETATM   12  H   UNL     1       1.059   9.674  16.645  0.00  0.00     0.189 HD
HETATM   13  C   UNL     1       2.880   8.301  18.692  0.00  0.00     0.067 A 
HETATM   14  C   UNL     1       2.601   5.742  18.115  0.00  0.00     0.035 C 
BRANCH   6  15
HETATM   15  O   UNL     1       0.974   4.768  14.980  0.00  0.00    -0.360 OA
HETATM   16  H   UNL     1       0.553   5.394  14.365  0.00  0.00     0.217 HD
ENDBRANCH   6  15
BRANCH  13  17
HETATM   17  C   UNL     1       3.875   8.415  19.803  0.00  0.00     0.062 C 
BRANCH  17  18
HETATM   18  C   UNL     1       5.285   8.031  19.346  0.00  0.00     0.002 C 
HETATM   19  C   UNL     1       6.283   8.095  20.486  0.00  0.00     0.005 C 
ENDBRANCH  17  18
ENDBRANCH  13  17
ENDBRANCH   1   5
BRANCH   3  20
HETATM   20  C   UNL     1       3.405   3.590  19.595  0.00  0.00     0.037 C 
HETATM   21  C   UNL     1       2.411   3.876  20.523  0.00  0.00     0.030 C 
HETATM   22  C   UNL     1       2.701   4.666  21.630  0.00  0.00     0.010 C 
HETATM   23  C   UNL     1       4.012   5.090  21.903  0.00  0.00    -0.054 C 
HETATM   24  C   UNL     1       5.023   4.675  21.015  0.00  0.00     0.010 C 
HETATM   25  C   UNL     1       4.725   3.930  19.866  0.00  0.00     0.030 C 
BRANCH  23  26
HETATM   26  C   UNL     1       4.303   6.040  23.068  0.00  0.00     0.022 C 
HETATM   27  C   UNL     1       3.183   6.116  24.129  0.00  0.00     0.039 C 
HETATM   28  C   UNL     1       3.118   4.820  24.945  0.00  0.00     0.272 C 
HETATM   29  N   UNL     1       4.379   4.509  25.633  0.00  0.00     0.084 N 
HETATM   30  C   UNL     1       4.600   5.385  26.781  0.00  0.00     0.309 C 
HETATM   31  C   UNL     1       5.515   4.507  24.699  0.00  0.00     0.272 C 
HETATM   32  C   UNL     1       5.615   5.765  23.829  0.00  0.00     0.039 C 
ENDBRANCH  23  26
ENDBRANCH   3  20
TORSDOF 6
ENDMDL
