MODEL 1
REMARK VINA RESULT:    -7.190      0.000      0.000
REMARK INTER + INTRA:          -9.487
REMARK INTER:                  -8.459
REMARK INTRA:                  -1.028
REMARK UNBOUND:                -1.036
REMARK  4 active torsions:
REMARK  status: ('A' for Active; 'I' for Inactive)
REMARK    1  A    between atoms: O_1  and  C_2 
REMARK    2  A    between atoms: C_4  and  O_5 
REMARK    3  A    between atoms: C_6  and  C_9 
REMARK    4  A    between atoms: N_15  and  C_16 
ROOT
HETATM    1  C   UNL     1       8.256  14.064  23.727  0.00  0.00     0.172 A 
HETATM    2  N   UNL     1       9.371  13.992  24.410  0.00  0.00    -0.151 NA
HETATM    3  N   UNL     1       9.035  14.351  25.679  0.00  0.00    -0.226 N 
HETATM    4  H   UNL     1       9.665  14.239  26.461  0.00  0.00     0.194 HD
HETATM    5  C   UNL     1       7.682  14.623  25.772  0.00  0.00     0.349 A 
HETATM    6  O   UNL     1       7.086  14.856  26.816  0.00  0.00    -0.245 OA
HETATM    7  N   UNL     1       7.186  14.481  24.487  0.00  0.00    -0.241 N 
ENDROOT
BRANCH   1   8
HETATM    8  C   UNL     1       8.209  13.782  22.261  0.00  0.00     0.045 A 
HETATM    9  C   UNL     1       8.497  14.792  21.323  0.00  0.00     0.082 A 
HETATM   10  C   UNL     1       8.546  14.515  19.953  0.00  0.00     0.074 A 
HETATM   11  C   UNL     1       8.294  13.223  19.512  0.00  0.00     0.068 A 
HETATM   12  C   UNL     1       7.917  12.232  20.406  0.00  0.00     0.037 A 
HETATM   13  C   UNL     1       7.843  12.518  21.773  0.00  0.00     0.021 A 
BRANCH   9  14
HETATM   14  O   UNL     1       8.768  16.074  21.719  0.00  0.00    -0.360 OA
HETATM   15  H   UNL     1       8.291  16.699  21.149  0.00  0.00     0.217 HD
ENDBRANCH   9  14
BRANCH  11  16
HETATM   16  O   UNL     1       8.410  12.885  18.198  0.00  0.00    -0.361 OA
HETATM   17  H   UNL     1       8.927  12.065  18.128  0.00  0.00     0.217 HD
ENDBRANCH  11  16
ENDBRANCH   1   8
BRANCH   7  18
HETATM   18  C   UNL     1       5.800  14.540  24.237  0.00  0.00     0.084 A 
HETATM   19  C   UNL     1       4.972  13.417  24.292  0.00  0.00     0.143 A 
HETATM   20  F   UNL     1       5.476  12.211  24.603  0.00  0.00    -0.204 F 
HETATM   21  C   UNL     1       3.597  13.529  24.090  0.00  0.00     0.044 A 
HETATM   22  C   UNL     1       3.030  14.777  23.824  0.00  0.00     0.003 A 
HETATM   23  C   UNL     1       3.840  15.907  23.762  0.00  0.00     0.002 A 
HETATM   24  C   UNL     1       5.215  15.792  23.976  0.00  0.00     0.033 A 
ENDBRANCH   7  18
TORSDOF 4
ENDMDL
MODEL 2
REMARK VINA RESULT:    -7.005      1.545      1.781
REMARK INTER + INTRA:          -9.269
REMARK INTER:                  -8.227
REMARK INTRA:                  -1.042
REMARK UNBOUND:                -1.036
REMARK  4 active torsions:
REMARK  status: ('A' for Active; 'I' for Inactive)
REMARK    1  A    between atoms: O_1  and  C_2 
REMARK    2  A    between atoms: C_4  and  O_5 
REMARK    3  A    between atoms: C_6  and  C_9 
REMARK    4  A    between atoms: N_15  and  C_16 
ROOT
HETATM    1  C   UNL     1       7.706  12.970  24.368  0.00  0.00     0.172 A 
HETATM    2  N   UNL     1       8.797  12.675  25.031  0.00  0.00    -0.151 NA
HETATM    3  N   UNL     1       8.740  13.427  26.163  0.00  0.00    -0.226 N 
HETATM    4  H   UNL     1       9.375  13.293  26.938  0.00  0.00     0.194 HD
HETATM    5  C   UNL     1       7.578  14.177  26.199  0.00  0.00     0.349 A 
HETATM    6  O   UNL     1       7.212  14.854  27.151  0.00  0.00    -0.245 OA
HETATM    7  N   UNL     1       6.929  13.912  25.004  0.00  0.00    -0.241 N 
ENDROOT
BRANCH   1   8
HETATM    8  C   UNL     1       7.411  12.375  23.031  0.00  0.00     0.045 A 
HETATM    9  C   UNL     1       8.272  12.593  21.938  0.00  0.00     0.082 A 
HETATM   10  C   UNL     1       8.053  11.965  20.707  0.00  0.00     0.074 A 
HETATM   11  C   UNL     1       6.960  11.123  20.560  0.00  0.00     0.068 A 
HETATM   12  C   UNL     1       6.045  10.965  21.590  0.00  0.00     0.037 A 
HETATM   13  C   UNL     1       6.252  11.614  22.811  0.00  0.00     0.021 A 
BRANCH   9  14
HETATM   14  O   UNL     1       9.370  13.402  22.049  0.00  0.00    -0.360 OA
HETATM   15  H   UNL     1       9.892  13.139  22.826  0.00  0.00     0.217 HD
ENDBRANCH   9  14
BRANCH  11  16
HETATM   16  O   UNL     1       6.749  10.426  19.408  0.00  0.00    -0.361 OA
HETATM   17  H   UNL     1       7.158  10.907  18.669  0.00  0.00     0.217 HD
ENDBRANCH  11  16
ENDBRANCH   1   8
BRANCH   7  18
HETATM   18  C   UNL     1       5.628  14.398  24.766  0.00  0.00     0.084 A 
HETATM   19  C   UNL     1       4.487  13.805  25.311  0.00  0.00     0.143 A 
HETATM   20  F   UNL     1       4.591  12.732  26.111  0.00  0.00    -0.204 F 
HETATM   21  C   UNL     1       3.223  14.351  25.093  0.00  0.00     0.044 A 
HETATM   22  C   UNL     1       3.083  15.503  24.317  0.00  0.00     0.003 A 
HETATM   23  C   UNL     1       4.209  16.105  23.762  0.00  0.00     0.002 A 
HETATM   24  C   UNL     1       5.475  15.563  23.993  0.00  0.00     0.033 A 
ENDBRANCH   7  18
TORSDOF 4
ENDMDL
MODEL 3
REMARK VINA RESULT:    -6.948      1.749      2.113
REMARK INTER + INTRA:          -9.203
REMARK INTER:                  -8.294
REMARK INTRA:                  -0.908
REMARK UNBOUND:                -1.036
REMARK  4 active torsions:
REMARK  status: ('A' for Active; 'I' for Inactive)
REMARK    1  A    between atoms: O_1  and  C_2 
REMARK    2  A    between atoms: C_4  and  O_5 
REMARK    3  A    between atoms: C_6  and  C_9 
REMARK    4  A    between atoms: N_15  and  C_16 
ROOT
HETATM    1  C   UNL     1       7.985  13.048  24.347  0.00  0.00     0.172 A 
HETATM    2  N   UNL     1       9.061  12.650  24.979  0.00  0.00    -0.151 NA
HETATM    3  N   UNL     1       9.123  13.422  26.098  0.00  0.00    -0.226 N 
HETATM    4  H   UNL     1       9.766  13.234  26.854  0.00  0.00     0.194 HD
HETATM    5  C   UNL     1       8.048  14.291  26.157  0.00  0.00     0.349 A 
HETATM    6  O   UNL     1       7.788  15.017  27.108  0.00  0.00    -0.245 OA
HETATM    7  N   UNL     1       7.334  14.077  24.990  0.00  0.00    -0.241 N 
ENDROOT
BRANCH   1   8
HETATM    8  C   UNL     1       7.583  12.467  23.032  0.00  0.00     0.045 A 
HETATM    9  C   UNL     1       8.279  12.798  21.853  0.00  0.00     0.082 A 
HETATM   10  C   UNL     1       7.968  12.188  20.633  0.00  0.00     0.074 A 
HETATM   11  C   UNL     1       6.947  11.250  20.584  0.00  0.00     0.068 A 
HETATM   12  C   UNL     1       6.185  10.974  21.710  0.00  0.00     0.037 A 
HETATM   13  C   UNL     1       6.481  11.604  22.922  0.00  0.00     0.021 A 
BRANCH   9  14
HETATM   14  O   UNL     1       9.303  13.706  21.864  0.00  0.00    -0.360 OA
HETATM   15  H   UNL     1      10.109  13.293  21.512  0.00  0.00     0.217 HD
ENDBRANCH   9  14
BRANCH  11  16
HETATM   16  O   UNL     1       6.662  10.569  19.439  0.00  0.00    -0.361 OA
HETATM   17  H   UNL     1       6.198  11.164  18.826  0.00  0.00     0.217 HD
ENDBRANCH  11  16
ENDBRANCH   1   8
BRANCH   7  18
HETATM   18  C   UNL     1       6.083  14.693  24.785  0.00  0.00     0.084 A 
HETATM   19  C   UNL     1       5.811  15.507  23.683  0.00  0.00     0.143 A 
HETATM   20  F   UNL     1       6.749  15.728  22.749  0.00  0.00    -0.204 F 
HETATM   21  C   UNL     1       4.542  16.053  23.492  0.00  0.00     0.044 A 
HETATM   22  C   UNL     1       3.524  15.795  24.412  0.00  0.00     0.003 A 
HETATM   23  C   UNL     1       3.778  14.989  25.518  0.00  0.00     0.002 A 
HETATM   24  C   UNL     1       5.046  14.433  25.700  0.00  0.00     0.033 A 
ENDBRANCH   7  18
TORSDOF 4
ENDMDL
MODEL 4
REMARK VINA RESULT:    -6.859      2.324      2.994
REMARK INTER + INTRA:          -9.098
REMARK INTER:                  -8.259
REMARK INTRA:                  -0.839
REMARK UNBOUND:                -1.036
REMARK  4 active torsions:
REMARK  status: ('A' for Active; 'I' for Inactive)
REMARK    1  A    between atoms: O_1  and  C_2 
REMARK    2  A    between atoms: C_4  and  O_5 
REMARK    3  A    between atoms: C_6  and  C_9 
REMARK    4  A    between atoms: N_15  and  C_16 
ROOT
HETATM    1  C   UNL     1       7.579  12.832  23.979  0.00  0.00     0.172 A 
HETATM    2  N   UNL     1       8.770  12.367  24.259  0.00  0.00    -0.151 NA
HETATM    3  N   UNL     1       9.323  13.287  25.097  0.00  0.00    -0.226 N 
HETATM    4  H   UNL     1      10.184  13.117  25.599  0.00  0.00     0.194 HD
HETATM    5  C   UNL     1       8.438  14.320  25.347  0.00  0.00     0.349 A 
HETATM    6  O   UNL     1       8.627  15.221  26.154  0.00  0.00    -0.245 OA
HETATM    7  N   UNL     1       7.319  14.044  24.579  0.00  0.00    -0.241 N 
ENDROOT
BRANCH   1   8
HETATM    8  C   UNL     1       6.656  12.123  23.043  0.00  0.00     0.045 A 
HETATM    9  C   UNL     1       7.086  11.741  21.757  0.00  0.00     0.082 A 
HETATM   10  C   UNL     1       6.259  10.997  20.909  0.00  0.00     0.074 A 
HETATM   11  C   UNL     1       4.989  10.640  21.341  0.00  0.00     0.068 A 
HETATM   12  C   UNL     1       4.508  11.082  22.564  0.00  0.00     0.037 A 
HETATM   13  C   UNL     1       5.327  11.848  23.399  0.00  0.00     0.021 A 
BRANCH   9  14
HETATM   14  O   UNL     1       8.337  12.059  21.303  0.00  0.00    -0.360 OA
HETATM   15  H   UNL     1       8.825  12.533  21.996  0.00  0.00     0.217 HD
ENDBRANCH   9  14
BRANCH  11  16
HETATM   16  O   UNL     1       4.179   9.846  20.586  0.00  0.00    -0.361 OA
HETATM   17  H   UNL     1       3.356   9.679  21.075  0.00  0.00     0.217 HD
ENDBRANCH  11  16
ENDBRANCH   1   8
BRANCH   7  18
HETATM   18  C   UNL     1       6.149  14.818  24.704  0.00  0.00     0.084 A 
HETATM   19  C   UNL     1       5.592  15.527  23.638  0.00  0.00     0.143 A 
HETATM   20  F   UNL     1       6.159  15.487  22.421  0.00  0.00    -0.204 F 
HETATM   21  C   UNL     1       4.402  16.238  23.793  0.00  0.00     0.044 A 
HETATM   22  C   UNL     1       3.753  16.252  25.028  0.00  0.00     0.003 A 
HETATM   23  C   UNL     1       4.295  15.554  26.104  0.00  0.00     0.002 A 
HETATM   24  C   UNL     1       5.480  14.834  25.942  0.00  0.00     0.033 A 
ENDBRANCH   7  18
TORSDOF 4
ENDMDL
MODEL 5
REMARK VINA RESULT:    -6.789      2.340      5.279
REMARK INTER + INTRA:          -9.015
REMARK INTER:                  -8.112
REMARK INTRA:                  -0.903
REMARK UNBOUND:                -1.036
REMARK  4 active torsions:
REMARK  status: ('A' for Active; 'I' for Inactive)
REMARK    1  A    between atoms: O_1  and  C_2 
REMARK    2  A    between atoms: C_4  and  O_5 
REMARK    3  A    between atoms: C_6  and  C_9 
REMARK    4  A    between atoms: N_15  and  C_16 
ROOT
HETATM    1  C   UNL     1       7.253  14.913  22.354  0.00  0.00     0.172 A 
HETATM    2  N   UNL     1       7.850  15.907  21.743  0.00  0.00    -0.151 NA
HETATM    3  N   UNL     1       8.698  15.321  20.855  0.00  0.00    -0.226 N 
HETATM    4  H   UNL     1       9.179  15.843  20.137  0.00  0.00     0.194 HD
HETATM    5  C   UNL     1       8.596  13.942  20.912  0.00  0.00     0.349 A 
HETATM    6  O   UNL     1       9.155  13.168  20.147  0.00  0.00    -0.245 OA
HETATM    7  N   UNL     1       7.687  13.679  21.924  0.00  0.00    -0.241 N 
ENDROOT
BRANCH   1   8
HETATM    8  C   UNL     1       6.262  15.141  23.447  0.00  0.00     0.045 A 
HETATM    9  C   UNL     1       6.581  14.837  24.785  0.00  0.00     0.082 A 
HETATM   10  C   UNL     1       5.694  15.132  25.826  0.00  0.00     0.074 A 
HETATM   11  C   UNL     1       4.474  15.725  25.531  0.00  0.00     0.068 A 
HETATM   12  C   UNL     1       4.097  15.950  24.215  0.00  0.00     0.037 A 
HETATM   13  C   UNL     1       4.975  15.629  23.175  0.00  0.00     0.021 A 
BRANCH   9  14
HETATM   14  O   UNL     1       7.781  14.268  25.118  0.00  0.00    -0.360 OA
HETATM   15  H   UNL     1       8.479  14.619  24.540  0.00  0.00     0.217 HD
ENDBRANCH   9  14
BRANCH  11  16
HETATM   16  O   UNL     1       3.613  16.107  26.515  0.00  0.00    -0.361 OA
HETATM   17  H   UNL     1       3.521  17.074  26.496  0.00  0.00     0.217 HD
ENDBRANCH  11  16
ENDBRANCH   1   8
BRANCH   7  18
HETATM   18  C   UNL     1       7.227  12.368  22.159  0.00  0.00     0.084 A 
HETATM   19  C   UNL     1       7.924  11.452  22.949  0.00  0.00     0.143 A 
HETATM   20  F   UNL     1       9.079  11.798  23.539  0.00  0.00    -0.204 F 
HETATM   21  C   UNL     1       7.405  10.182  23.199  0.00  0.00     0.044 A 
HETATM   22  C   UNL     1       6.176   9.809  22.653  0.00  0.00     0.003 A 
HETATM   23  C   UNL     1       5.469  10.708  21.859  0.00  0.00     0.002 A 
HETATM   24  C   UNL     1       5.986  11.983  21.621  0.00  0.00     0.033 A 
ENDBRANCH   7  18
TORSDOF 4
ENDMDL
MODEL 6
REMARK VINA RESULT:    -6.720      2.245      2.858
REMARK INTER + INTRA:          -8.934
REMARK INTER:                  -8.100
REMARK INTRA:                  -0.835
REMARK UNBOUND:                -1.036
REMARK  4 active torsions:
REMARK  status: ('A' for Active; 'I' for Inactive)
REMARK    1  A    between atoms: O_1  and  C_2 
REMARK    2  A    between atoms: C_4  and  O_5 
REMARK    3  A    between atoms: C_6  and  C_9 
REMARK    4  A    between atoms: N_15  and  C_16 
ROOT
HETATM    1  C   UNL     1       7.590  12.813  23.556  0.00  0.00     0.172 A 
HETATM    2  N   UNL     1       8.839  12.461  23.736  0.00  0.00    -0.151 NA
HETATM    3  N   UNL     1       9.371  13.431  24.530  0.00  0.00    -0.226 N 
HETATM    4  H   UNL     1      10.281  13.344  24.959  0.00  0.00     0.194 HD
HETATM    5  C   UNL     1       8.417  14.379  24.856  0.00  0.00     0.349 A 
HETATM    6  O   UNL     1       8.587  15.297  25.647  0.00  0.00    -0.245 OA
HETATM    7  N   UNL     1       7.270  13.998  24.180  0.00  0.00    -0.241 N 
ENDROOT
BRANCH   1   8
HETATM    8  C   UNL     1       6.664  12.018  22.696  0.00  0.00     0.045 A 
HETATM    9  C   UNL     1       7.072  11.559  21.428  0.00  0.00     0.082 A 
HETATM   10  C   UNL     1       6.245  10.737  20.655  0.00  0.00     0.074 A 
HETATM   11  C   UNL     1       4.996  10.380  21.144  0.00  0.00     0.068 A 
HETATM   12  C   UNL     1       4.533  10.893  22.346  0.00  0.00     0.037 A 
HETATM   13  C   UNL     1       5.351  11.736  23.105  0.00  0.00     0.021 A 
BRANCH   9  14
HETATM   14  O   UNL     1       8.302  11.876  20.920  0.00  0.00    -0.360 OA
HETATM   15  H   UNL     1       8.244  11.959  19.954  0.00  0.00     0.217 HD
ENDBRANCH   9  14
BRANCH  11  16
HETATM   16  O   UNL     1       4.188   9.516  20.466  0.00  0.00    -0.361 OA
HETATM   17  H   UNL     1       4.337   8.616  20.803  0.00  0.00     0.217 HD
ENDBRANCH  11  16
ENDBRANCH   1   8
BRANCH   7  18
HETATM   18  C   UNL     1       6.046  14.661  24.403  0.00  0.00     0.084 A 
HETATM   19  C   UNL     1       5.337  14.558  25.601  0.00  0.00     0.143 A 
HETATM   20  F   UNL     1       5.810  13.814  26.614  0.00  0.00    -0.204 F 
HETATM   21  C   UNL     1       4.157  15.274  25.799  0.00  0.00     0.044 A 
HETATM   22  C   UNL     1       3.666  16.106  24.790  0.00  0.00     0.003 A 
HETATM   23  C   UNL     1       4.359  16.218  23.587  0.00  0.00     0.002 A 
HETATM   24  C   UNL     1       5.546  15.508  23.398  0.00  0.00     0.033 A 
ENDBRANCH   7  18
TORSDOF 4
ENDMDL
MODEL 7
REMARK VINA RESULT:    -6.715      1.981      2.651
REMARK INTER + INTRA:          -8.929
REMARK INTER:                  -7.846
REMARK INTRA:                  -1.083
REMARK UNBOUND:                -1.036
REMARK  4 active torsions:
REMARK  status: ('A' for Active; 'I' for Inactive)
REMARK    1  A    between atoms: O_1  and  C_2 
REMARK    2  A    between atoms: C_4  and  O_5 
REMARK    3  A    between atoms: C_6  and  C_9 
REMARK    4  A    between atoms: N_15  and  C_16 
ROOT
HETATM    1  C   UNL     1       7.964  12.020  23.730  0.00  0.00     0.172 A 
HETATM    2  N   UNL     1       8.677  11.146  24.395  0.00  0.00    -0.151 NA
HETATM    3  N   UNL     1       8.251  11.247  25.684  0.00  0.00    -0.226 N 
HETATM    4  H   UNL     1       8.518  10.584  26.398  0.00  0.00     0.194 HD
HETATM    5  C   UNL     1       7.242  12.186  25.797  0.00  0.00     0.349 A 
HETATM    6  O   UNL     1       6.596  12.399  26.816  0.00  0.00    -0.245 OA
HETATM    7  N   UNL     1       7.091  12.722  24.529  0.00  0.00    -0.241 N 
ENDROOT
BRANCH   1   8
HETATM    8  C   UNL     1       8.162  12.249  22.267  0.00  0.00     0.045 A 
HETATM    9  C   UNL     1       7.987  11.201  21.343  0.00  0.00     0.082 A 
HETATM   10  C   UNL     1       8.080  11.427  19.965  0.00  0.00     0.074 A 
HETATM   11  C   UNL     1       8.360  12.706  19.505  0.00  0.00     0.068 A 
HETATM   12  C   UNL     1       8.629  13.735  20.396  0.00  0.00     0.037 A 
HETATM   13  C   UNL     1       8.561  13.500  21.773  0.00  0.00     0.021 A 
BRANCH   9  14
HETATM   14  O   UNL     1       7.691   9.930  21.757  0.00  0.00    -0.360 OA
HETATM   15  H   UNL     1       7.545   9.361  20.983  0.00  0.00     0.217 HD
ENDBRANCH   9  14
BRANCH  11  16
HETATM   16  O   UNL     1       8.380  12.994  18.174  0.00  0.00    -0.361 OA
HETATM   17  H   UNL     1       8.523  12.172  17.675  0.00  0.00     0.217 HD
ENDBRANCH  11  16
ENDBRANCH   1   8
BRANCH   7  18
HETATM   18  C   UNL     1       6.036  13.612  24.243  0.00  0.00     0.084 A 
HETATM   19  C   UNL     1       6.208  14.997  24.188  0.00  0.00     0.143 A 
HETATM   20  F   UNL     1       7.415  15.544  24.400  0.00  0.00    -0.204 F 
HETATM   21  C   UNL     1       5.148  15.838  23.848  0.00  0.00     0.044 A 
HETATM   22  C   UNL     1       3.893  15.298  23.561  0.00  0.00     0.003 A 
HETATM   23  C   UNL     1       3.702  13.920  23.615  0.00  0.00     0.002 A 
HETATM   24  C   UNL     1       4.768  13.081  23.943  0.00  0.00     0.033 A 
ENDBRANCH   7  18
TORSDOF 4
ENDMDL
MODEL 8
REMARK VINA RESULT:    -6.587      4.569      7.133
REMARK INTER + INTRA:          -8.778
REMARK INTER:                  -7.896
REMARK INTRA:                  -0.882
REMARK UNBOUND:                -1.036
REMARK  4 active torsions:
REMARK  status: ('A' for Active; 'I' for Inactive)
REMARK    1  A    between atoms: O_1  and  C_2 
REMARK    2  A    between atoms: C_4  and  O_5 
REMARK    3  A    between atoms: C_6  and  C_9 
REMARK    4  A    between atoms: N_15  and  C_16 
ROOT
HETATM    1  C   UNL     1       2.381  11.235  24.629  0.00  0.00     0.172 A 
HETATM    2  N   UNL     1       2.687   9.974  24.801  0.00  0.00    -0.151 NA
HETATM    3  N   UNL     1       4.018   9.965  25.081  0.00  0.00    -0.226 N 
HETATM    4  H   UNL     1       4.499   9.140  25.411  0.00  0.00     0.194 HD
HETATM    5  C   UNL     1       4.525  11.252  25.103  0.00  0.00     0.349 A 
HETATM    6  O   UNL     1       5.664  11.549  25.441  0.00  0.00    -0.245 OA
HETATM    7  N   UNL     1       3.464  12.074  24.760  0.00  0.00    -0.241 N 
ENDROOT
BRANCH   1   8
HETATM    8  C   UNL     1       1.000  11.669  24.259  0.00  0.00     0.045 A 
HETATM    9  C   UNL     1      -0.128  11.017  24.793  0.00  0.00     0.082 A 
HETATM   10  C   UNL     1      -1.423  11.474  24.525  0.00  0.00     0.074 A 
HETATM   11  C   UNL     1      -1.595  12.583  23.708  0.00  0.00     0.068 A 
HETATM   12  C   UNL     1      -0.507  13.187  23.096  0.00  0.00     0.037 A 
HETATM   13  C   UNL     1       0.784  12.711  23.344  0.00  0.00     0.021 A 
BRANCH   9  14
HETATM   14  O   UNL     1       0.002   9.931  25.616  0.00  0.00    -0.360 OA
HETATM   15  H   UNL     1       0.135  10.229  26.531  0.00  0.00     0.217 HD
ENDBRANCH   9  14
BRANCH  11  16
HETATM   16  O   UNL     1      -2.829  13.116  23.484  0.00  0.00    -0.361 OA
HETATM   17  H   UNL     1      -3.411  12.424  23.128  0.00  0.00     0.217 HD
ENDBRANCH  11  16
ENDBRANCH   1   8
BRANCH   7  18
HETATM   18  C   UNL     1       3.586  13.476  24.830  0.00  0.00     0.084 A 
HETATM   19  C   UNL     1       4.101  14.244  23.784  0.00  0.00     0.143 A 
HETATM   20  F   UNL     1       4.498  13.663  22.641  0.00  0.00    -0.204 F 
HETATM   21  C   UNL     1       4.154  15.635  23.874  0.00  0.00     0.044 A 
HETATM   22  C   UNL     1       3.693  16.279  25.024  0.00  0.00     0.003 A 
HETATM   23  C   UNL     1       3.180  15.529  26.079  0.00  0.00     0.002 A 
HETATM   24  C   UNL     1       3.117  14.137  25.980  0.00  0.00     0.033 A 
ENDBRANCH   7  18
TORSDOF 4
ENDMDL
MODEL 9
REMARK VINA RESULT:    -6.530      5.927      8.247
REMARK INTER + INTRA:          -8.712
REMARK INTER:                  -7.676
REMARK INTRA:                  -1.036
REMARK UNBOUND:                -1.036
REMARK  4 active torsions:
REMARK  status: ('A' for Active; 'I' for Inactive)
REMARK    1  A    between atoms: O_1  and  C_2 
REMARK    2  A    between atoms: C_4  and  O_5 
REMARK    3  A    between atoms: C_6  and  C_9 
REMARK    4  A    between atoms: N_15  and  C_16 
ROOT
HETATM    1  C   UNL     1      -0.006  12.883  23.356  0.00  0.00     0.172 A 
HETATM    2  N   UNL     1      -0.317  13.450  22.218  0.00  0.00    -0.151 NA
HETATM    3  N   UNL     1      -1.496  12.880  21.847  0.00  0.00    -0.226 N 
HETATM    4  H   UNL     1      -2.054  13.232  21.082  0.00  0.00     0.194 HD
HETATM    5  C   UNL     1      -1.920  11.963  22.793  0.00  0.00     0.349 A 
HETATM    6  O   UNL     1      -3.001  11.389  22.774  0.00  0.00    -0.245 OA
HETATM    7  N   UNL     1      -0.922  11.934  23.753  0.00  0.00    -0.241 N 
ENDROOT
BRANCH   1   8
HETATM    8  C   UNL     1       1.258  13.210  24.081  0.00  0.00     0.045 A 
HETATM    9  C   UNL     1       2.510  12.851  23.546  0.00  0.00     0.082 A 
HETATM   10  C   UNL     1       3.702  13.234  24.171  0.00  0.00     0.074 A 
HETATM   11  C   UNL     1       3.645  13.972  25.345  0.00  0.00     0.068 A 
HETATM   12  C   UNL     1       2.426  14.259  25.942  0.00  0.00     0.037 A 
HETATM   13  C   UNL     1       1.237  13.852  25.329  0.00  0.00     0.021 A 
BRANCH   9  14
HETATM   14  O   UNL     1       2.607  12.138  22.381  0.00  0.00    -0.360 OA
HETATM   15  H   UNL     1       1.903  12.413  21.771  0.00  0.00     0.217 HD
ENDBRANCH   9  14
BRANCH  11  16
HETATM   16  O   UNL     1       4.775  14.438  25.947  0.00  0.00    -0.361 OA
HETATM   17  H   UNL     1       5.509  14.399  25.311  0.00  0.00     0.217 HD
ENDBRANCH  11  16
ENDBRANCH   1   8
BRANCH   7  18
HETATM   18  C   UNL     1      -1.093  11.211  24.950  0.00  0.00     0.084 A 
HETATM   19  C   UNL     1      -0.471   9.984  25.189  0.00  0.00     0.143 A 
HETATM   20  F   UNL     1       0.342   9.439  24.270  0.00  0.00    -0.204 F 
HETATM   21  C   UNL     1      -0.626   9.328  26.411  0.00  0.00     0.044 A 
HETATM   22  C   UNL     1      -1.415   9.895  27.413  0.00  0.00     0.003 A 
HETATM   23  C   UNL     1      -2.046  11.116  27.190  0.00  0.00     0.002 A 
HETATM   24  C   UNL     1      -1.879  11.775  25.971  0.00  0.00     0.033 A 
ENDBRANCH   7  18
TORSDOF 4
ENDMDL
