MODEL 1
REMARK VINA RESULT:    -8.072      0.000      0.000
REMARK INTER + INTRA:         -14.555
REMARK INTER:                 -11.088
REMARK INTRA:                  -3.467
REMARK UNBOUND:                -3.651
REMARK  7 active torsions:
REMARK  status: ('A' for Active; 'I' for Inactive)
REMARK    1  A    between atoms: C_7  and  N_8 
REMARK    2  A    between atoms: C_14  and  C_15 
REMARK    3  A    between atoms: C_16  and  O_17 
REMARK    4  A    between atoms: C_19  and  O_20 
REMARK    5  A    between atoms: C_22  and  C_23 
REMARK       I    between atoms: C_23  and  N_25 
REMARK    6  A    between atoms: N_25  and  C_27 
REMARK    7  A    between atoms: C_27  and  C_28 
ROOT
HETATM    1  C   UNL     1       3.864   7.169  18.183  0.00  0.00     0.046 A 
HETATM    2  C   UNL     1       2.885   8.167  18.409  0.00  0.00     0.082 A 
HETATM    3  C   UNL     1       1.626   8.102  17.827  0.00  0.00     0.075 A 
HETATM    4  C   UNL     1       1.297   7.018  17.025  0.00  0.00     0.084 A 
HETATM    5  C   UNL     1       3.536   6.098  17.317  0.00  0.00     0.038 A 
HETATM    6  C   UNL     1       2.227   5.985  16.773  0.00  0.00     0.066 A 
ENDROOT
BRANCH   1   7
HETATM    7  C   UNL     1       5.132   7.302  18.971  0.00  0.00     0.172 A 
HETATM    8  N   UNL     1       5.523   6.632  20.115  0.00  0.00    -0.244 N 
HETATM    9  C   UNL     1       6.772   7.154  20.441  0.00  0.00     0.349 A 
HETATM   10  O   UNL     1       7.476   6.958  21.415  0.00  0.00    -0.245 OA
HETATM   11  N   UNL     1       7.061   8.076  19.452  0.00  0.00    -0.226 N 
HETATM   12  H   UNL     1       7.828   8.737  19.492  0.00  0.00     0.194 HD
HETATM   13  N   UNL     1       6.039   8.167  18.566  0.00  0.00    -0.151 NA
BRANCH   8  14
HETATM   14  C   UNL     1       4.827   5.793  21.006  0.00  0.00     0.051 C 
HETATM   15  C   UNL     1       3.833   6.270  21.876  0.00  0.00    -0.035 C 
HETATM   16  C   UNL     1       3.763   7.715  22.299  0.00  0.00     0.050 C 
HETATM   17  C   UNL     1       3.028   5.352  22.568  0.00  0.00     0.009 C 
HETATM   18  C   UNL     1       3.385   4.007  22.628  0.00  0.00     0.001 C 
HETATM   19  C   UNL     1       4.514   3.565  21.952  0.00  0.00     0.002 C 
HETATM   20  C   UNL     1       5.199   4.440  21.107  0.00  0.00     0.031 C 
ENDBRANCH   8  14
ENDBRANCH   1   7
BRANCH   2  21
HETATM   21  O   UNL     1       3.055   9.246  19.242  0.00  0.00    -0.360 OA
HETATM   22  H   UNL     1       2.207   9.740  19.290  0.00  0.00     0.217 HD
ENDBRANCH   2  21
BRANCH   6  23
HETATM   23  C   UNL     1       1.670   4.661  16.332  0.00  0.00     0.256 C 
HETATM   24  O   UNL     1       1.364   4.600  15.134  0.00  0.00    -0.267 OA
HETATM   25  N   UNL     1       1.398   3.578  17.177  0.00  0.00    -0.348 N 
HETATM   26  C   UNL     1       0.676   2.452  16.582  0.00  0.00     0.153 C 
BRANCH  25  27
HETATM   27  C   UNL     1       1.808   3.409  18.573  0.00  0.00     0.164 C 
BRANCH  27  28
HETATM   28  C   UNL     1       2.936   2.417  18.818  0.00  0.00    -0.040 A 
HETATM   29  C   UNL     1       4.205   2.576  18.244  0.00  0.00     0.009 A 
HETATM   30  C   UNL     1       5.254   1.708  18.570  0.00  0.00     0.001 A 
HETATM   31  C   UNL     1       5.054   0.674  19.484  0.00  0.00     0.000 A 
HETATM   32  C   UNL     1       3.799   0.494  20.058  0.00  0.00     0.001 A 
HETATM   33  C   UNL     1       2.748   1.357  19.726  0.00  0.00     0.009 A 
ENDBRANCH  27  28
ENDBRANCH  25  27
ENDBRANCH   6  23
BRANCH   4  34
HETATM   34  O   UNL     1       0.027   6.984  16.514  0.00  0.00    -0.360 OA
HETATM   35  H   UNL     1      -0.176   7.826  16.080  0.00  0.00     0.217 HD
ENDBRANCH   4  34
TORSDOF 7
ENDMDL
MODEL 2
REMARK VINA RESULT:    -7.427      3.931      7.545
REMARK INTER + INTRA:         -13.683
REMARK INTER:                 -11.288
REMARK INTRA:                  -2.394
REMARK UNBOUND:                -3.651
REMARK  7 active torsions:
REMARK  status: ('A' for Active; 'I' for Inactive)
REMARK    1  A    between atoms: C_7  and  N_8 
REMARK    2  A    between atoms: C_14  and  C_15 
REMARK    3  A    between atoms: C_16  and  O_17 
REMARK    4  A    between atoms: C_19  and  O_20 
REMARK    5  A    between atoms: C_22  and  C_23 
REMARK       I    between atoms: C_23  and  N_25 
REMARK    6  A    between atoms: N_25  and  C_27 
REMARK    7  A    between atoms: C_27  and  C_28 
ROOT
HETATM    1  C   UNL     1       4.023   7.948  22.111  0.00  0.00     0.046 A 
HETATM    2  C   UNL     1       4.205   9.309  22.455  0.00  0.00     0.082 A 
HETATM    3  C   UNL     1       3.747   9.829  23.659  0.00  0.00     0.075 A 
HETATM    4  C   UNL     1       3.118   8.991  24.570  0.00  0.00     0.084 A 
HETATM    5  C   UNL     1       3.330   7.118  23.025  0.00  0.00     0.038 A 
HETATM    6  C   UNL     1       2.918   7.621  24.290  0.00  0.00     0.066 A 
ENDROOT
BRANCH   1   7
HETATM    7  C   UNL     1       4.675   7.497  20.840  0.00  0.00     0.172 A 
HETATM    8  N   UNL     1       4.092   7.021  19.680  0.00  0.00    -0.244 N 
HETATM    9  C   UNL     1       5.152   6.726  18.827  0.00  0.00     0.349 A 
HETATM   10  O   UNL     1       5.154   6.190  17.734  0.00  0.00    -0.245 OA
HETATM   11  N   UNL     1       6.297   7.075  19.520  0.00  0.00    -0.226 N 
HETATM   12  H   UNL     1       7.237   6.835  19.229  0.00  0.00     0.194 HD
HETATM   13  N   UNL     1       5.989   7.532  20.757  0.00  0.00    -0.151 NA
BRANCH   8  14
HETATM   14  C   UNL     1       2.776   6.622  19.377  0.00  0.00     0.051 C 
HETATM   15  C   UNL     1       1.959   7.327  18.479  0.00  0.00    -0.035 C 
HETATM   16  C   UNL     1       2.190   8.781  18.153  0.00  0.00     0.050 C 
HETATM   17  C   UNL     1       0.751   6.752  18.052  0.00  0.00     0.009 C 
HETATM   18  C   UNL     1       0.224   5.648  18.717  0.00  0.00     0.001 C 
HETATM   19  C   UNL     1       0.925   5.081  19.773  0.00  0.00     0.002 C 
HETATM   20  C   UNL     1       2.214   5.532  20.066  0.00  0.00     0.031 C 
ENDBRANCH   8  14
ENDBRANCH   1   7
BRANCH   2  21
HETATM   21  O   UNL     1       4.879  10.222  21.680  0.00  0.00    -0.360 OA
HETATM   22  H   UNL     1       5.609  10.606  22.214  0.00  0.00     0.217 HD
ENDBRANCH   2  21
BRANCH   6  23
HETATM   23  C   UNL     1       2.696   6.711  25.465  0.00  0.00     0.256 C 
HETATM   24  O   UNL     1       3.730   6.337  26.033  0.00  0.00    -0.267 OA
HETATM   25  N   UNL     1       1.455   6.206  25.870  0.00  0.00    -0.348 N 
HETATM   26  C   UNL     1       1.478   5.181  26.916  0.00  0.00     0.153 C 
BRANCH  25  27
HETATM   27  C   UNL     1       0.127   6.630  25.420  0.00  0.00     0.164 C 
BRANCH  27  28
HETATM   28  C   UNL     1      -0.312   8.018  25.861  0.00  0.00    -0.040 A 
HETATM   29  C   UNL     1      -0.346   8.395  27.212  0.00  0.00     0.009 A 
HETATM   30  C   UNL     1      -0.652   9.709  27.583  0.00  0.00     0.001 A 
HETATM   31  C   UNL     1      -0.917  10.672  26.611  0.00  0.00     0.000 A 
HETATM   32  C   UNL     1      -0.897  10.316  25.265  0.00  0.00     0.001 A 
HETATM   33  C   UNL     1      -0.600   9.000  24.893  0.00  0.00     0.009 A 
ENDBRANCH  27  28
ENDBRANCH  25  27
ENDBRANCH   6  23
BRANCH   4  34
HETATM   34  O   UNL     1       2.727   9.547  25.759  0.00  0.00    -0.360 OA
HETATM   35  H   UNL     1       1.789   9.363  25.916  0.00  0.00     0.217 HD
ENDBRANCH   4  34
TORSDOF 7
ENDMDL
MODEL 3
REMARK VINA RESULT:    -7.135      2.537      4.302
REMARK INTER + INTRA:         -13.289
REMARK INTER:                 -10.190
REMARK INTRA:                  -3.099
REMARK UNBOUND:                -3.651
REMARK  7 active torsions:
REMARK  status: ('A' for Active; 'I' for Inactive)
REMARK    1  A    between atoms: C_7  and  N_8 
REMARK    2  A    between atoms: C_14  and  C_15 
REMARK    3  A    between atoms: C_16  and  O_17 
REMARK    4  A    between atoms: C_19  and  O_20 
REMARK    5  A    between atoms: C_22  and  C_23 
REMARK       I    between atoms: C_23  and  N_25 
REMARK    6  A    between atoms: N_25  and  C_27 
REMARK    7  A    between atoms: C_27  and  C_28 
ROOT
HETATM    1  C   UNL     1       3.781   6.340  20.368  0.00  0.00     0.046 A 
HETATM    2  C   UNL     1       4.540   6.300  19.173  0.00  0.00     0.082 A 
HETATM    3  C   UNL     1       4.411   5.263  18.258  0.00  0.00     0.075 A 
HETATM    4  C   UNL     1       3.493   4.249  18.497  0.00  0.00     0.084 A 
HETATM    5  C   UNL     1       2.890   5.271  20.627  0.00  0.00     0.038 A 
HETATM    6  C   UNL     1       2.698   4.241  19.664  0.00  0.00     0.066 A 
ENDROOT
BRANCH   1   7
HETATM    7  C   UNL     1       3.931   7.577  21.200  0.00  0.00     0.172 A 
HETATM    8  N   UNL     1       4.024   7.698  22.574  0.00  0.00    -0.244 N 
HETATM    9  C   UNL     1       4.123   9.065  22.820  0.00  0.00     0.349 A 
HETATM   10  O   UNL     1       4.126   9.676  23.873  0.00  0.00    -0.245 OA
HETATM   11  N   UNL     1       4.115   9.669  21.575  0.00  0.00    -0.226 N 
HETATM   12  H   UNL     1       4.017  10.665  21.424  0.00  0.00     0.194 HD
HETATM   13  N   UNL     1       3.982   8.745  20.594  0.00  0.00    -0.151 NA
BRANCH   8  14
HETATM   14  C   UNL     1       3.817   6.781  23.623  0.00  0.00     0.051 C 
HETATM   15  C   UNL     1       4.835   5.946  24.111  0.00  0.00    -0.035 C 
HETATM   16  C   UNL     1       6.045   5.587  23.285  0.00  0.00     0.050 C 
HETATM   17  C   UNL     1       4.623   5.225  25.297  0.00  0.00     0.009 C 
HETATM   18  C   UNL     1       3.340   5.102  25.825  0.00  0.00     0.001 C 
HETATM   19  C   UNL     1       2.276   5.742  25.205  0.00  0.00     0.002 C 
HETATM   20  C   UNL     1       2.521   6.616  24.144  0.00  0.00     0.031 C 
ENDBRANCH   8  14
ENDBRANCH   1   7
BRANCH   2  21
HETATM   21  O   UNL     1       5.421   7.278  18.780  0.00  0.00    -0.360 OA
HETATM   22  H   UNL     1       5.566   7.890  19.535  0.00  0.00     0.217 HD
ENDBRANCH   2  21
BRANCH   6  23
HETATM   23  C   UNL     1       1.434   3.430  19.622  0.00  0.00     0.256 C 
HETATM   24  O   UNL     1       1.577   2.233  19.902  0.00  0.00    -0.267 OA
HETATM   25  N   UNL     1       0.184   3.905  19.206  0.00  0.00    -0.348 N 
HETATM   26  C   UNL     1      -0.875   2.905  19.052  0.00  0.00     0.153 C 
BRANCH  25  27
HETATM   27  C   UNL     1      -0.210   5.296  18.972  0.00  0.00     0.164 C 
BRANCH  27  28
HETATM   28  C   UNL     1       0.459   5.987  17.793  0.00  0.00    -0.040 A 
HETATM   29  C   UNL     1       1.139   7.205  17.932  0.00  0.00     0.009 A 
HETATM   30  C   UNL     1       1.836   7.765  16.854  0.00  0.00     0.001 A 
HETATM   31  C   UNL     1       1.873   7.111  15.624  0.00  0.00     0.000 A 
HETATM   32  C   UNL     1       1.196   5.906  15.463  0.00  0.00     0.001 A 
HETATM   33  C   UNL     1       0.493   5.349  16.537  0.00  0.00     0.009 A 
ENDBRANCH  27  28
ENDBRANCH  25  27
ENDBRANCH   6  23
BRANCH   4  34
HETATM   34  O   UNL     1       3.376   3.277  17.540  0.00  0.00    -0.360 OA
HETATM   35  H   UNL     1       3.969   3.472  16.799  0.00  0.00     0.217 HD
ENDBRANCH   4  34
TORSDOF 7
ENDMDL
MODEL 4
REMARK VINA RESULT:    -6.890      1.508      5.511
REMARK INTER + INTRA:         -12.957
REMARK INTER:                 -10.273
REMARK INTRA:                  -2.685
REMARK UNBOUND:                -3.651
REMARK  7 active torsions:
REMARK  status: ('A' for Active; 'I' for Inactive)
REMARK    1  A    between atoms: C_7  and  N_8 
REMARK    2  A    between atoms: C_14  and  C_15 
REMARK    3  A    between atoms: C_16  and  O_17 
REMARK    4  A    between atoms: C_19  and  O_20 
REMARK    5  A    between atoms: C_22  and  C_23 
REMARK       I    between atoms: C_23  and  N_25 
REMARK    6  A    between atoms: N_25  and  C_27 
REMARK    7  A    between atoms: C_27  and  C_28 
ROOT
HETATM    1  C   UNL     1       2.169   5.673  17.368  0.00  0.00     0.046 A 
HETATM    2  C   UNL     1       1.335   6.788  17.108  0.00  0.00     0.082 A 
HETATM    3  C   UNL     1       1.592   8.038  17.657  0.00  0.00     0.075 A 
HETATM    4  C   UNL     1       2.711   8.217  18.459  0.00  0.00     0.084 A 
HETATM    5  C   UNL     1       3.274   5.856  18.233  0.00  0.00     0.038 A 
HETATM    6  C   UNL     1       3.587   7.146  18.744  0.00  0.00     0.066 A 
ENDROOT
BRANCH   1   7
HETATM    7  C   UNL     1       1.845   4.420  16.613  0.00  0.00     0.172 A 
HETATM    8  N   UNL     1       1.842   3.110  17.055  0.00  0.00    -0.244 N 
HETATM    9  C   UNL     1       1.494   2.345  15.946  0.00  0.00     0.349 A 
HETATM   10  O   UNL     1       1.456   1.136  15.805  0.00  0.00    -0.245 OA
HETATM   11  N   UNL     1       1.279   3.250  14.921  0.00  0.00    -0.226 N 
HETATM   12  H   UNL     1       1.165   2.994  13.948  0.00  0.00     0.194 HD
HETATM   13  N   UNL     1       1.513   4.516  15.342  0.00  0.00    -0.151 NA
BRANCH   8  14
HETATM   14  C   UNL     1       2.313   2.509  18.239  0.00  0.00     0.051 C 
HETATM   15  C   UNL     1       1.516   2.369  19.386  0.00  0.00    -0.035 C 
HETATM   16  C   UNL     1       0.318   3.246  19.644  0.00  0.00     0.050 C 
HETATM   17  C   UNL     1       1.970   1.564  20.443  0.00  0.00     0.009 C 
HETATM   18  C   UNL     1       3.298   1.149  20.493  0.00  0.00     0.001 C 
HETATM   19  C   UNL     1       4.163   1.488  19.461  0.00  0.00     0.002 C 
HETATM   20  C   UNL     1       3.662   2.118  18.320  0.00  0.00     0.031 C 
ENDBRANCH   8  14
ENDBRANCH   1   7
BRANCH   2  21
HETATM   21  O   UNL     1       0.247   6.765  16.270  0.00  0.00    -0.360 OA
HETATM   22  H   UNL     1       0.231   7.602  15.756  0.00  0.00     0.217 HD
ENDBRANCH   2  21
BRANCH   6  23
HETATM   23  C   UNL     1       4.979   7.503  19.181  0.00  0.00     0.256 C 
HETATM   24  O   UNL     1       5.736   7.853  18.266  0.00  0.00    -0.267 OA
HETATM   25  N   UNL     1       5.474   7.371  20.484  0.00  0.00    -0.348 N 
HETATM   26  C   UNL     1       6.912   7.587  20.660  0.00  0.00     0.153 C 
BRANCH  25  27
HETATM   27  C   UNL     1       4.713   7.109  21.707  0.00  0.00     0.164 C 
BRANCH  27  28
HETATM   28  C   UNL     1       5.063   5.826  22.447  0.00  0.00    -0.040 A 
HETATM   29  C   UNL     1       5.686   5.837  23.703  0.00  0.00     0.009 A 
HETATM   30  C   UNL     1       5.902   4.647  24.408  0.00  0.00     0.001 A 
HETATM   31  C   UNL     1       5.488   3.428  23.874  0.00  0.00     0.000 A 
HETATM   32  C   UNL     1       4.876   3.395  22.624  0.00  0.00     0.001 A 
HETATM   33  C   UNL     1       4.667   4.583  21.915  0.00  0.00     0.009 A 
ENDBRANCH  27  28
ENDBRANCH  25  27
ENDBRANCH   6  23
BRANCH   4  34
HETATM   34  O   UNL     1       2.939   9.480  18.936  0.00  0.00    -0.360 OA
HETATM   35  H   UNL     1       3.868   9.719  18.802  0.00  0.00     0.217 HD
ENDBRANCH   4  34
TORSDOF 7
ENDMDL
MODEL 5
REMARK VINA RESULT:    -6.882      4.226      7.248
REMARK INTER + INTRA:         -12.947
REMARK INTER:                 -10.670
REMARK INTRA:                  -2.277
REMARK UNBOUND:                -3.651
REMARK  7 active torsions:
REMARK  status: ('A' for Active; 'I' for Inactive)
REMARK    1  A    between atoms: C_7  and  N_8 
REMARK    2  A    between atoms: C_14  and  C_15 
REMARK    3  A    between atoms: C_16  and  O_17 
REMARK    4  A    between atoms: C_19  and  O_20 
REMARK    5  A    between atoms: C_22  and  C_23 
REMARK       I    between atoms: C_23  and  N_25 
REMARK    6  A    between atoms: N_25  and  C_27 
REMARK    7  A    between atoms: C_27  and  C_28 
ROOT
HETATM    1  C   UNL     1       3.421   6.627  24.636  0.00  0.00     0.046 A 
HETATM    2  C   UNL     1       2.974   5.307  24.385  0.00  0.00     0.082 A 
HETATM    3  C   UNL     1       3.230   4.663  23.181  0.00  0.00     0.075 A 
HETATM    4  C   UNL     1       3.971   5.312  22.202  0.00  0.00     0.084 A 
HETATM    5  C   UNL     1       4.127   7.298  23.607  0.00  0.00     0.038 A 
HETATM    6  C   UNL     1       4.456   6.624  22.399  0.00  0.00     0.066 A 
ENDROOT
BRANCH   1   7
HETATM    7  C   UNL     1       3.182   7.151  26.019  0.00  0.00     0.172 A 
HETATM    8  N   UNL     1       2.224   8.044  26.461  0.00  0.00    -0.244 N 
HETATM    9  C   UNL     1       2.464   8.201  27.823  0.00  0.00     0.349 A 
HETATM   10  O   UNL     1       1.953   8.958  28.629  0.00  0.00    -0.245 OA
HETATM   11  N   UNL     1       3.528   7.367  28.113  0.00  0.00    -0.226 N 
HETATM   12  H   UNL     1       4.039   7.375  28.987  0.00  0.00     0.194 HD
HETATM   13  N   UNL     1       3.967   6.742  26.994  0.00  0.00    -0.151 NA
BRANCH   8  14
HETATM   14  C   UNL     1       1.324   8.883  25.776  0.00  0.00     0.051 C 
HETATM   15  C   UNL     1      -0.005   8.513  25.512  0.00  0.00    -0.035 C 
HETATM   16  C   UNL     1      -0.445   7.072  25.474  0.00  0.00     0.050 C 
HETATM   17  C   UNL     1      -0.904   9.478  25.031  0.00  0.00     0.009 C 
HETATM   18  C   UNL     1      -0.436  10.697  24.545  0.00  0.00     0.001 C 
HETATM   19  C   UNL     1       0.923  10.978  24.589  0.00  0.00     0.002 C 
HETATM   20  C   UNL     1       1.788  10.101  25.245  0.00  0.00     0.031 C 
ENDBRANCH   8  14
ENDBRANCH   1   7
BRANCH   2  21
HETATM   21  O   UNL     1       2.303   4.529  25.296  0.00  0.00    -0.360 OA
HETATM   22  H   UNL     1       2.942   3.902  25.702  0.00  0.00     0.217 HD
ENDBRANCH   2  21
BRANCH   6  23
HETATM   23  C   UNL     1       5.617   7.056  21.548  0.00  0.00     0.256 C 
HETATM   24  O   UNL     1       6.680   6.470  21.787  0.00  0.00    -0.267 OA
HETATM   25  N   UNL     1       5.590   8.102  20.618  0.00  0.00    -0.348 N 
HETATM   26  C   UNL     1       6.877   8.490  20.037  0.00  0.00     0.153 C 
BRANCH  25  27
HETATM   27  C   UNL     1       4.416   8.812  20.105  0.00  0.00     0.164 C 
BRANCH  27  28
HETATM   28  C   UNL     1       3.712   8.162  18.922  0.00  0.00    -0.040 A 
HETATM   29  C   UNL     1       4.113   6.922  18.406  0.00  0.00     0.009 A 
HETATM   30  C   UNL     1       3.383   6.298  17.388  0.00  0.00     0.001 A 
HETATM   31  C   UNL     1       2.233   6.898  16.877  0.00  0.00     0.000 A 
HETATM   32  C   UNL     1       1.823   8.133  17.370  0.00  0.00     0.001 A 
HETATM   33  C   UNL     1       2.557   8.761  18.382  0.00  0.00     0.009 A 
ENDBRANCH  27  28
ENDBRANCH  25  27
ENDBRANCH   6  23
BRANCH   4  34
HETATM   34  O   UNL     1       4.231   4.613  21.054  0.00  0.00    -0.360 OA
HETATM   35  H   UNL     1       4.989   4.025  21.191  0.00  0.00     0.217 HD
ENDBRANCH   4  34
TORSDOF 7
ENDMDL
MODEL 6
REMARK VINA RESULT:    -6.841      2.134      5.543
REMARK INTER + INTRA:         -12.891
REMARK INTER:                  -9.240
REMARK INTRA:                  -3.651
REMARK UNBOUND:                -3.651
REMARK  7 active torsions:
REMARK  status: ('A' for Active; 'I' for Inactive)
REMARK    1  A    between atoms: C_7  and  N_8 
REMARK    2  A    between atoms: C_14  and  C_15 
REMARK    3  A    between atoms: C_16  and  O_17 
REMARK    4  A    between atoms: C_19  and  O_20 
REMARK    5  A    between atoms: C_22  and  C_23 
REMARK       I    between atoms: C_23  and  N_25 
REMARK    6  A    between atoms: N_25  and  C_27 
REMARK    7  A    between atoms: C_27  and  C_28 
ROOT
HETATM    1  C   UNL     1       3.271   7.067  18.405  0.00  0.00     0.046 A 
HETATM    2  C   UNL     1       4.556   6.530  18.148  0.00  0.00     0.082 A 
HETATM    3  C   UNL     1       5.599   6.659  19.056  0.00  0.00     0.075 A 
HETATM    4  C   UNL     1       5.378   7.304  20.266  0.00  0.00     0.084 A 
HETATM    5  C   UNL     1       3.075   7.772  19.617  0.00  0.00     0.038 A 
HETATM    6  C   UNL     1       4.115   7.849  20.585  0.00  0.00     0.066 A 
ENDROOT
BRANCH   1   7
HETATM    7  C   UNL     1       2.211   6.747  17.396  0.00  0.00     0.172 A 
HETATM    8  N   UNL     1       1.411   5.625  17.297  0.00  0.00    -0.244 N 
HETATM    9  C   UNL     1       0.622   5.831  16.168  0.00  0.00     0.349 A 
HETATM   10  O   UNL     1      -0.165   5.085  15.613  0.00  0.00    -0.245 OA
HETATM   11  N   UNL     1       0.979   7.077  15.686  0.00  0.00    -0.226 N 
HETATM   12  H   UNL     1       0.694   7.445  14.787  0.00  0.00     0.194 HD
HETATM   13  N   UNL     1       1.964   7.619  16.441  0.00  0.00    -0.151 NA
BRANCH   8  14
HETATM   14  C   UNL     1       1.449   4.374  17.943  0.00  0.00     0.051 C 
HETATM   15  C   UNL     1       0.648   4.072  19.056  0.00  0.00    -0.035 C 
HETATM   16  C   UNL     1       0.073   5.144  19.947  0.00  0.00     0.050 C 
HETATM   17  C   UNL     1       0.570   2.744  19.507  0.00  0.00     0.009 C 
HETATM   18  C   UNL     1       1.484   1.794  19.058  0.00  0.00     0.001 C 
HETATM   19  C   UNL     1       2.441   2.151  18.118  0.00  0.00     0.002 C 
HETATM   20  C   UNL     1       2.391   3.415  17.528  0.00  0.00     0.031 C 
ENDBRANCH   8  14
ENDBRANCH   1   7
BRANCH   2  21
HETATM   21  O   UNL     1       4.884   5.803  17.029  0.00  0.00    -0.360 OA
HETATM   22  H   UNL     1       4.264   6.046  16.307  0.00  0.00     0.217 HD
ENDBRANCH   2  21
BRANCH   6  23
HETATM   23  C   UNL     1       3.819   8.077  22.040  0.00  0.00     0.256 C 
HETATM   24  O   UNL     1       4.222   9.159  22.488  0.00  0.00    -0.267 OA
HETATM   25  N   UNL     1       3.235   7.140  22.901  0.00  0.00    -0.348 N 
HETATM   26  C   UNL     1       3.213   7.486  24.324  0.00  0.00     0.153 C 
BRANCH  25  27
HETATM   27  C   UNL     1       2.579   5.882  22.539  0.00  0.00     0.164 C 
BRANCH  27  28
HETATM   28  C   UNL     1       3.489   4.667  22.426  0.00  0.00    -0.040 A 
HETATM   29  C   UNL     1       4.039   4.041  23.554  0.00  0.00     0.009 A 
HETATM   30  C   UNL     1       4.785   2.863  23.429  0.00  0.00     0.001 A 
HETATM   31  C   UNL     1       4.985   2.286  22.176  0.00  0.00     0.000 A 
HETATM   32  C   UNL     1       4.456   2.898  21.043  0.00  0.00     0.001 A 
HETATM   33  C   UNL     1       3.716   4.079  21.167  0.00  0.00     0.009 A 
ENDBRANCH  27  28
ENDBRANCH  25  27
ENDBRANCH   6  23
BRANCH   4  34
HETATM   34  O   UNL     1       6.429   7.362  21.141  0.00  0.00    -0.360 OA
HETATM   35  H   UNL     1       6.173   7.862  21.931  0.00  0.00     0.217 HD
ENDBRANCH   4  34
TORSDOF 7
ENDMDL
MODEL 7
REMARK VINA RESULT:    -6.815      6.743      9.238
REMARK INTER + INTRA:         -12.856
REMARK INTER:                  -9.477
REMARK INTRA:                  -3.379
REMARK UNBOUND:                -3.651
REMARK  7 active torsions:
REMARK  status: ('A' for Active; 'I' for Inactive)
REMARK    1  A    between atoms: C_7  and  N_8 
REMARK    2  A    between atoms: C_14  and  C_15 
REMARK    3  A    between atoms: C_16  and  O_17 
REMARK    4  A    between atoms: C_19  and  O_20 
REMARK    5  A    between atoms: C_22  and  C_23 
REMARK       I    between atoms: C_23  and  N_25 
REMARK    6  A    between atoms: N_25  and  C_27 
REMARK    7  A    between atoms: C_27  and  C_28 
ROOT
HETATM    1  C   UNL     1       0.562   8.919  27.954  0.00  0.00     0.046 A 
HETATM    2  C   UNL     1      -0.579   9.643  27.530  0.00  0.00     0.082 A 
HETATM    3  C   UNL     1      -0.641  10.247  26.281  0.00  0.00     0.075 A 
HETATM    4  C   UNL     1       0.428  10.118  25.404  0.00  0.00     0.084 A 
HETATM    5  C   UNL     1       1.667   8.844  27.072  0.00  0.00     0.038 A 
HETATM    6  C   UNL     1       1.588   9.398  25.764  0.00  0.00     0.066 A 
ENDROOT
BRANCH   1   7
HETATM    7  C   UNL     1       0.444   8.218  29.273  0.00  0.00     0.172 A 
HETATM    8  N   UNL     1       0.457   6.863  29.545  0.00  0.00    -0.244 N 
HETATM    9  C   UNL     1       0.288   6.760  30.923  0.00  0.00     0.349 A 
HETATM   10  O   UNL     1       0.133   5.776  31.624  0.00  0.00    -0.245 OA
HETATM   11  N   UNL     1       0.218   8.060  31.388  0.00  0.00    -0.226 N 
HETATM   12  H   UNL     1      -0.059   8.317  32.327  0.00  0.00     0.194 HD
HETATM   13  N   UNL     1       0.300   8.942  30.362  0.00  0.00    -0.151 NA
BRANCH   8  14
HETATM   14  C   UNL     1       0.382   5.728  28.713  0.00  0.00     0.051 C 
HETATM   15  C   UNL     1       1.394   4.756  28.665  0.00  0.00    -0.035 C 
HETATM   16  C   UNL     1       2.813   5.052  29.081  0.00  0.00     0.050 C 
HETATM   17  C   UNL     1       1.155   3.548  27.992  0.00  0.00     0.009 C 
HETATM   18  C   UNL     1       0.061   3.422  27.139  0.00  0.00     0.001 C 
HETATM   19  C   UNL     1      -0.828   4.479  27.000  0.00  0.00     0.002 C 
HETATM   20  C   UNL     1      -0.697   5.603  27.818  0.00  0.00     0.031 C 
ENDBRANCH   8  14
ENDBRANCH   1   7
BRANCH   2  21
HETATM   21  O   UNL     1      -1.730   9.777  28.267  0.00  0.00    -0.360 OA
HETATM   22  H   UNL     1      -2.487   9.876  27.649  0.00  0.00     0.217 HD
ENDBRANCH   2  21
BRANCH   6  23
HETATM   23  C   UNL     1       2.454   8.896  24.644  0.00  0.00     0.256 C 
HETATM   24  O   UNL     1       3.039   9.780  24.005  0.00  0.00    -0.267 OA
HETATM   25  N   UNL     1       2.552   7.559  24.237  0.00  0.00    -0.348 N 
HETATM   26  C   UNL     1       3.297   7.307  23.002  0.00  0.00     0.153 C 
BRANCH  25  27
HETATM   27  C   UNL     1       2.054   6.373  24.937  0.00  0.00     0.164 C 
BRANCH  27  28
HETATM   28  C   UNL     1       3.078   5.277  25.197  0.00  0.00    -0.040 A 
HETATM   29  C   UNL     1       4.237   5.505  25.952  0.00  0.00     0.009 A 
HETATM   30  C   UNL     1       5.108   4.455  26.265  0.00  0.00     0.001 A 
HETATM   31  C   UNL     1       4.828   3.158  25.839  0.00  0.00     0.000 A 
HETATM   32  C   UNL     1       3.687   2.912  25.080  0.00  0.00     0.001 A 
HETATM   33  C   UNL     1       2.821   3.963  24.760  0.00  0.00     0.009 A 
ENDBRANCH  27  28
ENDBRANCH  25  27
ENDBRANCH   6  23
BRANCH   4  34
HETATM   34  O   UNL     1       0.293  10.695  24.170  0.00  0.00    -0.360 OA
HETATM   35  H   UNL     1       1.089  10.533  23.642  0.00  0.00     0.217 HD
ENDBRANCH   4  34
TORSDOF 7
ENDMDL
MODEL 8
REMARK VINA RESULT:    -6.786      2.083      5.256
REMARK INTER + INTRA:         -12.817
REMARK INTER:                  -8.735
REMARK INTRA:                  -4.083
REMARK UNBOUND:                -3.651
REMARK  7 active torsions:
REMARK  status: ('A' for Active; 'I' for Inactive)
REMARK    1  A    between atoms: C_7  and  N_8 
REMARK    2  A    between atoms: C_14  and  C_15 
REMARK    3  A    between atoms: C_16  and  O_17 
REMARK    4  A    between atoms: C_19  and  O_20 
REMARK    5  A    between atoms: C_22  and  C_23 
REMARK       I    between atoms: C_23  and  N_25 
REMARK    6  A    between atoms: N_25  and  C_27 
REMARK    7  A    between atoms: C_27  and  C_28 
ROOT
HETATM    1  C   UNL     1       3.726   7.221  19.805  0.00  0.00     0.046 A 
HETATM    2  C   UNL     1       5.107   7.167  19.495  0.00  0.00     0.082 A 
HETATM    3  C   UNL     1       6.060   6.844  20.453  0.00  0.00     0.075 A 
HETATM    4  C   UNL     1       5.655   6.535  21.744  0.00  0.00     0.084 A 
HETATM    5  C   UNL     1       3.332   6.959  21.139  0.00  0.00     0.038 A 
HETATM    6  C   UNL     1       4.291   6.559  22.110  0.00  0.00     0.066 A 
ENDROOT
BRANCH   1   7
HETATM    7  C   UNL     1       2.802   7.461  18.649  0.00  0.00     0.172 A 
HETATM    8  N   UNL     1       1.958   6.574  18.009  0.00  0.00    -0.244 N 
HETATM    9  C   UNL     1       1.351   7.307  16.993  0.00  0.00     0.349 A 
HETATM   10  O   UNL     1       0.608   6.946  16.098  0.00  0.00    -0.245 OA
HETATM   11  N   UNL     1       1.848   8.592  17.113  0.00  0.00    -0.226 N 
HETATM   12  H   UNL     1       1.718   9.322  16.424  0.00  0.00     0.194 HD
HETATM   13  N   UNL     1       2.748   8.666  18.124  0.00  0.00    -0.151 NA
BRANCH   8  14
HETATM   14  C   UNL     1       1.827   5.173  18.076  0.00  0.00     0.051 C 
HETATM   15  C   UNL     1       0.822   4.541  18.825  0.00  0.00    -0.035 C 
HETATM   16  C   UNL     1       0.132   5.223  19.979  0.00  0.00     0.050 C 
HETATM   17  C   UNL     1       0.611   3.162  18.667  0.00  0.00     0.009 C 
HETATM   18  C   UNL     1       1.556   2.376  18.013  0.00  0.00     0.001 C 
HETATM   19  C   UNL     1       2.685   2.971  17.465  0.00  0.00     0.002 C 
HETATM   20  C   UNL     1       2.794   4.362  17.452  0.00  0.00     0.031 C 
ENDBRANCH   8  14
ENDBRANCH   1   7
BRANCH   2  21
HETATM   21  O   UNL     1       5.630   7.373  18.242  0.00  0.00    -0.360 OA
HETATM   22  H   UNL     1       5.389   6.608  17.674  0.00  0.00     0.217 HD
ENDBRANCH   2  21
BRANCH   6  23
HETATM   23  C   UNL     1       3.897   5.765  23.324  0.00  0.00     0.256 C 
HETATM   24  O   UNL     1       4.283   6.239  24.400  0.00  0.00    -0.267 OA
HETATM   25  N   UNL     1       3.239   4.529  23.301  0.00  0.00    -0.348 N 
HETATM   26  C   UNL     1       3.123   3.829  24.582  0.00  0.00     0.153 C 
BRANCH  25  27
HETATM   27  C   UNL     1       2.592   3.883  22.158  0.00  0.00     0.164 C 
BRANCH  27  28
HETATM   28  C   UNL     1       3.454   2.906  21.371  0.00  0.00    -0.040 A 
HETATM   29  C   UNL     1       3.191   1.528  21.355  0.00  0.00     0.009 A 
HETATM   30  C   UNL     1       3.934   0.666  20.540  0.00  0.00     0.001 A 
HETATM   31  C   UNL     1       4.943   1.167  19.720  0.00  0.00     0.000 A 
HETATM   32  C   UNL     1       5.225   2.531  19.729  0.00  0.00     0.001 A 
HETATM   33  C   UNL     1       4.489   3.392  20.549  0.00  0.00     0.009 A 
ENDBRANCH  27  28
ENDBRANCH  25  27
ENDBRANCH   6  23
BRANCH   4  34
HETATM   34  O   UNL     1       6.633   6.180  22.635  0.00  0.00    -0.360 OA
HETATM   35  H   UNL     1       7.298   5.631  22.192  0.00  0.00     0.217 HD
ENDBRANCH   4  34
TORSDOF 7
ENDMDL
MODEL 9
REMARK VINA RESULT:    -6.759      2.110      5.791
REMARK INTER + INTRA:         -12.780
REMARK INTER:                  -9.294
REMARK INTRA:                  -3.486
REMARK UNBOUND:                -3.651
REMARK  7 active torsions:
REMARK  status: ('A' for Active; 'I' for Inactive)
REMARK    1  A    between atoms: C_7  and  N_8 
REMARK    2  A    between atoms: C_14  and  C_15 
REMARK    3  A    between atoms: C_16  and  O_17 
REMARK    4  A    between atoms: C_19  and  O_20 
REMARK    5  A    between atoms: C_22  and  C_23 
REMARK       I    between atoms: C_23  and  N_25 
REMARK    6  A    between atoms: N_25  and  C_27 
REMARK    7  A    between atoms: C_27  and  C_28 
ROOT
HETATM    1  C   UNL     1       0.075   5.059  17.983  0.00  0.00     0.046 A 
HETATM    2  C   UNL     1      -0.062   5.220  16.583  0.00  0.00     0.082 A 
HETATM    3  C   UNL     1       0.482   6.310  15.915  0.00  0.00     0.075 A 
HETATM    4  C   UNL     1       1.208   7.257  16.625  0.00  0.00     0.084 A 
HETATM    5  C   UNL     1       0.769   6.061  18.704  0.00  0.00     0.038 A 
HETATM    6  C   UNL     1       1.390   7.144  18.021  0.00  0.00     0.066 A 
ENDROOT
BRANCH   1   7
HETATM    7  C   UNL     1      -0.453   3.778  18.553  0.00  0.00     0.172 A 
HETATM    8  N   UNL     1       0.236   2.737  19.146  0.00  0.00    -0.244 N 
HETATM    9  C   UNL     1      -0.732   1.790  19.471  0.00  0.00     0.349 A 
HETATM   10  O   UNL     1      -0.610   0.663  19.917  0.00  0.00    -0.245 OA
HETATM   11  N   UNL     1      -1.938   2.341  19.080  0.00  0.00    -0.226 N 
HETATM   12  H   UNL     1      -2.813   1.832  19.040  0.00  0.00     0.194 HD
HETATM   13  N   UNL     1      -1.749   3.553  18.506  0.00  0.00    -0.151 NA
BRANCH   8  14
HETATM   14  C   UNL     1       1.610   2.437  19.233  0.00  0.00     0.051 C 
HETATM   15  C   UNL     1       2.436   2.337  18.103  0.00  0.00    -0.035 C 
HETATM   16  C   UNL     1       1.887   2.047  16.729  0.00  0.00     0.050 C 
HETATM   17  C   UNL     1       3.828   2.263  18.274  0.00  0.00     0.009 C 
HETATM   18  C   UNL     1       4.369   1.996  19.529  0.00  0.00     0.001 C 
HETATM   19  C   UNL     1       3.529   1.859  20.626  0.00  0.00     0.002 C 
HETATM   20  C   UNL     1       2.166   2.129  20.488  0.00  0.00     0.031 C 
ENDBRANCH   8  14
ENDBRANCH   1   7
BRANCH   2  21
HETATM   21  O   UNL     1      -0.684   4.318  15.755  0.00  0.00    -0.360 OA
HETATM   22  H   UNL     1      -1.035   3.582  16.304  0.00  0.00     0.217 HD
ENDBRANCH   2  21
BRANCH   6  23
HETATM   23  C   UNL     1       2.548   7.891  18.619  0.00  0.00     0.256 C 
HETATM   24  O   UNL     1       2.447   9.123  18.578  0.00  0.00    -0.267 OA
HETATM   25  N   UNL     1       3.723   7.302  19.105  0.00  0.00    -0.348 N 
HETATM   26  C   UNL     1       4.808   8.216  19.465  0.00  0.00     0.153 C 
BRANCH  25  27
HETATM   27  C   UNL     1       3.971   5.882  19.361  0.00  0.00     0.164 C 
BRANCH  27  28
HETATM   28  C   UNL     1       4.024   5.470  20.824  0.00  0.00    -0.040 A 
HETATM   29  C   UNL     1       2.878   5.442  21.632  0.00  0.00     0.009 A 
HETATM   30  C   UNL     1       2.936   4.958  22.944  0.00  0.00     0.001 A 
HETATM   31  C   UNL     1       4.138   4.483  23.467  0.00  0.00     0.000 A 
HETATM   32  C   UNL     1       5.289   4.511  22.684  0.00  0.00     0.001 A 
HETATM   33  C   UNL     1       5.233   5.002  21.375  0.00  0.00     0.009 A 
ENDBRANCH  27  28
ENDBRANCH  25  27
ENDBRANCH   6  23
BRANCH   4  34
HETATM   34  O   UNL     1       1.759   8.285  15.908  0.00  0.00    -0.360 OA
HETATM   35  H   UNL     1       2.593   8.560  16.316  0.00  0.00     0.217 HD
ENDBRANCH   4  34
TORSDOF 7
ENDMDL
