MODEL 1
REMARK VINA RESULT:    -7.932      0.000      0.000
REMARK INTER + INTRA:         -11.910
REMARK INTER:                 -10.232
REMARK INTRA:                  -1.677
REMARK UNBOUND:                -1.660
REMARK  6 active torsions:
REMARK  status: ('A' for Active; 'I' for Inactive)
REMARK    1  A    between atoms: N_4  and  S_6 
REMARK    2  A    between atoms: S_6  and  C_9 
REMARK    3  A    between atoms: C_11  and  C_17 
REMARK    4  A    between atoms: C_12  and  O_13 
REMARK    5  A    between atoms: C_15  and  O_16 
REMARK    6  A    between atoms: N_23  and  C_24 
ROOT
HETATM    1  C   UNL     1       4.510   7.003  22.172  0.00  0.00     0.121 A 
HETATM    2  C   UNL     1       3.585   7.448  21.214  0.00  0.00     0.046 A 
HETATM    3  C   UNL     1       3.924   7.529  19.861  0.00  0.00     0.047 A 
HETATM    4  C   UNL     1       5.221   7.152  19.484  0.00  0.00     0.082 A 
HETATM    5  C   UNL     1       6.162   6.749  20.436  0.00  0.00     0.075 A 
HETATM    6  C   UNL     1       5.805   6.658  21.783  0.00  0.00     0.091 A 
ENDROOT
BRANCH   3   7
HETATM    7  C   UNL     1       2.881   7.789  18.835  0.00  0.00     0.172 A 
HETATM    8  N   UNL     1       2.642   9.011  18.426  0.00  0.00    -0.151 NA
HETATM    9  N   UNL     1       1.785   8.856  17.379  0.00  0.00    -0.226 N 
HETATM   10  H   UNL     1       1.430   9.626  16.828  0.00  0.00     0.194 HD
HETATM   11  C   UNL     1       1.503   7.513  17.157  0.00  0.00     0.349 A 
HETATM   12  O   UNL     1       0.768   7.083  16.281  0.00  0.00    -0.245 OA
HETATM   13  N   UNL     1       2.202   6.829  18.130  0.00  0.00    -0.241 N 
BRANCH  13  14
HETATM   14  C   UNL     1       2.037   5.453  18.370  0.00  0.00     0.084 A 
HETATM   15  C   UNL     1       0.932   4.958  19.068  0.00  0.00     0.143 A 
HETATM   16  F   UNL     1      -0.037   5.791  19.477  0.00  0.00    -0.204 F 
HETATM   17  C   UNL     1       0.801   3.597  19.335  0.00  0.00     0.044 A 
HETATM   18  C   UNL     1       1.795   2.713  18.917  0.00  0.00     0.003 A 
HETATM   19  C   UNL     1       2.904   3.193  18.219  0.00  0.00     0.002 A 
HETATM   20  C   UNL     1       3.015   4.554  17.926  0.00  0.00     0.033 A 
ENDBRANCH  13  14
ENDBRANCH   3   7
BRANCH   4  21
HETATM   21  O   UNL     1       5.635   7.090  18.179  0.00  0.00    -0.360 OA
HETATM   22  H   UNL     1       6.496   6.617  18.150  0.00  0.00     0.217 HD
ENDBRANCH   4  21
BRANCH   1  23
HETATM   23  S   UNL     1       3.896   6.786  23.836  0.00  0.00     0.349 S 
HETATM   24  O   UNL     1       5.024   6.972  24.729  0.00  0.00    -0.193 OA
HETATM   25  O   UNL     1       3.101   5.581  23.915  0.00  0.00    -0.193 OA
BRANCH  23  26
HETATM   26  N   UNL     1       2.855   8.170  24.006  0.00  0.00     0.028 N 
HETATM   27  C   UNL     1       0.555   8.864  24.865  0.00  0.00     0.178 A 
HETATM   28  C   UNL     1       0.615  10.345  25.209  0.00  0.00     0.036 C 
HETATM   29  C   UNL     1       1.832   8.050  25.091  0.00  0.00     0.366 A 
HETATM   30  C   UNL     1       3.608   9.444  24.010  0.00  0.00     0.293 C 
ENDBRANCH  23  26
ENDBRANCH   1  23
BRANCH   6  31
HETATM   31  O   UNL     1       6.697   6.143  22.668  0.00  0.00    -0.359 OA
HETATM   32  H   UNL     1       7.311   5.539  22.216  0.00  0.00     0.217 HD
ENDBRANCH   6  31
TORSDOF 6
ENDMDL
MODEL 2
REMARK VINA RESULT:    -7.736      1.670      2.440
REMARK INTER + INTRA:         -11.657
REMARK INTER:                  -9.681
REMARK INTRA:                  -1.976
REMARK UNBOUND:                -1.660
REMARK  6 active torsions:
REMARK  status: ('A' for Active; 'I' for Inactive)
REMARK    1  A    between atoms: N_4  and  S_6 
REMARK    2  A    between atoms: S_6  and  C_9 
REMARK    3  A    between atoms: C_11  and  C_17 
REMARK    4  A    between atoms: C_12  and  O_13 
REMARK    5  A    between atoms: C_15  and  O_16 
REMARK    6  A    between atoms: N_23  and  C_24 
ROOT
HETATM    1  C   UNL     1       4.475   7.204  21.820  0.00  0.00     0.121 A 
HETATM    2  C   UNL     1       3.482   7.505  20.875  0.00  0.00     0.046 A 
HETATM    3  C   UNL     1       3.714   7.359  19.505  0.00  0.00     0.047 A 
HETATM    4  C   UNL     1       4.976   6.900  19.097  0.00  0.00     0.082 A 
HETATM    5  C   UNL     1       5.986   6.640  20.029  0.00  0.00     0.075 A 
HETATM    6  C   UNL     1       5.734   6.776  21.396  0.00  0.00     0.091 A 
ENDROOT
BRANCH   3   7
HETATM    7  C   UNL     1       2.597   7.468  18.532  0.00  0.00     0.172 A 
HETATM    8  N   UNL     1       2.293   8.625  17.998  0.00  0.00    -0.151 NA
HETATM    9  N   UNL     1       1.371   8.324  17.040  0.00  0.00    -0.226 N 
HETATM   10  H   UNL     1       0.956   9.014  16.428  0.00  0.00     0.194 HD
HETATM   11  C   UNL     1       1.118   6.958  17.001  0.00  0.00     0.349 A 
HETATM   12  O   UNL     1       0.338   6.408  16.238  0.00  0.00    -0.245 OA
HETATM   13  N   UNL     1       1.902   6.414  17.997  0.00  0.00    -0.241 N 
BRANCH  13  14
HETATM   14  C   UNL     1       1.797   5.074  18.411  0.00  0.00     0.084 A 
HETATM   15  C   UNL     1       0.781   4.650  19.274  0.00  0.00     0.143 A 
HETATM   16  F   UNL     1      -0.162   5.513  19.681  0.00  0.00    -0.204 F 
HETATM   17  C   UNL     1       0.712   3.329  19.708  0.00  0.00     0.044 A 
HETATM   18  C   UNL     1       1.680   2.415  19.295  0.00  0.00     0.003 A 
HETATM   19  C   UNL     1       2.700   2.823  18.435  0.00  0.00     0.002 A 
HETATM   20  C   UNL     1       2.747   4.141  17.976  0.00  0.00     0.033 A 
ENDBRANCH  13  14
ENDBRANCH   3   7
BRANCH   4  21
HETATM   21  O   UNL     1       5.287   6.618  17.793  0.00  0.00    -0.360 OA
HETATM   22  H   UNL     1       5.557   5.675  17.735  0.00  0.00     0.217 HD
ENDBRANCH   4  21
BRANCH   1  23
HETATM   23  S   UNL     1       3.991   7.273  23.538  0.00  0.00     0.349 S 
HETATM   24  O   UNL     1       2.991   8.318  23.652  0.00  0.00    -0.193 OA
HETATM   25  O   UNL     1       5.166   7.301  24.380  0.00  0.00    -0.193 OA
BRANCH  23  26
HETATM   26  N   UNL     1       3.183   5.745  23.734  0.00  0.00     0.028 N 
HETATM   27  C   UNL     1       3.016   3.412  22.717  0.00  0.00     0.178 A 
HETATM   28  C   UNL     1       2.547   2.461  23.809  0.00  0.00     0.036 C 
HETATM   29  C   UNL     1       3.910   4.576  23.151  0.00  0.00     0.366 A 
HETATM   30  C   UNL     1       2.696   5.539  25.116  0.00  0.00     0.293 C 
ENDBRANCH  23  26
ENDBRANCH   1  23
BRANCH   6  31
HETATM   31  O   UNL     1       6.688   6.395  22.283  0.00  0.00    -0.359 OA
HETATM   32  H   UNL     1       7.340   5.816  21.851  0.00  0.00     0.217 HD
ENDBRANCH   6  31
TORSDOF 6
ENDMDL
MODEL 3
REMARK VINA RESULT:    -7.660      3.315      6.569
REMARK INTER + INTRA:         -11.559
REMARK INTER:                  -9.531
REMARK INTRA:                  -2.028
REMARK UNBOUND:                -1.660
REMARK  6 active torsions:
REMARK  status: ('A' for Active; 'I' for Inactive)
REMARK    1  A    between atoms: N_4  and  S_6 
REMARK    2  A    between atoms: S_6  and  C_9 
REMARK    3  A    between atoms: C_11  and  C_17 
REMARK    4  A    between atoms: C_12  and  O_13 
REMARK    5  A    between atoms: C_15  and  O_16 
REMARK    6  A    between atoms: N_23  and  C_24 
ROOT
HETATM    1  C   UNL     1       1.589   5.515  17.791  0.00  0.00     0.121 A 
HETATM    2  C   UNL     1       2.927   5.606  18.202  0.00  0.00     0.046 A 
HETATM    3  C   UNL     1       3.525   6.841  18.461  0.00  0.00     0.047 A 
HETATM    4  C   UNL     1       2.746   7.996  18.298  0.00  0.00     0.082 A 
HETATM    5  C   UNL     1       1.425   7.918  17.846  0.00  0.00     0.075 A 
HETATM    6  C   UNL     1       0.836   6.675  17.606  0.00  0.00     0.091 A 
ENDROOT
BRANCH   3   7
HETATM    7  C   UNL     1       4.864   6.915  19.102  0.00  0.00     0.172 A 
HETATM    8  N   UNL     1       5.817   7.637  18.567  0.00  0.00    -0.151 NA
HETATM    9  N   UNL     1       6.814   7.623  19.496  0.00  0.00    -0.226 N 
HETATM   10  H   UNL     1       7.688   8.120  19.385  0.00  0.00     0.194 HD
HETATM   11  C   UNL     1       6.450   6.875  20.610  0.00  0.00     0.349 A 
HETATM   12  O   UNL     1       7.149   6.695  21.596  0.00  0.00    -0.245 OA
HETATM   13  N   UNL     1       5.188   6.396  20.330  0.00  0.00    -0.241 N 
BRANCH  13  14
HETATM   14  C   UNL     1       4.537   5.437  21.126  0.00  0.00     0.084 A 
HETATM   15  C   UNL     1       3.587   5.803  22.085  0.00  0.00     0.143 A 
HETATM   16  F   UNL     1       3.229   7.087  22.224  0.00  0.00    -0.204 F 
HETATM   17  C   UNL     1       2.979   4.846  22.895  0.00  0.00     0.044 A 
HETATM   18  C   UNL     1       3.334   3.505  22.765  0.00  0.00     0.003 A 
HETATM   19  C   UNL     1       4.281   3.125  21.813  0.00  0.00     0.002 A 
HETATM   20  C   UNL     1       4.865   4.082  20.980  0.00  0.00     0.033 A 
ENDBRANCH  13  14
ENDBRANCH   3   7
BRANCH   4  21
HETATM   21  O   UNL     1       3.188   9.252  18.620  0.00  0.00    -0.360 OA
HETATM   22  H   UNL     1       2.992   9.853  17.868  0.00  0.00     0.217 HD
ENDBRANCH   4  21
BRANCH   1  23
HETATM   23  S   UNL     1       0.902   3.871  17.658  0.00  0.00     0.349 S 
HETATM   24  O   UNL     1       0.006   3.878  16.517  0.00  0.00    -0.193 OA
HETATM   25  O   UNL     1       0.425   3.430  18.950  0.00  0.00    -0.193 OA
BRANCH  23  26
HETATM   26  N   UNL     1       2.306   2.941  17.220  0.00  0.00     0.028 N 
HETATM   27  C   UNL     1       4.393   1.860  18.212  0.00  0.00     0.178 A 
HETATM   28  C   UNL     1       4.810   0.722  17.291  0.00  0.00     0.036 C 
HETATM   29  C   UNL     1       2.893   2.134  18.335  0.00  0.00     0.366 A 
HETATM   30  C   UNL     1       2.116   2.195  15.957  0.00  0.00     0.293 C 
ENDBRANCH  23  26
ENDBRANCH   1  23
BRANCH   6  31
HETATM   31  O   UNL     1      -0.484   6.621  17.292  0.00  0.00    -0.359 OA
HETATM   32  H   UNL     1      -1.025   6.848  18.068  0.00  0.00     0.217 HD
ENDBRANCH   6  31
TORSDOF 6
ENDMDL
MODEL 4
REMARK VINA RESULT:    -7.576      6.480      8.449
REMARK INTER + INTRA:         -11.451
REMARK INTER:                  -9.946
REMARK INTRA:                  -1.504
REMARK UNBOUND:                -1.660
REMARK  6 active torsions:
REMARK  status: ('A' for Active; 'I' for Inactive)
REMARK    1  A    between atoms: N_4  and  S_6 
REMARK    2  A    between atoms: S_6  and  C_9 
REMARK    3  A    between atoms: C_11  and  C_17 
REMARK    4  A    between atoms: C_12  and  O_13 
REMARK    5  A    between atoms: C_15  and  O_16 
REMARK    6  A    between atoms: N_23  and  C_24 
ROOT
HETATM    1  C   UNL     1      -0.358   8.233  28.387  0.00  0.00     0.121 A 
HETATM    2  C   UNL     1      -0.879   8.717  27.176  0.00  0.00     0.046 A 
HETATM    3  C   UNL     1      -1.250  10.056  27.029  0.00  0.00     0.047 A 
HETATM    4  C   UNL     1      -1.087  10.909  28.131  0.00  0.00     0.082 A 
HETATM    5  C   UNL     1      -0.611  10.426  29.354  0.00  0.00     0.075 A 
HETATM    6  C   UNL     1      -0.230   9.088  29.481  0.00  0.00     0.091 A 
ENDROOT
BRANCH   3   7
HETATM    7  C   UNL     1      -1.590  10.604  25.691  0.00  0.00     0.172 A 
HETATM    8  N   UNL     1      -2.836  10.861  25.376  0.00  0.00    -0.151 NA
HETATM    9  N   UNL     1      -2.756  11.510  24.180  0.00  0.00    -0.226 N 
HETATM   10  H   UNL     1      -3.561  11.866  23.682  0.00  0.00     0.194 HD
HETATM   11  C   UNL     1      -1.434  11.642  23.770  0.00  0.00     0.349 A 
HETATM   12  O   UNL     1      -1.068  12.184  22.738  0.00  0.00    -0.245 OA
HETATM   13  N   UNL     1      -0.685  11.023  24.749  0.00  0.00    -0.241 N 
BRANCH  13  14
HETATM   14  C   UNL     1       0.692  10.773  24.619  0.00  0.00     0.084 A 
HETATM   15  C   UNL     1       1.612  11.810  24.435  0.00  0.00     0.143 A 
HETATM   16  F   UNL     1       1.200  13.086  24.439  0.00  0.00    -0.204 F 
HETATM   17  C   UNL     1       2.969  11.546  24.267  0.00  0.00     0.044 A 
HETATM   18  C   UNL     1       3.419  10.226  24.261  0.00  0.00     0.003 A 
HETATM   19  C   UNL     1       2.514   9.181  24.443  0.00  0.00     0.002 A 
HETATM   20  C   UNL     1       1.158   9.452  24.644  0.00  0.00     0.033 A 
ENDBRANCH  13  14
ENDBRANCH   3   7
BRANCH   4  21
HETATM   21  O   UNL     1      -1.317  12.258  28.077  0.00  0.00    -0.360 OA
HETATM   22  H   UNL     1      -0.647  12.663  27.484  0.00  0.00     0.217 HD
ENDBRANCH   4  21
BRANCH   1  23
HETATM   23  S   UNL     1       0.233   6.547  28.386  0.00  0.00     0.349 S 
HETATM   24  O   UNL     1      -0.804   5.737  27.774  0.00  0.00    -0.193 OA
HETATM   25  O   UNL     1       0.742   6.202  29.694  0.00  0.00    -0.193 OA
BRANCH  23  26
HETATM   26  N   UNL     1       1.558   6.643  27.262  0.00  0.00     0.028 N 
HETATM   27  C   UNL     1       4.077   7.033  27.151  0.00  0.00     0.178 A 
HETATM   28  C   UNL     1       4.595   6.368  25.883  0.00  0.00     0.036 C 
HETATM   29  C   UNL     1       2.900   6.354  27.856  0.00  0.00     0.366 A 
HETATM   30  C   UNL     1       1.278   5.925  25.999  0.00  0.00     0.293 C 
ENDBRANCH  23  26
ENDBRANCH   1  23
BRANCH   6  31
HETATM   31  O   UNL     1       0.348   8.675  30.639  0.00  0.00    -0.359 OA
HETATM   32  H   UNL     1       1.173   8.194  30.452  0.00  0.00     0.217 HD
ENDBRANCH   6  31
TORSDOF 6
ENDMDL
MODEL 5
REMARK VINA RESULT:    -7.416      3.073      6.762
REMARK INTER + INTRA:         -11.243
REMARK INTER:                  -9.841
REMARK INTRA:                  -1.402
REMARK UNBOUND:                -1.660
REMARK  6 active torsions:
REMARK  status: ('A' for Active; 'I' for Inactive)
REMARK    1  A    between atoms: N_4  and  S_6 
REMARK    2  A    between atoms: S_6  and  C_9 
REMARK    3  A    between atoms: C_11  and  C_17 
REMARK    4  A    between atoms: C_12  and  O_13 
REMARK    5  A    between atoms: C_15  and  O_16 
REMARK    6  A    between atoms: N_23  and  C_24 
ROOT
HETATM    1  C   UNL     1       4.721   7.160  22.633  0.00  0.00     0.121 A 
HETATM    2  C   UNL     1       3.729   8.109  22.927  0.00  0.00     0.046 A 
HETATM    3  C   UNL     1       3.345   8.374  24.244  0.00  0.00     0.047 A 
HETATM    4  C   UNL     1       3.982   7.660  25.271  0.00  0.00     0.082 A 
HETATM    5  C   UNL     1       4.939   6.682  24.985  0.00  0.00     0.075 A 
HETATM    6  C   UNL     1       5.324   6.439  23.665  0.00  0.00     0.091 A 
ENDROOT
BRANCH   3   7
HETATM    7  C   UNL     1       2.461   9.525  24.557  0.00  0.00     0.172 A 
HETATM    8  N   UNL     1       2.782  10.734  24.166  0.00  0.00    -0.151 NA
HETATM    9  N   UNL     1       1.682  11.486  24.453  0.00  0.00    -0.226 N 
HETATM   10  H   UNL     1       1.609  12.472  24.243  0.00  0.00     0.194 HD
HETATM   11  C   UNL     1       0.683  10.711  25.030  0.00  0.00     0.349 A 
HETATM   12  O   UNL     1      -0.411  11.123  25.386  0.00  0.00    -0.245 OA
HETATM   13  N   UNL     1       1.212   9.441  25.119  0.00  0.00    -0.241 N 
BRANCH  13  14
HETATM   14  C   UNL     1       0.586   8.395  25.819  0.00  0.00     0.084 A 
HETATM   15  C   UNL     1       0.591   8.342  27.217  0.00  0.00     0.143 A 
HETATM   16  F   UNL     1       1.148   9.333  27.927  0.00  0.00    -0.204 F 
HETATM   17  C   UNL     1       0.001   7.279  27.898  0.00  0.00     0.044 A 
HETATM   18  C   UNL     1      -0.585   6.239  27.178  0.00  0.00     0.003 A 
HETATM   19  C   UNL     1      -0.597   6.277  25.783  0.00  0.00     0.002 A 
HETATM   20  C   UNL     1      -0.034   7.361  25.105  0.00  0.00     0.033 A 
ENDBRANCH  13  14
ENDBRANCH   3   7
BRANCH   4  21
HETATM   21  O   UNL     1       3.766   7.906  26.601  0.00  0.00    -0.360 OA
HETATM   22  H   UNL     1       3.632   7.046  27.057  0.00  0.00     0.217 HD
ENDBRANCH   4  21
BRANCH   1  23
HETATM   23  S   UNL     1       5.234   7.042  20.926  0.00  0.00     0.349 S 
HETATM   24  O   UNL     1       5.712   5.688  20.722  0.00  0.00    -0.193 OA
HETATM   25  O   UNL     1       6.077   8.166  20.586  0.00  0.00    -0.193 OA
BRANCH  23  26
HETATM   26  N   UNL     1       3.713   7.196  20.094  0.00  0.00     0.028 N 
HETATM   27  C   UNL     1       2.524   8.586  18.316  0.00  0.00     0.178 A 
HETATM   28  C   UNL     1       1.420   7.728  17.716  0.00  0.00     0.036 C 
HETATM   29  C   UNL     1       3.798   7.863  18.758  0.00  0.00     0.366 A 
HETATM   30  C   UNL     1       2.937   5.936  20.102  0.00  0.00     0.293 C 
ENDBRANCH  23  26
ENDBRANCH   1  23
BRANCH   6  31
HETATM   31  O   UNL     1       6.345   5.577  23.424  0.00  0.00    -0.359 OA
HETATM   32  H   UNL     1       6.274   4.799  24.003  0.00  0.00     0.217 HD
ENDBRANCH   6  31
TORSDOF 6
ENDMDL
MODEL 6
REMARK VINA RESULT:    -7.254      6.839      9.428
REMARK INTER + INTRA:         -11.033
REMARK INTER:                  -9.252
REMARK INTRA:                  -1.782
REMARK UNBOUND:                -1.660
REMARK  6 active torsions:
REMARK  status: ('A' for Active; 'I' for Inactive)
REMARK    1  A    between atoms: N_4  and  S_6 
REMARK    2  A    between atoms: S_6  and  C_9 
REMARK    3  A    between atoms: C_11  and  C_17 
REMARK    4  A    between atoms: C_12  and  O_13 
REMARK    5  A    between atoms: C_15  and  O_16 
REMARK    6  A    between atoms: N_23  and  C_24 
ROOT
HETATM    1  C   UNL     1       0.139   9.536  26.850  0.00  0.00     0.121 A 
HETATM    2  C   UNL     1       1.330   9.066  27.424  0.00  0.00     0.046 A 
HETATM    3  C   UNL     1       1.442   8.865  28.802  0.00  0.00     0.047 A 
HETATM    4  C   UNL     1       0.325   9.151  29.601  0.00  0.00     0.082 A 
HETATM    5  C   UNL     1      -0.851   9.662  29.044  0.00  0.00     0.075 A 
HETATM    6  C   UNL     1      -0.953   9.842  27.662  0.00  0.00     0.091 A 
ENDROOT
BRANCH   3   7
HETATM    7  C   UNL     1       2.622   8.165  29.372  0.00  0.00     0.172 A 
HETATM    8  N   UNL     1       3.468   8.806  30.140  0.00  0.00    -0.151 NA
HETATM    9  N   UNL     1       4.294   7.834  30.619  0.00  0.00    -0.226 N 
HETATM   10  H   UNL     1       5.048   8.012  31.270  0.00  0.00     0.194 HD
HETATM   11  C   UNL     1       3.936   6.585  30.126  0.00  0.00     0.349 A 
HETATM   12  O   UNL     1       4.500   5.535  30.392  0.00  0.00    -0.245 OA
HETATM   13  N   UNL     1       2.862   6.817  29.292  0.00  0.00    -0.241 N 
BRANCH  13  14
HETATM   14  C   UNL     1       2.319   5.832  28.447  0.00  0.00     0.084 A 
HETATM   15  C   UNL     1       1.097   5.215  28.731  0.00  0.00     0.143 A 
HETATM   16  F   UNL     1       0.379   5.598  29.797  0.00  0.00    -0.204 F 
HETATM   17  C   UNL     1       0.590   4.212  27.908  0.00  0.00     0.044 A 
HETATM   18  C   UNL     1       1.319   3.801  26.793  0.00  0.00     0.003 A 
HETATM   19  C   UNL     1       2.540   4.408  26.497  0.00  0.00     0.002 A 
HETATM   20  C   UNL     1       3.029   5.435  27.307  0.00  0.00     0.033 A 
ENDBRANCH  13  14
ENDBRANCH   3   7
BRANCH   4  21
HETATM   21  O   UNL     1       0.279   8.897  30.947  0.00  0.00    -0.360 OA
HETATM   22  H   UNL     1       1.199   8.886  31.291  0.00  0.00     0.217 HD
ENDBRANCH   4  21
BRANCH   1  23
HETATM   23  S   UNL     1       0.077   9.585  25.065  0.00  0.00     0.349 S 
HETATM   24  O   UNL     1      -1.132   8.888  24.666  0.00  0.00    -0.193 OA
HETATM   25  O   UNL     1       1.354   9.189  24.516  0.00  0.00    -0.193 OA
BRANCH  23  26
HETATM   26  N   UNL     1      -0.172  11.282  24.771  0.00  0.00     0.028 N 
HETATM   27  C   UNL     1       1.062  13.514  24.705  0.00  0.00     0.178 A 
HETATM   28  C   UNL     1       0.286  14.447  23.786  0.00  0.00     0.036 C 
HETATM   29  C   UNL     1       1.054  12.026  24.345  0.00  0.00     0.366 A 
HETATM   30  C   UNL     1      -1.367  11.540  23.938  0.00  0.00     0.293 C 
ENDBRANCH  23  26
ENDBRANCH   1  23
BRANCH   6  31
HETATM   31  O   UNL     1      -2.147  10.217  27.133  0.00  0.00    -0.359 OA
HETATM   32  H   UNL     1      -2.513   9.502  26.584  0.00  0.00     0.217 HD
ENDBRANCH   6  31
TORSDOF 6
ENDMDL
MODEL 7
REMARK VINA RESULT:    -7.211      3.554      7.163
REMARK INTER + INTRA:         -10.979
REMARK INTER:                  -9.309
REMARK INTRA:                  -1.670
REMARK UNBOUND:                -1.660
REMARK  6 active torsions:
REMARK  status: ('A' for Active; 'I' for Inactive)
REMARK    1  A    between atoms: N_4  and  S_6 
REMARK    2  A    between atoms: S_6  and  C_9 
REMARK    3  A    between atoms: C_11  and  C_17 
REMARK    4  A    between atoms: C_12  and  O_13 
REMARK    5  A    between atoms: C_15  and  O_16 
REMARK    6  A    between atoms: N_23  and  C_24 
ROOT
HETATM    1  C   UNL     1       3.929   6.120  23.166  0.00  0.00     0.121 A 
HETATM    2  C   UNL     1       2.890   6.995  23.518  0.00  0.00     0.046 A 
HETATM    3  C   UNL     1       2.813   7.557  24.794  0.00  0.00     0.047 A 
HETATM    4  C   UNL     1       3.810   7.220  25.722  0.00  0.00     0.082 A 
HETATM    5  C   UNL     1       4.825   6.316  25.395  0.00  0.00     0.075 A 
HETATM    6  C   UNL     1       4.897   5.774  24.110  0.00  0.00     0.091 A 
ENDROOT
BRANCH   3   7
HETATM    7  C   UNL     1       1.843   8.643  25.086  0.00  0.00     0.172 A 
HETATM    8  N   UNL     1       1.979   9.823  24.530  0.00  0.00    -0.151 NA
HETATM    9  N   UNL     1       0.839  10.489  24.866  0.00  0.00    -0.226 N 
HETATM   10  H   UNL     1       0.632  11.431  24.560  0.00  0.00     0.194 HD
HETATM   11  C   UNL     1       0.003   9.693  25.640  0.00  0.00     0.349 A 
HETATM   12  O   UNL     1      -1.085  10.033  26.079  0.00  0.00    -0.245 OA
HETATM   13  N   UNL     1       0.681   8.502  25.800  0.00  0.00    -0.241 N 
BRANCH  13  14
HETATM   14  C   UNL     1       0.258   7.490  26.681  0.00  0.00     0.084 A 
HETATM   15  C   UNL     1       0.581   7.519  28.041  0.00  0.00     0.143 A 
HETATM   16  F   UNL     1       1.259   8.557  28.551  0.00  0.00    -0.204 F 
HETATM   17  C   UNL     1       0.190   6.490  28.894  0.00  0.00     0.044 A 
HETATM   18  C   UNL     1      -0.518   5.403  28.385  0.00  0.00     0.003 A 
HETATM   19  C   UNL     1      -0.848   5.359  27.030  0.00  0.00     0.002 A 
HETATM   20  C   UNL     1      -0.482   6.409  26.184  0.00  0.00     0.033 A 
ENDBRANCH  13  14
ENDBRANCH   3   7
BRANCH   4  21
HETATM   21  O   UNL     1       3.900   7.786  26.966  0.00  0.00    -0.360 OA
HETATM   22  H   UNL     1       4.776   7.557  27.348  0.00  0.00     0.217 HD
ENDBRANCH   4  21
BRANCH   1  23
HETATM   23  S   UNL     1       4.001   5.610  21.456  0.00  0.00     0.349 S 
HETATM   24  O   UNL     1       2.637   5.594  20.963  0.00  0.00    -0.193 OA
HETATM   25  O   UNL     1       4.831   4.432  21.327  0.00  0.00    -0.193 OA
BRANCH  23  26
HETATM   26  N   UNL     1       4.812   6.963  20.722  0.00  0.00     0.028 N 
HETATM   27  C   UNL     1       7.133   7.942  20.319  0.00  0.00     0.178 A 
HETATM   28  C   UNL     1       7.055   8.832  19.087  0.00  0.00     0.036 C 
HETATM   29  C   UNL     1       6.233   6.704  20.335  0.00  0.00     0.366 A 
HETATM   30  C   UNL     1       3.995   7.604  19.667  0.00  0.00     0.293 C 
ENDBRANCH  23  26
ENDBRANCH   1  23
BRANCH   6  31
HETATM   31  O   UNL     1       5.963   4.999  23.780  0.00  0.00    -0.359 OA
HETATM   32  H   UNL     1       6.789   5.417  24.077  0.00  0.00     0.217 HD
ENDBRANCH   6  31
TORSDOF 6
ENDMDL
MODEL 8
REMARK VINA RESULT:    -7.108      3.492      6.361
REMARK INTER + INTRA:         -10.845
REMARK INTER:                  -9.186
REMARK INTRA:                  -1.660
REMARK UNBOUND:                -1.660
REMARK  6 active torsions:
REMARK  status: ('A' for Active; 'I' for Inactive)
REMARK    1  A    between atoms: N_4  and  S_6 
REMARK    2  A    between atoms: S_6  and  C_9 
REMARK    3  A    between atoms: C_11  and  C_17 
REMARK    4  A    between atoms: C_12  and  O_13 
REMARK    5  A    between atoms: C_15  and  O_16 
REMARK    6  A    between atoms: N_23  and  C_24 
ROOT
HETATM    1  C   UNL     1       1.878   5.057  17.571  0.00  0.00     0.121 A 
HETATM    2  C   UNL     1       3.185   5.346  17.993  0.00  0.00     0.046 A 
HETATM    3  C   UNL     1       3.556   6.638  18.374  0.00  0.00     0.047 A 
HETATM    4  C   UNL     1       2.581   7.644  18.323  0.00  0.00     0.082 A 
HETATM    5  C   UNL     1       1.289   7.375  17.861  0.00  0.00     0.075 A 
HETATM    6  C   UNL     1       0.928   6.076  17.498  0.00  0.00     0.091 A 
ENDROOT
BRANCH   3   7
HETATM    7  C   UNL     1       4.869   6.887  19.023  0.00  0.00     0.172 A 
HETATM    8  N   UNL     1       5.714   7.744  18.504  0.00  0.00    -0.151 NA
HETATM    9  N   UNL     1       6.700   7.855  19.438  0.00  0.00    -0.226 N 
HETATM   10  H   UNL     1       7.497   8.470  19.340  0.00  0.00     0.194 HD
HETATM   11  C   UNL     1       6.441   7.045  20.538  0.00  0.00     0.349 A 
HETATM   12  O   UNL     1       7.155   6.949  21.525  0.00  0.00    -0.245 OA
HETATM   13  N   UNL     1       5.259   6.399  20.244  0.00  0.00    -0.241 N 
BRANCH  13  14
HETATM   14  C   UNL     1       4.746   5.346  21.022  0.00  0.00     0.084 A 
HETATM   15  C   UNL     1       4.931   4.008  20.660  0.00  0.00     0.143 A 
HETATM   16  F   UNL     1       5.664   3.697  19.581  0.00  0.00    -0.204 F 
HETATM   17  C   UNL     1       4.383   2.976  21.418  0.00  0.00     0.044 A 
HETATM   18  C   UNL     1       3.620   3.277  22.545  0.00  0.00     0.003 A 
HETATM   19  C   UNL     1       3.425   4.608  22.918  0.00  0.00     0.002 A 
HETATM   20  C   UNL     1       4.004   5.638  22.174  0.00  0.00     0.033 A 
ENDBRANCH  13  14
ENDBRANCH   3   7
BRANCH   4  21
HETATM   21  O   UNL     1       2.796   8.922  18.768  0.00  0.00    -0.360 OA
HETATM   22  H   UNL     1       3.710   9.186  18.522  0.00  0.00     0.217 HD
ENDBRANCH   4  21
BRANCH   1  23
HETATM   23  S   UNL     1       1.495   3.337  17.276  0.00  0.00     0.349 S 
HETATM   24  O   UNL     1       2.644   2.568  17.715  0.00  0.00    -0.193 OA
HETATM   25  O   UNL     1       0.983   3.169  15.934  0.00  0.00    -0.193 OA
BRANCH  23  26
HETATM   26  N   UNL     1       0.210   3.065  18.417  0.00  0.00     0.028 N 
HETATM   27  C   UNL     1      -2.318   2.756  18.564  0.00  0.00     0.178 A 
HETATM   28  C   UNL     1      -2.617   1.971  19.834  0.00  0.00     0.036 C 
HETATM   29  C   UNL     1      -1.012   2.424  17.839  0.00  0.00     0.366 A 
HETATM   30  C   UNL     1       0.693   2.447  19.671  0.00  0.00     0.293 C 
ENDBRANCH  23  26
ENDBRANCH   1  23
BRANCH   6  31
HETATM   31  O   UNL     1      -0.366   5.817  17.177  0.00  0.00    -0.359 OA
HETATM   32  H   UNL     1      -0.946   6.521  17.514  0.00  0.00     0.217 HD
ENDBRANCH   6  31
TORSDOF 6
ENDMDL
MODEL 9
REMARK VINA RESULT:    -7.069      3.062      6.406
REMARK INTER + INTRA:         -10.795
REMARK INTER:                  -8.629
REMARK INTRA:                  -2.166
REMARK UNBOUND:                -1.660
REMARK  6 active torsions:
REMARK  status: ('A' for Active; 'I' for Inactive)
REMARK    1  A    between atoms: N_4  and  S_6 
REMARK    2  A    between atoms: S_6  and  C_9 
REMARK    3  A    between atoms: C_11  and  C_17 
REMARK    4  A    between atoms: C_12  and  O_13 
REMARK    5  A    between atoms: C_15  and  O_16 
REMARK    6  A    between atoms: N_23  and  C_24 
ROOT
HETATM    1  C   UNL     1       2.366   3.436  20.581  0.00  0.00     0.121 A 
HETATM    2  C   UNL     1       2.211   4.637  21.290  0.00  0.00     0.046 A 
HETATM    3  C   UNL     1       2.947   4.896  22.450  0.00  0.00     0.047 A 
HETATM    4  C   UNL     1       3.850   3.916  22.888  0.00  0.00     0.082 A 
HETATM    5  C   UNL     1       3.979   2.699  22.213  0.00  0.00     0.075 A 
HETATM    6  C   UNL     1       3.248   2.461  21.046  0.00  0.00     0.091 A 
ENDROOT
BRANCH   3   7
HETATM    7  C   UNL     1       2.938   6.248  23.065  0.00  0.00     0.172 A 
HETATM    8  N   UNL     1       2.178   6.500  24.104  0.00  0.00    -0.151 NA
HETATM    9  N   UNL     1       2.557   7.745  24.506  0.00  0.00    -0.226 N 
HETATM   10  H   UNL     1       2.166   8.215  25.311  0.00  0.00     0.194 HD
HETATM   11  C   UNL     1       3.563   8.251  23.690  0.00  0.00     0.349 A 
HETATM   12  O   UNL     1       4.092   9.344  23.821  0.00  0.00    -0.245 OA
HETATM   13  N   UNL     1       3.783   7.277  22.738  0.00  0.00    -0.241 N 
BRANCH  13  14
HETATM   14  C   UNL     1       4.597   7.478  21.609  0.00  0.00     0.084 A 
HETATM   15  C   UNL     1       5.922   7.035  21.572  0.00  0.00     0.143 A 
HETATM   16  F   UNL     1       6.432   6.347  22.604  0.00  0.00    -0.204 F 
HETATM   17  C   UNL     1       6.730   7.275  20.463  0.00  0.00     0.044 A 
HETATM   18  C   UNL     1       6.219   7.986  19.379  0.00  0.00     0.003 A 
HETATM   19  C   UNL     1       4.898   8.435  19.401  0.00  0.00     0.002 A 
HETATM   20  C   UNL     1       4.081   8.164  20.501  0.00  0.00     0.033 A 
ENDBRANCH  13  14
ENDBRANCH   3   7
BRANCH   4  21
HETATM   21  O   UNL     1       4.699   4.098  23.948  0.00  0.00    -0.360 OA
HETATM   22  H   UNL     1       4.398   4.883  24.455  0.00  0.00     0.217 HD
ENDBRANCH   4  21
BRANCH   1  23
HETATM   23  S   UNL     1       1.493   3.307  19.028  0.00  0.00     0.349 S 
HETATM   24  O   UNL     1       0.130   2.921  19.342  0.00  0.00    -0.193 OA
HETATM   25  O   UNL     1       2.267   2.526  18.090  0.00  0.00    -0.193 OA
BRANCH  23  26
HETATM   26  N   UNL     1       1.464   4.966  18.504  0.00  0.00     0.028 N 
HETATM   27  C   UNL     1       2.789   6.669  17.143  0.00  0.00     0.178 A 
HETATM   28  C   UNL     1       1.815   7.731  16.653  0.00  0.00     0.036 C 
HETATM   29  C   UNL     1       2.251   5.241  17.262  0.00  0.00     0.366 A 
HETATM   30  C   UNL     1       0.097   5.533  18.504  0.00  0.00     0.293 C 
ENDBRANCH  23  26
ENDBRANCH   1  23
BRANCH   6  31
HETATM   31  O   UNL     1       3.486   1.326  20.340  0.00  0.00    -0.359 OA
HETATM   32  H   UNL     1       2.973   0.585  20.707  0.00  0.00     0.217 HD
ENDBRANCH   6  31
TORSDOF 6
ENDMDL
