MODEL 1
REMARK VINA RESULT:    -8.012      0.000      0.000
REMARK INTER + INTRA:         -12.539
REMARK INTER:                 -10.703
REMARK INTRA:                  -1.836
REMARK UNBOUND:                -1.950
REMARK  6 active torsions:
REMARK  status: ('A' for Active; 'I' for Inactive)
REMARK    1  A    between atoms: C_7  and  C_8 
REMARK    2  A    between atoms: C_8  and  C_9 
REMARK    3  A    between atoms: C_16  and  C_20 
REMARK    4  A    between atoms: C_17  and  O_19 
REMARK       I    between atoms: C_20  and  N_22 
REMARK    5  A    between atoms: N_22  and  C_24 
REMARK    6  A    between atoms: C_27  and  O_28 
ROOT
HETATM    1  C   UNL     1       0.512  15.864  21.193  0.00  0.00     0.071 C 
HETATM    2  N   UNL     1       1.503  15.458  20.379  0.00  0.00    -0.178 NA
HETATM    3  N   UNL     1       2.348  14.812  21.192  0.00  0.00    -0.277 N 
HETATM    4  H   UNL     1       3.185  14.408  20.790  0.00  0.00     0.189 HD
HETATM    5  C   UNL     1       0.744  15.459  22.545  0.00  0.00     0.020 C 
HETATM    6  C   UNL     1       2.000  14.863  22.513  0.00  0.00     0.065 C 
HETATM    7  C   UNL     1       0.084  15.585  23.786  0.00  0.00     0.035 C 
HETATM    8  C   UNL     1       0.749  15.172  24.959  0.00  0.00     0.066 C 
HETATM    9  C   UNL     1       2.074  14.715  24.881  0.00  0.00     0.083 C 
HETATM   10  C   UNL     1       2.699  14.479  23.658  0.00  0.00     0.069 C 
ENDROOT
BRANCH   8  11
HETATM   11  C   UNL     1       0.094  15.270  26.297  0.00  0.00     0.260 C 
HETATM   12  O   UNL     1       0.729  15.899  27.149  0.00  0.00    -0.267 OA
HETATM   13  N   UNL     1      -1.189  14.726  26.531  0.00  0.00    -0.318 N 
HETATM   14  C   UNL     1      -1.879  15.128  27.753  0.00  0.00     0.159 C 
BRANCH  13  15
HETATM   15  C   UNL     1      -1.811  13.710  25.737  0.00  0.00     0.037 A 
HETATM   16  C   UNL     1      -2.947  13.989  24.974  0.00  0.00     0.032 A 
HETATM   17  C   UNL     1      -3.628  12.970  24.305  0.00  0.00     0.039 A 
HETATM   18  C   UNL     1      -3.160  11.659  24.333  0.00  0.00     0.068 A 
HETATM   19  C   UNL     1      -1.974  11.379  25.009  0.00  0.00     0.039 A 
HETATM   20  C   UNL     1      -1.300  12.403  25.698  0.00  0.00     0.032 A 
BRANCH  18  21
HETATM   21  O   UNL     1      -3.984  10.754  23.731  0.00  0.00    -0.356 OA
HETATM   22  C   UNL     1      -5.256  10.534  24.321  0.00  0.00     0.210 C 
ENDBRANCH  18  21
ENDBRANCH  13  15
ENDBRANCH   8  11
BRANCH   9  23
HETATM   23  O   UNL     1       2.853  14.512  25.991  0.00  0.00    -0.360 OA
HETATM   24  H   UNL     1       2.649  13.609  26.320  0.00  0.00     0.217 HD
ENDBRANCH   9  23
BRANCH   1  25
HETATM   25  C   UNL     1      -0.557  16.766  20.657  0.00  0.00     0.100 C 
BRANCH  25  26
HETATM   26  C   UNL     1      -1.815  15.954  20.498  0.00  0.00    -0.052 A 
HETATM   27  C   UNL     1      -1.804  14.586  20.813  0.00  0.00     0.014 A 
HETATM   28  C   UNL     1      -2.947  13.796  20.624  0.00  0.00    -0.061 A 
HETATM   29  C   UNL     1      -2.881  12.313  20.816  0.00  0.00     0.048 C 
HETATM   30  C   UNL     1      -4.126  14.395  20.155  0.00  0.00     0.007 A 
HETATM   31  C   UNL     1      -4.155  15.766  19.901  0.00  0.00     0.001 A 
HETATM   32  C   UNL     1      -3.008  16.535  20.065  0.00  0.00     0.007 A 
ENDBRANCH  25  26
ENDBRANCH   1  25
TORSDOF 6
ENDMDL
MODEL 2
REMARK VINA RESULT:    -7.995      2.625      4.094
REMARK INTER + INTRA:         -12.516
REMARK INTER:                 -10.643
REMARK INTRA:                  -1.873
REMARK UNBOUND:                -1.950
REMARK  6 active torsions:
REMARK  status: ('A' for Active; 'I' for Inactive)
REMARK    1  A    between atoms: C_7  and  C_8 
REMARK    2  A    between atoms: C_8  and  C_9 
REMARK    3  A    between atoms: C_16  and  C_20 
REMARK    4  A    between atoms: C_17  and  O_19 
REMARK       I    between atoms: C_20  and  N_22 
REMARK    5  A    between atoms: N_22  and  C_24 
REMARK    6  A    between atoms: C_27  and  O_28 
ROOT
HETATM    1  C   UNL     1       0.030  14.397  22.681  0.00  0.00     0.071 C 
HETATM    2  N   UNL     1       1.026  15.243  22.999  0.00  0.00    -0.178 NA
HETATM    3  N   UNL     1       0.891  15.425  24.318  0.00  0.00    -0.277 N 
HETATM    4  H   UNL     1       1.549  16.035  24.788  0.00  0.00     0.189 HD
HETATM    5  C   UNL     1      -0.744  14.042  23.830  0.00  0.00     0.020 C 
HETATM    6  C   UNL     1      -0.207  14.813  24.856  0.00  0.00     0.065 C 
HETATM    7  C   UNL     1      -1.862  13.227  24.108  0.00  0.00     0.035 C 
HETATM    8  C   UNL     1      -2.442  13.277  25.392  0.00  0.00     0.066 C 
HETATM    9  C   UNL     1      -1.949  14.185  26.343  0.00  0.00     0.083 C 
HETATM   10  C   UNL     1      -0.781  14.913  26.124  0.00  0.00     0.069 C 
ENDROOT
BRANCH   8  11
HETATM   11  C   UNL     1      -3.618  12.427  25.745  0.00  0.00     0.260 C 
HETATM   12  O   UNL     1      -4.713  12.995  25.690  0.00  0.00    -0.267 OA
HETATM   13  N   UNL     1      -3.470  11.058  26.059  0.00  0.00    -0.318 N 
HETATM   14  C   UNL     1      -4.677  10.238  26.088  0.00  0.00     0.159 C 
BRANCH  13  15
HETATM   15  C   UNL     1      -2.251  10.436  26.482  0.00  0.00     0.037 A 
HETATM   16  C   UNL     1      -1.343   9.926  25.551  0.00  0.00     0.032 A 
HETATM   17  C   UNL     1      -0.222   9.205  25.966  0.00  0.00     0.039 A 
HETATM   18  C   UNL     1       0.053   9.027  27.319  0.00  0.00     0.068 A 
HETATM   19  C   UNL     1      -0.788   9.612  28.263  0.00  0.00     0.039 A 
HETATM   20  C   UNL     1      -1.929  10.321  27.844  0.00  0.00     0.032 A 
BRANCH  18  21
HETATM   21  O   UNL     1       1.116   8.211  27.575  0.00  0.00    -0.356 OA
HETATM   22  C   UNL     1       2.344   8.513  26.932  0.00  0.00     0.210 C 
ENDBRANCH  18  21
ENDBRANCH  13  15
ENDBRANCH   8  11
BRANCH   9  23
HETATM   23  O   UNL     1      -2.597  14.448  27.522  0.00  0.00    -0.360 OA
HETATM   24  H   UNL     1      -3.101  15.281  27.389  0.00  0.00     0.217 HD
ENDBRANCH   9  23
BRANCH   1  25
HETATM   25  C   UNL     1      -0.233  14.080  21.241  0.00  0.00     0.100 C 
BRANCH  25  26
HETATM   26  C   UNL     1      -1.515  14.762  20.841  0.00  0.00    -0.052 A 
HETATM   27  C   UNL     1      -2.638  13.989  20.502  0.00  0.00     0.014 A 
HETATM   28  C   UNL     1      -3.826  14.598  20.075  0.00  0.00    -0.061 A 
HETATM   29  C   UNL     1      -4.963  13.764  19.571  0.00  0.00     0.048 C 
HETATM   30  C   UNL     1      -3.903  15.998  20.029  0.00  0.00     0.007 A 
HETATM   31  C   UNL     1      -2.809  16.766  20.425  0.00  0.00     0.001 A 
HETATM   32  C   UNL     1      -1.625  16.153  20.821  0.00  0.00     0.007 A 
ENDBRANCH  25  26
ENDBRANCH   1  25
TORSDOF 6
ENDMDL
MODEL 3
REMARK VINA RESULT:    -7.785      2.467      6.459
REMARK INTER + INTRA:         -12.239
REMARK INTER:                 -10.408
REMARK INTRA:                  -1.831
REMARK UNBOUND:                -1.950
REMARK  6 active torsions:
REMARK  status: ('A' for Active; 'I' for Inactive)
REMARK    1  A    between atoms: C_7  and  C_8 
REMARK    2  A    between atoms: C_8  and  C_9 
REMARK    3  A    between atoms: C_16  and  C_20 
REMARK    4  A    between atoms: C_17  and  O_19 
REMARK       I    between atoms: C_20  and  N_22 
REMARK    5  A    between atoms: N_22  and  C_24 
REMARK    6  A    between atoms: C_27  and  O_28 
ROOT
HETATM    1  C   UNL     1      -2.630  11.952  26.389  0.00  0.00     0.071 C 
HETATM    2  N   UNL     1      -3.249  12.556  27.418  0.00  0.00    -0.178 NA
HETATM    3  N   UNL     1      -2.739  13.794  27.425  0.00  0.00    -0.277 N 
HETATM    4  H   UNL     1      -3.068  14.444  28.128  0.00  0.00     0.189 HD
HETATM    5  C   UNL     1      -1.713  12.835  25.736  0.00  0.00     0.020 C 
HETATM    6  C   UNL     1      -1.745  13.993  26.507  0.00  0.00     0.065 C 
HETATM    7  C   UNL     1      -0.821  12.772  24.644  0.00  0.00     0.035 C 
HETATM    8  C   UNL     1       0.058  13.850  24.417  0.00  0.00     0.066 C 
HETATM    9  C   UNL     1       0.084  14.928  25.317  0.00  0.00     0.083 C 
HETATM   10  C   UNL     1      -0.863  15.059  26.332  0.00  0.00     0.069 C 
ENDROOT
BRANCH   8  11
HETATM   11  C   UNL     1       1.014  13.843  23.270  0.00  0.00     0.260 C 
HETATM   12  O   UNL     1       2.209  13.841  23.580  0.00  0.00    -0.267 OA
HETATM   13  N   UNL     1       0.560  13.782  21.933  0.00  0.00    -0.318 N 
HETATM   14  C   UNL     1       1.543  13.470  20.900  0.00  0.00     0.159 C 
BRANCH  13  15
HETATM   15  C   UNL     1      -0.756  14.133  21.493  0.00  0.00     0.037 A 
HETATM   16  C   UNL     1      -1.669  13.152  21.098  0.00  0.00     0.032 A 
HETATM   17  C   UNL     1      -2.903  13.502  20.547  0.00  0.00     0.039 A 
HETATM   18  C   UNL     1      -3.281  14.837  20.429  0.00  0.00     0.068 A 
HETATM   19  C   UNL     1      -2.424  15.827  20.907  0.00  0.00     0.039 A 
HETATM   20  C   UNL     1      -1.173  15.474  21.444  0.00  0.00     0.032 A 
BRANCH  18  21
HETATM   21  O   UNL     1      -4.460  15.033  19.771  0.00  0.00    -0.356 OA
HETATM   22  C   UNL     1      -5.131  13.886  19.275  0.00  0.00     0.210 C 
ENDBRANCH  18  21
ENDBRANCH  13  15
ENDBRANCH   8  11
BRANCH   9  23
HETATM   23  O   UNL     1       1.057  15.893  25.288  0.00  0.00    -0.360 OA
HETATM   24  H   UNL     1       1.910  15.443  25.475  0.00  0.00     0.217 HD
ENDBRANCH   9  23
BRANCH   1  25
HETATM   25  C   UNL     1      -2.837  10.486  26.164  0.00  0.00     0.100 C 
BRANCH  25  26
HETATM   26  C   UNL     1      -1.497   9.806  26.267  0.00  0.00    -0.052 A 
HETATM   27  C   UNL     1      -0.882   9.302  25.109  0.00  0.00     0.014 A 
HETATM   28  C   UNL     1       0.340   8.619  25.185  0.00  0.00    -0.061 A 
HETATM   29  C   UNL     1       0.910   7.954  23.970  0.00  0.00     0.048 C 
HETATM   30  C   UNL     1       0.972   8.477  26.429  0.00  0.00     0.007 A 
HETATM   31  C   UNL     1       0.393   9.031  27.569  0.00  0.00     0.001 A 
HETATM   32  C   UNL     1      -0.833   9.684  27.489  0.00  0.00     0.007 A 
ENDBRANCH  25  26
ENDBRANCH   1  25
TORSDOF 6
ENDMDL
MODEL 4
REMARK VINA RESULT:    -7.742      2.610      4.979
REMARK INTER + INTRA:         -12.182
REMARK INTER:                 -11.004
REMARK INTRA:                  -1.178
REMARK UNBOUND:                -1.950
REMARK  6 active torsions:
REMARK  status: ('A' for Active; 'I' for Inactive)
REMARK    1  A    between atoms: C_7  and  C_8 
REMARK    2  A    between atoms: C_8  and  C_9 
REMARK    3  A    between atoms: C_16  and  C_20 
REMARK    4  A    between atoms: C_17  and  O_19 
REMARK       I    between atoms: C_20  and  N_22 
REMARK    5  A    between atoms: N_22  and  C_24 
REMARK    6  A    between atoms: C_27  and  O_28 
ROOT
HETATM    1  C   UNL     1      -0.336  16.376  22.603  0.00  0.00     0.071 C 
HETATM    2  N   UNL     1      -0.814  16.731  21.397  0.00  0.00    -0.178 NA
HETATM    3  N   UNL     1      -2.009  16.132  21.330  0.00  0.00    -0.277 N 
HETATM    4  H   UNL     1      -2.565  16.264  20.494  0.00  0.00     0.189 HD
HETATM    5  C   UNL     1      -1.257  15.536  23.305  0.00  0.00     0.020 C 
HETATM    6  C   UNL     1      -2.288  15.324  22.397  0.00  0.00     0.065 C 
HETATM    7  C   UNL     1      -1.308  14.883  24.556  0.00  0.00     0.035 C 
HETATM    8  C   UNL     1      -2.361  13.981  24.812  0.00  0.00     0.066 C 
HETATM    9  C   UNL     1      -3.292  13.693  23.801  0.00  0.00     0.083 C 
HETATM   10  C   UNL     1      -3.322  14.410  22.606  0.00  0.00     0.069 C 
ENDROOT
BRANCH   8  11
HETATM   11  C   UNL     1      -2.472  13.272  26.122  0.00  0.00     0.260 C 
HETATM   12  O   UNL     1      -2.980  13.930  27.035  0.00  0.00    -0.267 OA
HETATM   13  N   UNL     1      -2.073  11.925  26.266  0.00  0.00    -0.318 N 
HETATM   14  C   UNL     1      -2.494  11.222  27.474  0.00  0.00     0.159 C 
BRANCH  13  15
HETATM   15  C   UNL     1      -1.176  11.232  25.390  0.00  0.00     0.037 A 
HETATM   16  C   UNL     1      -1.622  10.175  24.594  0.00  0.00     0.032 A 
HETATM   17  C   UNL     1      -0.723   9.418  23.840  0.00  0.00     0.039 A 
HETATM   18  C   UNL     1       0.633   9.732  23.817  0.00  0.00     0.068 A 
HETATM   19  C   UNL     1       1.082  10.843  24.529  0.00  0.00     0.039 A 
HETATM   20  C   UNL     1       0.178  11.593  25.303  0.00  0.00     0.032 A 
BRANCH  18  21
HETATM   21  O   UNL     1       1.406   8.842  23.131  0.00  0.00    -0.356 OA
HETATM   22  C   UNL     1       1.928   7.737  23.852  0.00  0.00     0.210 C 
ENDBRANCH  18  21
ENDBRANCH  13  15
ENDBRANCH   8  11
BRANCH   9  23
HETATM   23  O   UNL     1      -4.200  12.671  23.900  0.00  0.00    -0.360 OA
HETATM   24  H   UNL     1      -3.684  11.834  23.919  0.00  0.00     0.217 HD
ENDBRANCH   9  23
BRANCH   1  25
HETATM   25  C   UNL     1       1.069  16.740  22.974  0.00  0.00     0.100 C 
BRANCH  25  26
HETATM   26  C   UNL     1       1.998  15.791  22.263  0.00  0.00    -0.052 A 
HETATM   27  C   UNL     1       3.336  15.686  22.678  0.00  0.00     0.014 A 
HETATM   28  C   UNL     1       4.234  14.850  22.000  0.00  0.00    -0.061 A 
HETATM   29  C   UNL     1       5.689  14.862  22.353  0.00  0.00     0.048 C 
HETATM   30  C   UNL     1       3.776  14.080  20.921  0.00  0.00     0.007 A 
HETATM   31  C   UNL     1       2.433  14.137  20.548  0.00  0.00     0.001 A 
HETATM   32  C   UNL     1       1.556  14.990  21.209  0.00  0.00     0.007 A 
ENDBRANCH  25  26
ENDBRANCH   1  25
TORSDOF 6
ENDMDL
MODEL 5
REMARK VINA RESULT:    -7.684      2.325      4.935
REMARK INTER + INTRA:         -12.104
REMARK INTER:                 -10.789
REMARK INTRA:                  -1.315
REMARK UNBOUND:                -1.950
REMARK  6 active torsions:
REMARK  status: ('A' for Active; 'I' for Inactive)
REMARK    1  A    between atoms: C_7  and  C_8 
REMARK    2  A    between atoms: C_8  and  C_9 
REMARK    3  A    between atoms: C_16  and  C_20 
REMARK    4  A    between atoms: C_17  and  O_19 
REMARK       I    between atoms: C_20  and  N_22 
REMARK    5  A    between atoms: N_22  and  C_24 
REMARK    6  A    between atoms: C_27  and  O_28 
ROOT
HETATM    1  C   UNL     1      -2.311  11.974  22.406  0.00  0.00     0.071 C 
HETATM    2  N   UNL     1      -2.911  10.790  22.192  0.00  0.00    -0.178 NA
HETATM    3  N   UNL     1      -3.321  10.407  23.408  0.00  0.00    -0.277 N 
HETATM    4  H   UNL     1      -3.813   9.526  23.493  0.00  0.00     0.189 HD
HETATM    5  C   UNL     1      -2.350  12.340  23.788  0.00  0.00     0.020 C 
HETATM    6  C   UNL     1      -2.930  11.243  24.416  0.00  0.00     0.065 C 
HETATM    7  C   UNL     1      -1.908  13.421  24.581  0.00  0.00     0.035 C 
HETATM    8  C   UNL     1      -1.999  13.321  25.984  0.00  0.00     0.066 C 
HETATM    9  C   UNL     1      -2.456  12.128  26.568  0.00  0.00     0.083 C 
HETATM   10  C   UNL     1      -3.000  11.098  25.803  0.00  0.00     0.069 C 
ENDROOT
BRANCH   8  11
HETATM   11  C   UNL     1      -1.559  14.439  26.871  0.00  0.00     0.260 C 
HETATM   12  O   UNL     1      -2.306  14.680  27.824  0.00  0.00    -0.267 OA
HETATM   13  N   UNL     1      -0.340  15.118  26.650  0.00  0.00    -0.318 N 
HETATM   14  C   UNL     1       0.160  15.973  27.722  0.00  0.00     0.159 C 
BRANCH  13  15
HETATM   15  C   UNL     1       0.377  15.143  25.411  0.00  0.00     0.037 A 
HETATM   16  C   UNL     1       1.507  14.345  25.218  0.00  0.00     0.032 A 
HETATM   17  C   UNL     1       2.280  14.466  24.061  0.00  0.00     0.039 A 
HETATM   18  C   UNL     1       1.912  15.342  23.044  0.00  0.00     0.068 A 
HETATM   19  C   UNL     1       0.734  16.076  23.176  0.00  0.00     0.039 A 
HETATM   20  C   UNL     1      -0.033  15.967  24.350  0.00  0.00     0.032 A 
BRANCH  18  21
HETATM   21  O   UNL     1       2.817  15.438  22.028  0.00  0.00    -0.356 OA
HETATM   22  C   UNL     1       3.844  14.460  21.972  0.00  0.00     0.210 C 
ENDBRANCH  18  21
ENDBRANCH  13  15
ENDBRANCH   8  11
BRANCH   9  23
HETATM   23  O   UNL     1      -2.360  11.879  27.912  0.00  0.00    -0.360 OA
HETATM   24  H   UNL     1      -1.554  11.333  28.044  0.00  0.00     0.217 HD
ENDBRANCH   9  23
BRANCH   1  25
HETATM   25  C   UNL     1      -1.584  12.644  21.281  0.00  0.00     0.100 C 
BRANCH  25  26
HETATM   26  C   UNL     1      -2.461  13.746  20.749  0.00  0.00    -0.052 A 
HETATM   27  C   UNL     1      -3.639  13.424  20.054  0.00  0.00     0.014 A 
HETATM   28  C   UNL     1      -4.446  14.429  19.504  0.00  0.00    -0.061 A 
HETATM   29  C   UNL     1      -5.612  14.071  18.636  0.00  0.00     0.048 C 
HETATM   30  C   UNL     1      -4.091  15.774  19.689  0.00  0.00     0.007 A 
HETATM   31  C   UNL     1      -2.955  16.096  20.432  0.00  0.00     0.001 A 
HETATM   32  C   UNL     1      -2.146  15.090  20.951  0.00  0.00     0.007 A 
ENDBRANCH  25  26
ENDBRANCH   1  25
TORSDOF 6
ENDMDL
MODEL 6
REMARK VINA RESULT:    -7.512      3.629      6.115
REMARK INTER + INTRA:         -11.877
REMARK INTER:                 -10.304
REMARK INTRA:                  -1.573
REMARK UNBOUND:                -1.950
REMARK  6 active torsions:
REMARK  status: ('A' for Active; 'I' for Inactive)
REMARK    1  A    between atoms: C_7  and  C_8 
REMARK    2  A    between atoms: C_8  and  C_9 
REMARK    3  A    between atoms: C_16  and  C_20 
REMARK    4  A    between atoms: C_17  and  O_19 
REMARK       I    between atoms: C_20  and  N_22 
REMARK    5  A    between atoms: N_22  and  C_24 
REMARK    6  A    between atoms: C_27  and  O_28 
ROOT
HETATM    1  C   UNL     1      -2.332  11.957  22.721  0.00  0.00     0.071 C 
HETATM    2  N   UNL     1      -3.426  12.411  22.083  0.00  0.00    -0.178 NA
HETATM    3  N   UNL     1      -4.381  12.394  23.020  0.00  0.00    -0.277 N 
HETATM    4  H   UNL     1      -5.310  12.705  22.764  0.00  0.00     0.189 HD
HETATM    5  C   UNL     1      -2.613  11.652  24.090  0.00  0.00     0.020 C 
HETATM    6  C   UNL     1      -3.983  11.858  24.213  0.00  0.00     0.065 C 
HETATM    7  C   UNL     1      -1.897  11.165  25.206  0.00  0.00     0.035 C 
HETATM    8  C   UNL     1      -2.604  10.835  26.380  0.00  0.00     0.066 C 
HETATM    9  C   UNL     1      -4.005  10.923  26.396  0.00  0.00     0.083 C 
HETATM   10  C   UNL     1      -4.716  11.505  25.347  0.00  0.00     0.069 C 
ENDROOT
BRANCH   8  11
HETATM   11  C   UNL     1      -1.897  10.328  27.593  0.00  0.00     0.260 C 
HETATM   12  O   UNL     1      -2.307  10.778  28.668  0.00  0.00    -0.267 OA
HETATM   13  N   UNL     1      -0.873   9.359  27.499  0.00  0.00    -0.318 N 
HETATM   14  C   UNL     1      -0.453   8.699  28.732  0.00  0.00     0.159 C 
BRANCH  13  15
HETATM   15  C   UNL     1      -0.121   9.068  26.317  0.00  0.00     0.037 A 
HETATM   16  C   UNL     1      -0.487   8.018  25.471  0.00  0.00     0.032 A 
HETATM   17  C   UNL     1       0.320   7.653  24.392  0.00  0.00     0.039 A 
HETATM   18  C   UNL     1       1.481   8.361  24.095  0.00  0.00     0.068 A 
HETATM   19  C   UNL     1       1.812   9.472  24.869  0.00  0.00     0.039 A 
HETATM   20  C   UNL     1       1.008   9.827  25.968  0.00  0.00     0.032 A 
BRANCH  18  21
HETATM   21  O   UNL     1       2.226   7.825  23.086  0.00  0.00    -0.356 OA
HETATM   22  C   UNL     1       3.473   7.242  23.432  0.00  0.00     0.210 C 
ENDBRANCH  18  21
ENDBRANCH  13  15
ENDBRANCH   8  11
BRANCH   9  23
HETATM   23  O   UNL     1      -4.768  10.410  27.413  0.00  0.00    -0.360 OA
HETATM   24  H   UNL     1      -5.596  10.938  27.441  0.00  0.00     0.217 HD
ENDBRANCH   9  23
BRANCH   1  25
HETATM   25  C   UNL     1      -1.083  11.690  21.940  0.00  0.00     0.100 C 
BRANCH  25  26
HETATM   26  C   UNL     1      -0.111  12.807  22.220  0.00  0.00    -0.052 A 
HETATM   27  C   UNL     1       0.900  12.626  23.178  0.00  0.00     0.014 A 
HETATM   28  C   UNL     1       1.783  13.667  23.495  0.00  0.00    -0.061 A 
HETATM   29  C   UNL     1       2.756  13.515  24.623  0.00  0.00     0.048 C 
HETATM   30  C   UNL     1       1.679  14.888  22.812  0.00  0.00     0.007 A 
HETATM   31  C   UNL     1       0.716  15.047  21.817  0.00  0.00     0.001 A 
HETATM   32  C   UNL     1      -0.174  14.017  21.529  0.00  0.00     0.007 A 
ENDBRANCH  25  26
ENDBRANCH   1  25
TORSDOF 6
ENDMDL
MODEL 7
REMARK VINA RESULT:    -7.435      3.675      7.529
REMARK INTER + INTRA:         -11.776
REMARK INTER:                 -10.186
REMARK INTRA:                  -1.590
REMARK UNBOUND:                -1.950
REMARK  6 active torsions:
REMARK  status: ('A' for Active; 'I' for Inactive)
REMARK    1  A    between atoms: C_7  and  C_8 
REMARK    2  A    between atoms: C_8  and  C_9 
REMARK    3  A    between atoms: C_16  and  C_20 
REMARK    4  A    between atoms: C_17  and  O_19 
REMARK       I    between atoms: C_20  and  N_22 
REMARK    5  A    between atoms: N_22  and  C_24 
REMARK    6  A    between atoms: C_27  and  O_28 
ROOT
HETATM    1  C   UNL     1       0.101   9.941  26.164  0.00  0.00     0.071 C 
HETATM    2  N   UNL     1       0.179   9.429  27.405  0.00  0.00    -0.178 NA
HETATM    3  N   UNL     1      -1.058   9.575  27.897  0.00  0.00    -0.277 N 
HETATM    4  H   UNL     1      -1.241   9.249  28.838  0.00  0.00     0.189 HD
HETATM    5  C   UNL     1      -1.217  10.416  25.875  0.00  0.00     0.020 C 
HETATM    6  C   UNL     1      -1.912  10.248  27.068  0.00  0.00     0.065 C 
HETATM    7  C   UNL     1      -1.877  11.025  24.786  0.00  0.00     0.035 C 
HETATM    8  C   UNL     1      -3.190  11.508  24.965  0.00  0.00     0.066 C 
HETATM    9  C   UNL     1      -3.786  11.444  26.235  0.00  0.00     0.083 C 
HETATM   10  C   UNL     1      -3.196  10.748  27.289  0.00  0.00     0.069 C 
ENDROOT
BRANCH   8  11
HETATM   11  C   UNL     1      -3.940  12.149  23.845  0.00  0.00     0.260 C 
HETATM   12  O   UNL     1      -4.905  11.505  23.421  0.00  0.00    -0.267 OA
HETATM   13  N   UNL     1      -3.589  13.429  23.360  0.00  0.00    -0.318 N 
HETATM   14  C   UNL     1      -4.546  14.106  22.490  0.00  0.00     0.159 C 
BRANCH  13  15
HETATM   15  C   UNL     1      -2.317  14.059  23.542  0.00  0.00     0.037 A 
HETATM   16  C   UNL     1      -1.300  13.914  22.596  0.00  0.00     0.032 A 
HETATM   17  C   UNL     1      -0.021  14.419  22.836  0.00  0.00     0.039 A 
HETATM   18  C   UNL     1       0.260  15.131  23.999  0.00  0.00     0.068 A 
HETATM   19  C   UNL     1      -0.766  15.369  24.911  0.00  0.00     0.039 A 
HETATM   20  C   UNL     1      -2.050  14.844  24.676  0.00  0.00     0.032 A 
BRANCH  18  21
HETATM   21  O   UNL     1       1.574  15.465  24.151  0.00  0.00    -0.356 OA
HETATM   22  C   UNL     1       2.491  14.414  24.414  0.00  0.00     0.210 C 
ENDBRANCH  18  21
ENDBRANCH  13  15
ENDBRANCH   8  11
BRANCH   9  23
HETATM   23  O   UNL     1      -4.958  12.088  26.536  0.00  0.00    -0.360 OA
HETATM   24  H   UNL     1      -5.318  12.434  25.689  0.00  0.00     0.217 HD
ENDBRANCH   9  23
BRANCH   1  25
HETATM   25  C   UNL     1       1.349  10.092  25.351  0.00  0.00     0.100 C 
BRANCH  25  26
HETATM   26  C   UNL     1       1.798   8.718  24.927  0.00  0.00    -0.052 A 
HETATM   27  C   UNL     1       0.888   7.852  24.299  0.00  0.00     0.014 A 
HETATM   28  C   UNL     1       1.265   6.550  23.943  0.00  0.00    -0.061 A 
HETATM   29  C   UNL     1       0.247   5.586  23.415  0.00  0.00     0.048 C 
HETATM   30  C   UNL     1       2.581   6.126  24.180  0.00  0.00     0.007 A 
HETATM   31  C   UNL     1       3.502   7.007  24.747  0.00  0.00     0.001 A 
HETATM   32  C   UNL     1       3.111   8.288  25.122  0.00  0.00     0.007 A 
ENDBRANCH  25  26
ENDBRANCH   1  25
TORSDOF 6
ENDMDL
MODEL 8
REMARK VINA RESULT:    -7.334      4.697      6.961
REMARK INTER + INTRA:         -11.642
REMARK INTER:                 -10.193
REMARK INTRA:                  -1.449
REMARK UNBOUND:                -1.950
REMARK  6 active torsions:
REMARK  status: ('A' for Active; 'I' for Inactive)
REMARK    1  A    between atoms: C_7  and  C_8 
REMARK    2  A    between atoms: C_8  and  C_9 
REMARK    3  A    between atoms: C_16  and  C_20 
REMARK    4  A    between atoms: C_17  and  O_19 
REMARK       I    between atoms: C_20  and  N_22 
REMARK    5  A    between atoms: N_22  and  C_24 
REMARK    6  A    between atoms: C_27  and  O_28 
ROOT
HETATM    1  C   UNL     1       0.569  12.947  24.617  0.00  0.00     0.071 C 
HETATM    2  N   UNL     1      -0.677  13.351  24.314  0.00  0.00    -0.178 NA
HETATM    3  N   UNL     1      -1.369  12.212  24.188  0.00  0.00    -0.277 N 
HETATM    4  H   UNL     1      -2.354  12.272  23.960  0.00  0.00     0.189 HD
HETATM    5  C   UNL     1       0.655  11.521  24.685  0.00  0.00     0.020 C 
HETATM    6  C   UNL     1      -0.607  11.082  24.300  0.00  0.00     0.065 C 
HETATM    7  C   UNL     1       1.655  10.561  24.952  0.00  0.00     0.035 C 
HETATM    8  C   UNL     1       1.363   9.196  24.750  0.00  0.00     0.066 C 
HETATM    9  C   UNL     1       0.118   8.823  24.218  0.00  0.00     0.083 C 
HETATM   10  C   UNL     1      -0.916   9.744  24.055  0.00  0.00     0.069 C 
ENDROOT
BRANCH   8  11
HETATM   11  C   UNL     1       2.378   8.137  25.029  0.00  0.00     0.260 C 
HETATM   12  O   UNL     1       3.086   7.820  24.068  0.00  0.00    -0.267 OA
HETATM   13  N   UNL     1       2.538   7.593  26.322  0.00  0.00    -0.318 N 
HETATM   14  C   UNL     1       3.738   6.801  26.577  0.00  0.00     0.159 C 
BRANCH  13  15
HETATM   15  C   UNL     1       1.557   7.640  27.364  0.00  0.00     0.037 A 
HETATM   16  C   UNL     1       1.683   8.534  28.430  0.00  0.00     0.032 A 
HETATM   17  C   UNL     1       0.798   8.490  29.510  0.00  0.00     0.039 A 
HETATM   18  C   UNL     1      -0.267   7.594  29.525  0.00  0.00     0.068 A 
HETATM   19  C   UNL     1      -0.465   6.760  28.426  0.00  0.00     0.039 A 
HETATM   20  C   UNL     1       0.438   6.793  27.348  0.00  0.00     0.032 A 
BRANCH  18  21
HETATM   21  O   UNL     1      -0.979   7.585  30.688  0.00  0.00    -0.356 OA
HETATM   22  C   UNL     1      -0.273   7.850  31.890  0.00  0.00     0.210 C 
ENDBRANCH  18  21
ENDBRANCH  13  15
ENDBRANCH   8  11
BRANCH   9  23
HETATM   23  O   UNL     1      -0.151   7.550  23.787  0.00  0.00    -0.360 OA
HETATM   24  H   UNL     1       0.656   7.228  23.329  0.00  0.00     0.217 HD
ENDBRANCH   9  23
BRANCH   1  25
HETATM   25  C   UNL     1       1.674  13.956  24.683  0.00  0.00     0.100 C 
BRANCH  25  26
HETATM   26  C   UNL     1       2.311  14.038  23.320  0.00  0.00    -0.052 A 
HETATM   27  C   UNL     1       3.685  14.305  23.210  0.00  0.00     0.014 A 
HETATM   28  C   UNL     1       4.292  14.439  21.953  0.00  0.00    -0.061 A 
HETATM   29  C   UNL     1       5.720  14.874  21.847  0.00  0.00     0.048 C 
HETATM   30  C   UNL     1       3.521  14.259  20.795  0.00  0.00     0.007 A 
HETATM   31  C   UNL     1       2.169  13.932  20.905  0.00  0.00     0.001 A 
HETATM   32  C   UNL     1       1.571  13.829  22.156  0.00  0.00     0.007 A 
ENDBRANCH  25  26
ENDBRANCH   1  25
TORSDOF 6
ENDMDL
MODEL 9
REMARK VINA RESULT:    -7.224      3.820      7.617
REMARK INTER + INTRA:         -11.497
REMARK INTER:                  -9.547
REMARK INTRA:                  -1.950
REMARK UNBOUND:                -1.950
REMARK  6 active torsions:
REMARK  status: ('A' for Active; 'I' for Inactive)
REMARK    1  A    between atoms: C_7  and  C_8 
REMARK    2  A    between atoms: C_8  and  C_9 
REMARK    3  A    between atoms: C_16  and  C_20 
REMARK    4  A    between atoms: C_17  and  O_19 
REMARK       I    between atoms: C_20  and  N_22 
REMARK    5  A    between atoms: N_22  and  C_24 
REMARK    6  A    between atoms: C_27  and  O_28 
ROOT
HETATM    1  C   UNL     1       0.613   9.072  25.293  0.00  0.00     0.071 C 
HETATM    2  N   UNL     1       0.554   8.398  24.131  0.00  0.00    -0.178 NA
HETATM    3  N   UNL     1      -0.469   8.963  23.478  0.00  0.00    -0.277 N 
HETATM    4  H   UNL     1      -0.702   8.613  22.557  0.00  0.00     0.189 HD
HETATM    5  C   UNL     1      -0.396  10.083  25.365  0.00  0.00     0.020 C 
HETATM    6  C   UNL     1      -1.139   9.909  24.203  0.00  0.00     0.065 C 
HETATM    7  C   UNL     1      -0.807  11.064  26.293  0.00  0.00     0.035 C 
HETATM    8  C   UNL     1      -1.996  11.781  26.048  0.00  0.00     0.066 C 
HETATM    9  C   UNL     1      -2.785  11.458  24.932  0.00  0.00     0.083 C 
HETATM   10  C   UNL     1      -2.340  10.574  23.949  0.00  0.00     0.069 C 
ENDROOT
BRANCH   8  11
HETATM   11  C   UNL     1      -2.472  12.839  26.988  0.00  0.00     0.260 C 
HETATM   12  O   UNL     1      -3.332  12.476  27.797  0.00  0.00    -0.267 OA
HETATM   13  N   UNL     1      -1.921  14.139  26.974  0.00  0.00    -0.318 N 
HETATM   14  C   UNL     1      -2.214  15.008  28.110  0.00  0.00     0.159 C 
BRANCH  13  15
HETATM   15  C   UNL     1      -1.210  14.721  25.876  0.00  0.00     0.037 A 
HETATM   16  C   UNL     1      -1.866  15.053  24.689  0.00  0.00     0.032 A 
HETATM   17  C   UNL     1      -1.150  15.498  23.575  0.00  0.00     0.039 A 
HETATM   18  C   UNL     1       0.229  15.679  23.637  0.00  0.00     0.068 A 
HETATM   19  C   UNL     1       0.888  15.446  24.843  0.00  0.00     0.039 A 
HETATM   20  C   UNL     1       0.168  14.980  25.958  0.00  0.00     0.032 A 
BRANCH  18  21
HETATM   21  O   UNL     1       0.808  16.008  22.447  0.00  0.00    -0.356 OA
HETATM   22  C   UNL     1      -0.018  16.607  21.461  0.00  0.00     0.210 C 
ENDBRANCH  18  21
ENDBRANCH  13  15
ENDBRANCH   8  11
BRANCH   9  23
HETATM   23  O   UNL     1      -4.052  11.950  24.753  0.00  0.00    -0.360 OA
HETATM   24  H   UNL     1      -4.664  11.183  24.799  0.00  0.00     0.217 HD
ENDBRANCH   9  23
BRANCH   1  25
HETATM   25  C   UNL     1       1.554   8.611  26.363  0.00  0.00     0.100 C 
BRANCH  25  26
HETATM   26  C   UNL     1       0.734   8.031  27.485  0.00  0.00    -0.052 A 
HETATM   27  C   UNL     1       0.789   8.616  28.761  0.00  0.00     0.014 A 
HETATM   28  C   UNL     1       0.077   8.065  29.835  0.00  0.00    -0.061 A 
HETATM   29  C   UNL     1       0.262   8.602  31.220  0.00  0.00     0.048 C 
HETATM   30  C   UNL     1      -0.733   6.940  29.617  0.00  0.00     0.007 A 
HETATM   31  C   UNL     1      -0.836   6.396  28.337  0.00  0.00     0.001 A 
HETATM   32  C   UNL     1      -0.104   6.934  27.284  0.00  0.00     0.007 A 
ENDBRANCH  25  26
ENDBRANCH   1  25
TORSDOF 6
ENDMDL
