REMARK  6 active torsions:
REMARK  status: ('A' for Active; 'I' for Inactive)
REMARK    1  A    between atoms: C_7  and  C_8 
REMARK    2  A    between atoms: C_8  and  C_9 
REMARK    3  A    between atoms: C_16  and  C_20 
REMARK    4  A    between atoms: C_17  and  O_19 
REMARK       I    between atoms: C_20  and  N_22 
REMARK    5  A    between atoms: N_22  and  C_24 
REMARK    6  A    between atoms: C_27  and  O_28 
ROOT
HETATM    1  C   UNL     1      -3.388   1.172  -0.273  0.00  0.00     0.071 C 
HETATM    2  N   UNL     1      -4.703   1.321  -0.035  0.00  0.00    -0.178 NA
HETATM    3  N   UNL     1      -4.895   2.645  -0.079  0.00  0.00    -0.277 N 
HETATM    4  H   UNL     1      -5.832   2.999   0.071  0.00  0.00     0.189 HD
HETATM    5  C   UNL     1      -2.745   2.434  -0.473  0.00  0.00     0.020 C 
HETATM    6  C   UNL     1      -3.747   3.370  -0.239  0.00  0.00     0.065 C 
HETATM    7  C   UNL     1      -1.439   2.893  -0.750  0.00  0.00     0.035 C 
HETATM    8  C   UNL     1      -1.178   4.278  -0.707  0.00  0.00     0.066 C 
HETATM    9  C   UNL     1      -2.195   5.165  -0.319  0.00  0.00     0.083 C 
HETATM   10  C   UNL     1      -3.513   4.743  -0.152  0.00  0.00     0.069 C 
ENDROOT
BRANCH   8  11
HETATM   11  C   UNL     1       0.181   4.820  -1.004  0.00  0.00     0.260 C 
HETATM   12  O   UNL     1       0.594   5.670  -0.209  0.00  0.00    -0.267 OA
HETATM   13  N   UNL     1       0.946   4.337  -2.089  0.00  0.00    -0.318 N 
HETATM   14  C   UNL     1       2.362   4.690  -2.126  0.00  0.00     0.159 C 
BRANCH  13  15
HETATM   15  C   UNL     1       0.419   3.643  -3.225  0.00  0.00     0.037 A 
HETATM   16  C   UNL     1      -0.861   3.923  -3.709  0.00  0.00     0.032 A 
HETATM   17  C   UNL     1      -1.423   3.157  -4.732  0.00  0.00     0.039 A 
HETATM   18  C   UNL     1      -0.701   2.132  -5.337  0.00  0.00     0.068 A 
HETATM   19  C   UNL     1       0.613   1.901  -4.934  0.00  0.00     0.039 A 
HETATM   20  C   UNL     1       1.171   2.661  -3.890  0.00  0.00     0.032 A 
BRANCH  18  21
HETATM   21  O   UNL     1      -1.413   1.398  -6.240  0.00  0.00    -0.356 OA
HETATM   22  C   UNL     1      -0.692   0.779  -7.294  0.00  0.00     0.210 C 
ENDBRANCH  18  21
ENDBRANCH  13  15
ENDBRANCH   8  11
BRANCH   9  23
HETATM   23  O   UNL     1      -1.958   6.486  -0.039  0.00  0.00    -0.360 OA
HETATM   24  H   UNL     1      -1.018   6.553   0.240  0.00  0.00     0.217 HD
ENDBRANCH   9  23
BRANCH   1  25
HETATM   25  C   UNL     1      -2.767  -0.185  -0.148  0.00  0.00     0.100 C 
BRANCH  25  26
HETATM   26  C   UNL     1      -2.826  -0.850  -1.498  0.00  0.00    -0.052 A 
HETATM   27  C   UNL     1      -1.634  -1.173  -2.167  0.00  0.00     0.014 A 
HETATM   28  C   UNL     1      -1.661  -1.744  -3.447  0.00  0.00    -0.061 A 
HETATM   29  C   UNL     1      -0.390  -1.942  -4.213  0.00  0.00     0.048 C 
HETATM   30  C   UNL     1      -2.897  -2.034  -4.044  0.00  0.00     0.007 A 
HETATM   31  C   UNL     1      -4.080  -1.771  -3.354  0.00  0.00     0.001 A 
HETATM   32  C   UNL     1      -4.043  -1.179  -2.096  0.00  0.00     0.007 A 
ENDBRANCH  25  26
ENDBRANCH   1  25
TORSDOF 6
