MODEL 1
REMARK VINA RESULT:    -7.796      0.000      0.000
REMARK INTER + INTRA:         -11.449
REMARK INTER:                 -10.368
REMARK INTRA:                  -1.081
REMARK UNBOUND:                -1.375
REMARK  6 active torsions:
REMARK  status: ('A' for Active; 'I' for Inactive)
REMARK    1  A    between atoms: C_2  and  C_3 
REMARK    2  A    between atoms: C_3  and  C_4 
REMARK    3  A    between atoms: C_6  and  C_7 
REMARK    4  A    between atoms: C_12  and  C_13 
REMARK    5  A    between atoms: C_23  and  O_24 
REMARK    6  A    between atoms: C_26  and  O_27 
ROOT
HETATM    1  C   UNL     1       8.280  13.434  21.457  0.00  0.00     0.102 A 
HETATM    2  N   UNL     1       9.556  13.711  21.117  0.00  0.00    -0.174 NA
HETATM    3  N   UNL     1       9.710  15.006  21.423  0.00  0.00    -0.288 N 
HETATM    4  H   UNL     1      10.602  15.447  21.218  0.00  0.00     0.188 HD
HETATM    5  C   UNL     1       8.618  15.564  22.011  0.00  0.00     0.124 A 
HETATM    6  C   UNL     1       7.661  14.573  22.080  0.00  0.00     0.022 A 
ENDROOT
BRANCH   1   7
HETATM    7  C   UNL     1       7.742  12.087  21.220  0.00  0.00     0.029 A 
HETATM    8  C   UNL     1       7.015  11.814  20.052  0.00  0.00     0.026 A 
HETATM    9  C   UNL     1       6.364  10.583  19.863  0.00  0.00    -0.024 A 
HETATM   10  C   UNL     1       6.512   9.595  20.842  0.00  0.00     0.074 A 
HETATM   11  C   UNL     1       7.283   9.821  21.982  0.00  0.00     0.074 A 
HETATM   12  C   UNL     1       7.896  11.058  22.160  0.00  0.00     0.081 A 
BRANCH   9  13
HETATM   13  C   UNL     1       5.504  10.385  18.637  0.00  0.00     0.041 C 
BRANCH  13  14
HETATM   14  C   UNL     1       4.378  11.413  18.492  0.00  0.00     0.000 C 
HETATM   15  C   UNL     1       3.692  11.355  17.135  0.00  0.00     0.005 C 
ENDBRANCH  13  14
ENDBRANCH   9  13
BRANCH  10  16
HETATM   16  O   UNL     1       5.893   8.390  20.667  0.00  0.00    -0.360 OA
HETATM   17  H   UNL     1       6.465   7.693  21.028  0.00  0.00     0.217 HD
ENDBRANCH  10  16
BRANCH  12  18
HETATM   18  O   UNL     1       8.646  11.215  23.299  0.00  0.00    -0.360 OA
HETATM   19  H   UNL     1       9.362  10.540  23.245  0.00  0.00     0.217 HD
ENDBRANCH  12  18
ENDBRANCH   1   7
BRANCH   6  20
HETATM   20  C   UNL     1       6.359  14.764  22.720  0.00  0.00    -0.019 A 
HETATM   21  C   UNL     1       6.098  15.892  23.513  0.00  0.00     0.015 A 
HETATM   22  C   UNL     1       4.840  16.083  24.096  0.00  0.00     0.040 A 
HETATM   23  C   UNL     1       3.821  15.162  23.873  0.00  0.00     0.102 A 
HETATM   24  C   UNL     1       4.075  14.024  23.107  0.00  0.00     0.102 A 
HETATM   25  O   UNL     1       2.605  15.428  24.445  0.00  0.00    -0.346 OA
HETATM   26  C   UNL     1       5.337  13.820  22.549  0.00  0.00     0.052 A 
HETATM   27  O   UNL     1       3.128  13.068  22.841  0.00  0.00    -0.346 OA
HETATM   28  C   UNL     1       2.019  13.170  23.739  0.00  0.00     0.202 C 
HETATM   29  C   UNL     1       1.568  14.615  23.882  0.00  0.00     0.202 C 
ENDBRANCH   6  20
TORSDOF 6
ENDMDL
MODEL 2
REMARK VINA RESULT:    -7.562      1.836      2.277
REMARK INTER + INTRA:         -11.147
REMARK INTER:                  -9.594
REMARK INTRA:                  -1.552
REMARK UNBOUND:                -1.375
REMARK  6 active torsions:
REMARK  status: ('A' for Active; 'I' for Inactive)
REMARK    1  A    between atoms: C_2  and  C_3 
REMARK    2  A    between atoms: C_3  and  C_4 
REMARK    3  A    between atoms: C_6  and  C_7 
REMARK    4  A    between atoms: C_12  and  C_13 
REMARK    5  A    between atoms: C_23  and  O_24 
REMARK    6  A    between atoms: C_26  and  O_27 
ROOT
HETATM    1  C   UNL     1       8.919  13.805  22.303  0.00  0.00     0.102 A 
HETATM    2  N   UNL     1      10.110  14.278  21.881  0.00  0.00    -0.174 NA
HETATM    3  N   UNL     1       9.863  15.551  21.542  0.00  0.00    -0.288 N 
HETATM    4  H   UNL     1      10.625  16.103  21.159  0.00  0.00     0.188 HD
HETATM    5  C   UNL     1       8.586  15.947  21.789  0.00  0.00     0.124 A 
HETATM    6  C   UNL     1       7.930  14.850  22.310  0.00  0.00     0.022 A 
ENDROOT
BRANCH   1   7
HETATM    7  C   UNL     1       8.803  12.402  22.724  0.00  0.00     0.029 A 
HETATM    8  C   UNL     1       7.983  11.517  22.010  0.00  0.00     0.026 A 
HETATM    9  C   UNL     1       7.736  10.212  22.469  0.00  0.00    -0.024 A 
HETATM   10  C   UNL     1       8.384   9.782  23.631  0.00  0.00     0.074 A 
HETATM   11  C   UNL     1       9.256  10.623  24.323  0.00  0.00     0.074 A 
HETATM   12  C   UNL     1       9.464  11.920  23.864  0.00  0.00     0.081 A 
BRANCH   9  13
HETATM   13  C   UNL     1       6.756   9.340  21.719  0.00  0.00     0.041 C 
BRANCH  13  14
HETATM   14  C   UNL     1       5.352   9.941  21.597  0.00  0.00     0.000 C 
HETATM   15  C   UNL     1       4.544   9.826  22.882  0.00  0.00     0.005 C 
ENDBRANCH  13  14
ENDBRANCH   9  13
BRANCH  10  16
HETATM   16  O   UNL     1       8.161   8.512  24.085  0.00  0.00    -0.360 OA
HETATM   17  H   UNL     1       8.903   7.950  23.809  0.00  0.00     0.217 HD
ENDBRANCH  10  16
BRANCH  12  18
HETATM   18  O   UNL     1      10.336  12.696  24.585  0.00  0.00    -0.360 OA
HETATM   19  H   UNL     1       9.906  13.578  24.670  0.00  0.00     0.217 HD
ENDBRANCH  12  18
ENDBRANCH   1   7
BRANCH   6  20
HETATM   20  C   UNL     1       6.544  14.896  22.776  0.00  0.00    -0.019 A 
HETATM   21  C   UNL     1       6.109  15.892  23.664  0.00  0.00     0.015 A 
HETATM   22  C   UNL     1       4.773  15.948  24.080  0.00  0.00     0.040 A 
HETATM   23  C   UNL     1       3.853  15.025  23.594  0.00  0.00     0.102 A 
HETATM   24  C   UNL     1       4.277  14.016  22.729  0.00  0.00     0.102 A 
HETATM   25  O   UNL     1       2.556  15.159  24.014  0.00  0.00    -0.346 OA
HETATM   26  C   UNL     1       5.614  13.944  22.338  0.00  0.00     0.052 A 
HETATM   27  O   UNL     1       3.436  13.068  22.207  0.00  0.00    -0.346 OA
HETATM   28  C   UNL     1       2.210  12.999  22.941  0.00  0.00     0.202 C 
HETATM   29  C   UNL     1       1.657  14.389  23.206  0.00  0.00     0.202 C 
ENDBRANCH   6  20
TORSDOF 6
ENDMDL
MODEL 3
REMARK VINA RESULT:    -7.342      1.784      5.746
REMARK INTER + INTRA:         -10.863
REMARK INTER:                  -9.711
REMARK INTRA:                  -1.152
REMARK UNBOUND:                -1.375
REMARK  6 active torsions:
REMARK  status: ('A' for Active; 'I' for Inactive)
REMARK    1  A    between atoms: C_2  and  C_3 
REMARK    2  A    between atoms: C_3  and  C_4 
REMARK    3  A    between atoms: C_6  and  C_7 
REMARK    4  A    between atoms: C_12  and  C_13 
REMARK    5  A    between atoms: C_23  and  O_24 
REMARK    6  A    between atoms: C_26  and  O_27 
ROOT
HETATM    1  C   UNL     1       6.363  14.416  22.574  0.00  0.00     0.102 A 
HETATM    2  N   UNL     1       7.080  15.556  22.650  0.00  0.00    -0.174 NA
HETATM    3  N   UNL     1       8.246  15.259  22.059  0.00  0.00    -0.288 N 
HETATM    4  H   UNL     1       8.966  15.974  22.028  0.00  0.00     0.188 HD
HETATM    5  C   UNL     1       8.293  14.002  21.542  0.00  0.00     0.124 A 
HETATM    6  C   UNL     1       7.078  13.414  21.830  0.00  0.00     0.022 A 
ENDROOT
BRANCH   1   7
HETATM    7  C   UNL     1       5.020  14.362  23.168  0.00  0.00     0.029 A 
HETATM    8  C   UNL     1       4.016  13.587  22.569  0.00  0.00     0.026 A 
HETATM    9  C   UNL     1       2.687  13.628  23.025  0.00  0.00    -0.024 A 
HETATM   10  C   UNL     1       2.392  14.413  24.144  0.00  0.00     0.074 A 
HETATM   11  C   UNL     1       3.387  15.141  24.796  0.00  0.00     0.074 A 
HETATM   12  C   UNL     1       4.690  15.106  24.309  0.00  0.00     0.081 A 
BRANCH   9  13
HETATM   13  C   UNL     1       1.626  12.859  22.273  0.00  0.00     0.041 C 
BRANCH  13  14
HETATM   14  C   UNL     1       0.862  13.696  21.243  0.00  0.00     0.000 C 
HETATM   15  C   UNL     1      -0.546  13.178  20.984  0.00  0.00     0.005 C 
ENDBRANCH  13  14
ENDBRANCH   9  13
BRANCH  10  16
HETATM   16  O   UNL     1       1.106  14.455  24.604  0.00  0.00    -0.360 OA
HETATM   17  H   UNL     1       0.714  13.572  24.509  0.00  0.00     0.217 HD
ENDBRANCH  10  16
BRANCH  12  18
HETATM   18  O   UNL     1       5.624  15.840  24.998  0.00  0.00    -0.360 OA
HETATM   19  H   UNL     1       6.066  16.412  24.328  0.00  0.00     0.217 HD
ENDBRANCH  12  18
ENDBRANCH   1   7
BRANCH   6  20
HETATM   20  C   UNL     1       6.712  12.074  21.371  0.00  0.00    -0.019 A 
HETATM   21  C   UNL     1       6.570  11.010  22.276  0.00  0.00     0.015 A 
HETATM   22  C   UNL     1       6.189   9.738  21.832  0.00  0.00     0.040 A 
HETATM   23  C   UNL     1       5.920   9.521  20.484  0.00  0.00     0.102 A 
HETATM   24  C   UNL     1       6.080  10.564  19.571  0.00  0.00     0.102 A 
HETATM   25  O   UNL     1       5.517   8.262  20.124  0.00  0.00    -0.346 OA
HETATM   26  C   UNL     1       6.488  11.824  20.010  0.00  0.00     0.052 A 
HETATM   27  O   UNL     1       5.838  10.434  18.228  0.00  0.00    -0.346 OA
HETATM   28  C   UNL     1       5.796   9.059  17.839  0.00  0.00     0.202 C 
HETATM   29  C   UNL     1       4.954   8.245  18.807  0.00  0.00     0.202 C 
ENDBRANCH   6  20
TORSDOF 6
ENDMDL
MODEL 4
REMARK VINA RESULT:    -7.287      1.594      5.598
REMARK INTER + INTRA:         -10.791
REMARK INTER:                  -9.408
REMARK INTRA:                  -1.384
REMARK UNBOUND:                -1.375
REMARK  6 active torsions:
REMARK  status: ('A' for Active; 'I' for Inactive)
REMARK    1  A    between atoms: C_2  and  C_3 
REMARK    2  A    between atoms: C_3  and  C_4 
REMARK    3  A    between atoms: C_6  and  C_7 
REMARK    4  A    between atoms: C_12  and  C_13 
REMARK    5  A    between atoms: C_23  and  O_24 
REMARK    6  A    between atoms: C_26  and  O_27 
ROOT
HETATM    1  C   UNL     1       7.794  14.027  21.896  0.00  0.00     0.102 A 
HETATM    2  N   UNL     1       8.776  14.939  21.749  0.00  0.00    -0.174 NA
HETATM    3  N   UNL     1       9.662  14.349  20.934  0.00  0.00    -0.288 N 
HETATM    4  H   UNL     1      10.515  14.850  20.707  0.00  0.00     0.188 HD
HETATM    5  C   UNL     1       9.268  13.126  20.490  0.00  0.00     0.124 A 
HETATM    6  C   UNL     1       8.041  12.875  21.069  0.00  0.00     0.022 A 
ENDROOT
BRANCH   1   7
HETATM    7  C   UNL     1       6.651  14.324  22.770  0.00  0.00     0.029 A 
HETATM    8  C   UNL     1       5.357  13.935  22.396  0.00  0.00     0.026 A 
HETATM    9  C   UNL     1       4.229  14.330  23.136  0.00  0.00    -0.024 A 
HETATM   10  C   UNL     1       4.426  15.070  24.306  0.00  0.00     0.074 A 
HETATM   11  C   UNL     1       5.709  15.413  24.733  0.00  0.00     0.074 A 
HETATM   12  C   UNL     1       6.809  15.034  23.970  0.00  0.00     0.081 A 
BRANCH   9  13
HETATM   13  C   UNL     1       2.852  13.976  22.625  0.00  0.00     0.041 C 
BRANCH  13  14
HETATM   14  C   UNL     1       2.655  12.483  22.345  0.00  0.00     0.000 C 
HETATM   15  C   UNL     1       2.670  11.636  23.609  0.00  0.00     0.005 C 
ENDBRANCH  13  14
ENDBRANCH   9  13
BRANCH  10  16
HETATM   16  O   UNL     1       3.339  15.453  25.040  0.00  0.00    -0.360 OA
HETATM   17  H   UNL     1       2.543  15.068  24.639  0.00  0.00     0.217 HD
ENDBRANCH  10  16
BRANCH  12  18
HETATM   18  O   UNL     1       8.044  15.397  24.447  0.00  0.00    -0.360 OA
HETATM   19  H   UNL     1       7.992  15.304  25.427  0.00  0.00     0.217 HD
ENDBRANCH  12  18
ENDBRANCH   1   7
BRANCH   6  20
HETATM   20  C   UNL     1       7.250  11.680  20.776  0.00  0.00    -0.019 A 
HETATM   21  C   UNL     1       6.866  10.796  21.796  0.00  0.00     0.015 A 
HETATM   22  C   UNL     1       6.082   9.671  21.512  0.00  0.00     0.040 A 
HETATM   23  C   UNL     1       5.652   9.431  20.211  0.00  0.00     0.102 A 
HETATM   24  C   UNL     1       6.047  10.289  19.184  0.00  0.00     0.102 A 
HETATM   25  O   UNL     1       4.859   8.332  20.010  0.00  0.00    -0.346 OA
HETATM   26  C   UNL     1       6.851  11.394  19.463  0.00  0.00     0.052 A 
HETATM   27  O   UNL     1       5.669  10.123  17.877  0.00  0.00    -0.346 OA
HETATM   28  C   UNL     1       5.181   8.800  17.640  0.00  0.00     0.202 C 
HETATM   29  C   UNL     1       4.212   8.375  18.731  0.00  0.00     0.202 C 
ENDBRANCH   6  20
TORSDOF 6
ENDMDL
MODEL 5
REMARK VINA RESULT:    -7.238      1.593      3.098
REMARK INTER + INTRA:         -10.728
REMARK INTER:                  -9.689
REMARK INTRA:                  -1.038
REMARK UNBOUND:                -1.375
REMARK  6 active torsions:
REMARK  status: ('A' for Active; 'I' for Inactive)
REMARK    1  A    between atoms: C_2  and  C_3 
REMARK    2  A    between atoms: C_3  and  C_4 
REMARK    3  A    between atoms: C_6  and  C_7 
REMARK    4  A    between atoms: C_12  and  C_13 
REMARK    5  A    between atoms: C_23  and  O_24 
REMARK    6  A    between atoms: C_26  and  O_27 
ROOT
HETATM    1  C   UNL     1       8.048  12.557  21.173  0.00  0.00     0.102 A 
HETATM    2  N   UNL     1       9.290  12.664  20.658  0.00  0.00    -0.174 NA
HETATM    3  N   UNL     1       9.562  13.976  20.713  0.00  0.00    -0.288 N 
HETATM    4  H   UNL     1      10.450  14.299  20.341  0.00  0.00     0.188 HD
HETATM    5  C   UNL     1       8.585  14.714  21.303  0.00  0.00     0.124 A 
HETATM    6  C   UNL     1       7.580  13.833  21.645  0.00  0.00     0.022 A 
ENDROOT
BRANCH   1   7
HETATM    7  C   UNL     1       7.399  11.240  21.235  0.00  0.00     0.029 A 
HETATM    8  C   UNL     1       7.453  10.482  22.414  0.00  0.00     0.026 A 
HETATM    9  C   UNL     1       6.972   9.163  22.462  0.00  0.00    -0.024 A 
HETATM   10  C   UNL     1       6.368   8.633  21.317  0.00  0.00     0.074 A 
HETATM   11  C   UNL     1       6.244   9.390  20.153  0.00  0.00     0.074 A 
HETATM   12  C   UNL     1       6.752  10.685  20.121  0.00  0.00     0.081 A 
BRANCH   9  13
HETATM   13  C   UNL     1       7.157   8.356  23.726  0.00  0.00     0.041 C 
BRANCH  13  14
HETATM   14  C   UNL     1       8.566   7.781  23.897  0.00  0.00     0.000 C 
HETATM   15  C   UNL     1       8.589   6.259  23.903  0.00  0.00     0.005 C 
ENDBRANCH  13  14
ENDBRANCH   9  13
BRANCH  10  16
HETATM   16  O   UNL     1       5.886   7.355  21.352  0.00  0.00    -0.360 OA
HETATM   17  H   UNL     1       5.712   7.065  20.441  0.00  0.00     0.217 HD
ENDBRANCH  10  16
BRANCH  12  18
HETATM   18  O   UNL     1       6.594  11.380  18.947  0.00  0.00    -0.360 OA
HETATM   19  H   UNL     1       7.158  10.919  18.283  0.00  0.00     0.217 HD
ENDBRANCH  12  18
ENDBRANCH   1   7
BRANCH   6  20
HETATM   20  C   UNL     1       6.378  14.237  22.373  0.00  0.00    -0.019 A 
HETATM   21  C   UNL     1       6.337  15.439  23.097  0.00  0.00     0.015 A 
HETATM   22  C   UNL     1       5.171  15.834  23.765  0.00  0.00     0.040 A 
HETATM   23  C   UNL     1       4.027  15.045  23.697  0.00  0.00     0.102 A 
HETATM   24  C   UNL     1       4.062  13.836  23.001  0.00  0.00     0.102 A 
HETATM   25  O   UNL     1       2.912  15.508  24.344  0.00  0.00    -0.346 OA
HETATM   26  C   UNL     1       5.232  13.430  22.359  0.00  0.00     0.052 A 
HETATM   27  O   UNL     1       2.981  13.001  22.887  0.00  0.00    -0.346 OA
HETATM   28  C   UNL     1       1.981  13.309  23.862  0.00  0.00     0.202 C 
HETATM   29  C   UNL     1       1.732  14.807  23.932  0.00  0.00     0.202 C 
ENDBRANCH   6  20
TORSDOF 6
ENDMDL
MODEL 6
REMARK VINA RESULT:    -7.183      2.937      4.607
REMARK INTER + INTRA:         -10.657
REMARK INTER:                  -9.445
REMARK INTRA:                  -1.213
REMARK UNBOUND:                -1.375
REMARK  6 active torsions:
REMARK  status: ('A' for Active; 'I' for Inactive)
REMARK    1  A    between atoms: C_2  and  C_3 
REMARK    2  A    between atoms: C_3  and  C_4 
REMARK    3  A    between atoms: C_6  and  C_7 
REMARK    4  A    between atoms: C_12  and  C_13 
REMARK    5  A    between atoms: C_23  and  O_24 
REMARK    6  A    between atoms: C_26  and  O_27 
ROOT
HETATM    1  C   UNL     1       3.533  13.204  22.642  0.00  0.00     0.102 A 
HETATM    2  N   UNL     1       2.202  13.399  22.543  0.00  0.00    -0.174 NA
HETATM    3  N   UNL     1       1.986  14.563  23.170  0.00  0.00    -0.288 N 
HETATM    4  H   UNL     1       1.031  14.899  23.248  0.00  0.00     0.188 HD
HETATM    5  C   UNL     1       3.122  15.168  23.609  0.00  0.00     0.124 A 
HETATM    6  C   UNL     1       4.167  14.333  23.269  0.00  0.00     0.022 A 
ENDROOT
BRANCH   1   7
HETATM    7  C   UNL     1       4.131  11.982  22.087  0.00  0.00     0.029 A 
HETATM    8  C   UNL     1       4.715  11.999  20.813  0.00  0.00     0.026 A 
HETATM    9  C   UNL     1       5.164  10.819  20.195  0.00  0.00    -0.024 A 
HETATM   10  C   UNL     1       5.080   9.620  20.910  0.00  0.00     0.074 A 
HETATM   11  C   UNL     1       4.564   9.589  22.205  0.00  0.00     0.074 A 
HETATM   12  C   UNL     1       4.100  10.766  22.786  0.00  0.00     0.081 A 
BRANCH   9  13
HETATM   13  C   UNL     1       5.682  10.880  18.777  0.00  0.00     0.041 C 
BRANCH  13  14
HETATM   14  C   UNL     1       4.645  10.496  17.717  0.00  0.00     0.000 C 
HETATM   15  C   UNL     1       3.660  11.616  17.417  0.00  0.00     0.005 C 
ENDBRANCH  13  14
ENDBRANCH   9  13
BRANCH  10  16
HETATM   16  O   UNL     1       5.522   8.466  20.326  0.00  0.00    -0.360 OA
HETATM   17  H   UNL     1       4.816   7.802  20.380  0.00  0.00     0.217 HD
ENDBRANCH  10  16
BRANCH  12  18
HETATM   18  O   UNL     1       3.609  10.670  24.063  0.00  0.00    -0.360 OA
HETATM   19  H   UNL     1       3.600   9.707  24.277  0.00  0.00     0.217 HD
ENDBRANCH  12  18
ENDBRANCH   1   7
BRANCH   6  20
HETATM   20  C   UNL     1       5.570  14.672  23.509  0.00  0.00    -0.019 A 
HETATM   21  C   UNL     1       6.076  14.790  24.813  0.00  0.00     0.015 A 
HETATM   22  C   UNL     1       7.427  15.083  25.034  0.00  0.00     0.040 A 
HETATM   23  C   UNL     1       8.292  15.237  23.955  0.00  0.00     0.102 A 
HETATM   24  C   UNL     1       7.797  15.146  22.654  0.00  0.00     0.102 A 
HETATM   25  O   UNL     1       9.608  15.488  24.243  0.00  0.00    -0.346 OA
HETATM   26  C   UNL     1       6.445  14.882  22.435  0.00  0.00     0.052 A 
HETATM   27  O   UNL     1       8.581  15.287  21.538  0.00  0.00    -0.346 OA
HETATM   28  C   UNL     1       9.828  15.911  21.854  0.00  0.00     0.202 C 
HETATM   29  C   UNL     1      10.446  15.292  23.097  0.00  0.00     0.202 C 
ENDBRANCH   6  20
TORSDOF 6
ENDMDL
MODEL 7
REMARK VINA RESULT:    -7.134      2.820      6.216
REMARK INTER + INTRA:         -10.594
REMARK INTER:                  -9.646
REMARK INTRA:                  -0.948
REMARK UNBOUND:                -1.375
REMARK  6 active torsions:
REMARK  status: ('A' for Active; 'I' for Inactive)
REMARK    1  A    between atoms: C_2  and  C_3 
REMARK    2  A    between atoms: C_3  and  C_4 
REMARK    3  A    between atoms: C_6  and  C_7 
REMARK    4  A    between atoms: C_12  and  C_13 
REMARK    5  A    between atoms: C_23  and  O_24 
REMARK    6  A    between atoms: C_26  and  O_27 
ROOT
HETATM    1  C   UNL     1       7.891  10.744  22.738  0.00  0.00     0.102 A 
HETATM    2  N   UNL     1       8.496  10.171  23.798  0.00  0.00    -0.174 NA
HETATM    3  N   UNL     1       7.956   8.947  23.871  0.00  0.00    -0.288 N 
HETATM    4  H   UNL     1       8.246   8.337  24.629  0.00  0.00     0.188 HD
HETATM    5  C   UNL     1       7.082   8.673  22.866  0.00  0.00     0.124 A 
HETATM    6  C   UNL     1       7.019   9.806  22.082  0.00  0.00     0.022 A 
ENDROOT
BRANCH   1   7
HETATM    7  C   UNL     1       8.217  12.131  22.377  0.00  0.00     0.029 A 
HETATM    8  C   UNL     1       7.509  13.194  22.956  0.00  0.00     0.026 A 
HETATM    9  C   UNL     1       7.695  14.520  22.527  0.00  0.00    -0.024 A 
HETATM   10  C   UNL     1       8.659  14.773  21.546  0.00  0.00     0.074 A 
HETATM   11  C   UNL     1       9.421  13.739  21.002  0.00  0.00     0.074 A 
HETATM   12  C   UNL     1       9.200  12.431  21.424  0.00  0.00     0.081 A 
BRANCH   9  13
HETATM   13  C   UNL     1       6.826  15.611  23.108  0.00  0.00     0.041 C 
BRANCH  13  14
HETATM   14  C   UNL     1       5.339  15.253  23.179  0.00  0.00     0.000 C 
HETATM   15  C   UNL     1       4.574  16.090  24.195  0.00  0.00     0.005 C 
ENDBRANCH  13  14
ENDBRANCH   9  13
BRANCH  10  16
HETATM   16  O   UNL     1       8.857  16.058  21.126  0.00  0.00    -0.360 OA
HETATM   17  H   UNL     1       9.579  16.446  21.647  0.00  0.00     0.217 HD
ENDBRANCH  10  16
BRANCH  12  18
HETATM   18  O   UNL     1       9.986  11.461  20.854  0.00  0.00    -0.360 OA
HETATM   19  H   UNL     1       9.671  10.605  21.229  0.00  0.00     0.217 HD
ENDBRANCH  12  18
ENDBRANCH   1   7
BRANCH   6  20
HETATM   20  C   UNL     1       6.234   9.881  20.849  0.00  0.00    -0.019 A 
HETATM   21  C   UNL     1       6.226  11.044  20.064  0.00  0.00     0.015 A 
HETATM   22  C   UNL     1       5.497  11.097  18.869  0.00  0.00     0.040 A 
HETATM   23  C   UNL     1       4.789   9.981  18.434  0.00  0.00     0.102 A 
HETATM   24  C   UNL     1       4.771   8.826  19.218  0.00  0.00     0.102 A 
HETATM   25  O   UNL     1       4.128  10.089  17.239  0.00  0.00    -0.346 OA
HETATM   26  C   UNL     1       5.474   8.784  20.422  0.00  0.00     0.052 A 
HETATM   27  O   UNL     1       4.098   7.686  18.863  0.00  0.00    -0.346 OA
HETATM   28  C   UNL     1       3.134   7.947  17.840  0.00  0.00     0.202 C 
HETATM   29  C   UNL     1       3.730   8.807  16.738  0.00  0.00     0.202 C 
ENDBRANCH   6  20
TORSDOF 6
ENDMDL
MODEL 8
REMARK VINA RESULT:    -6.988      2.846      4.641
REMARK INTER + INTRA:         -10.405
REMARK INTER:                  -9.071
REMARK INTRA:                  -1.334
REMARK UNBOUND:                -1.375
REMARK  6 active torsions:
REMARK  status: ('A' for Active; 'I' for Inactive)
REMARK    1  A    between atoms: C_2  and  C_3 
REMARK    2  A    between atoms: C_3  and  C_4 
REMARK    3  A    between atoms: C_6  and  C_7 
REMARK    4  A    between atoms: C_12  and  C_13 
REMARK    5  A    between atoms: C_23  and  O_24 
REMARK    6  A    between atoms: C_26  and  O_27 
ROOT
HETATM    1  C   UNL     1       7.657  10.629  23.047  0.00  0.00     0.102 A 
HETATM    2  N   UNL     1       8.314   9.454  22.967  0.00  0.00    -0.174 NA
HETATM    3  N   UNL     1       7.423   8.543  23.382  0.00  0.00    -0.288 N 
HETATM    4  H   UNL     1       7.716   7.572  23.436  0.00  0.00     0.188 HD
HETATM    5  C   UNL     1       6.198   9.062  23.660  0.00  0.00     0.124 A 
HETATM    6  C   UNL     1       6.288  10.420  23.435  0.00  0.00     0.022 A 
ENDROOT
BRANCH   1   7
HETATM    7  C   UNL     1       8.353  11.875  22.698  0.00  0.00     0.029 A 
HETATM    8  C   UNL     1       7.779  13.115  23.015  0.00  0.00     0.026 A 
HETATM    9  C   UNL     1       8.345  14.321  22.568  0.00  0.00    -0.024 A 
HETATM   10  C   UNL     1       9.544  14.268  21.850  0.00  0.00     0.074 A 
HETATM   11  C   UNL     1      10.167  13.051  21.579  0.00  0.00     0.074 A 
HETATM   12  C   UNL     1       9.574  11.867  22.008  0.00  0.00     0.081 A 
BRANCH   9  13
HETATM   13  C   UNL     1       7.624  15.620  22.844  0.00  0.00     0.041 C 
BRANCH  13  14
HETATM   14  C   UNL     1       6.595  15.534  23.975  0.00  0.00     0.000 C 
HETATM   15  C   UNL     1       5.210  16.005  23.554  0.00  0.00     0.005 C 
ENDBRANCH  13  14
ENDBRANCH   9  13
BRANCH  10  16
HETATM   16  O   UNL     1      10.111  15.434  21.417  0.00  0.00    -0.360 OA
HETATM   17  H   UNL     1       9.861  16.145  22.029  0.00  0.00     0.217 HD
ENDBRANCH  10  16
BRANCH  12  18
HETATM   18  O   UNL     1      10.240  10.703  21.715  0.00  0.00    -0.360 OA
HETATM   19  H   UNL     1      10.372  10.243  22.577  0.00  0.00     0.217 HD
ENDBRANCH  12  18
ENDBRANCH   1   7
BRANCH   6  20
HETATM   20  C   UNL     1       5.145  11.326  23.555  0.00  0.00    -0.019 A 
HETATM   21  C   UNL     1       4.862  11.983  24.762  0.00  0.00     0.015 A 
HETATM   22  C   UNL     1       3.785  12.873  24.860  0.00  0.00     0.040 A 
HETATM   23  C   UNL     1       2.995  13.135  23.745  0.00  0.00     0.102 A 
HETATM   24  C   UNL     1       3.251  12.471  22.545  0.00  0.00     0.102 A 
HETATM   25  O   UNL     1       1.981  14.043  23.900  0.00  0.00    -0.346 OA
HETATM   26  C   UNL     1       4.307  11.563  22.456  0.00  0.00     0.052 A 
HETATM   27  O   UNL     1       2.521  12.671  21.402  0.00  0.00    -0.346 OA
HETATM   28  C   UNL     1       1.272  13.308  21.688  0.00  0.00     0.202 C 
HETATM   29  C   UNL     1       1.465  14.479  22.637  0.00  0.00     0.202 C 
ENDBRANCH   6  20
TORSDOF 6
ENDMDL
MODEL 9
REMARK VINA RESULT:    -6.985      3.003      5.526
REMARK INTER + INTRA:         -10.401
REMARK INTER:                  -9.027
REMARK INTRA:                  -1.375
REMARK UNBOUND:                -1.375
REMARK  6 active torsions:
REMARK  status: ('A' for Active; 'I' for Inactive)
REMARK    1  A    between atoms: C_2  and  C_3 
REMARK    2  A    between atoms: C_3  and  C_4 
REMARK    3  A    between atoms: C_6  and  C_7 
REMARK    4  A    between atoms: C_12  and  C_13 
REMARK    5  A    between atoms: C_23  and  O_24 
REMARK    6  A    between atoms: C_26  and  O_27 
ROOT
HETATM    1  C   UNL     1       6.785  11.390  20.359  0.00  0.00     0.102 A 
HETATM    2  N   UNL     1       7.073  11.325  19.043  0.00  0.00    -0.174 NA
HETATM    3  N   UNL     1       6.367  10.276  18.598  0.00  0.00    -0.288 N 
HETATM    4  H   UNL     1       6.457  10.015  17.621  0.00  0.00     0.188 HD
HETATM    5  C   UNL     1       5.581   9.701  19.547  0.00  0.00     0.124 A 
HETATM    6  C   UNL     1       5.797  10.405  20.713  0.00  0.00     0.022 A 
ENDROOT
BRANCH   1   7
HETATM    7  C   UNL     1       7.424  12.417  21.192  0.00  0.00     0.029 A 
HETATM    8  C   UNL     1       6.648  13.415  21.800  0.00  0.00     0.026 A 
HETATM    9  C   UNL     1       7.239  14.493  22.481  0.00  0.00    -0.024 A 
HETATM   10  C   UNL     1       8.633  14.519  22.602  0.00  0.00     0.074 A 
HETATM   11  C   UNL     1       9.421  13.504  22.062  0.00  0.00     0.074 A 
HETATM   12  C   UNL     1       8.814  12.461  21.369  0.00  0.00     0.081 A 
BRANCH   9  13
HETATM   13  C   UNL     1       6.360  15.597  23.020  0.00  0.00     0.041 C 
BRANCH  13  14
HETATM   14  C   UNL     1       4.948  15.139  23.401  0.00  0.00     0.000 C 
HETATM   15  C   UNL     1       4.336  15.971  24.519  0.00  0.00     0.005 C 
ENDBRANCH  13  14
ENDBRANCH   9  13
BRANCH  10  16
HETATM   16  O   UNL     1       9.221  15.556  23.270  0.00  0.00    -0.360 OA
HETATM   17  H   UNL     1      10.180  15.514  23.122  0.00  0.00     0.217 HD
ENDBRANCH  10  16
BRANCH  12  18
HETATM   18  O   UNL     1       9.645  11.490  20.867  0.00  0.00    -0.360 OA
HETATM   19  H   UNL     1      10.505  11.602  21.335  0.00  0.00     0.217 HD
ENDBRANCH  12  18
ENDBRANCH   1   7
BRANCH   6  20
HETATM   20  C   UNL     1       5.071  10.135  21.955  0.00  0.00    -0.019 A 
HETATM   21  C   UNL     1       4.064  10.999  22.410  0.00  0.00     0.015 A 
HETATM   22  C   UNL     1       3.353  10.717  23.583  0.00  0.00     0.040 A 
HETATM   23  C   UNL     1       3.624   9.555  24.299  0.00  0.00     0.102 A 
HETATM   24  C   UNL     1       4.639   8.699  23.870  0.00  0.00     0.102 A 
HETATM   25  O   UNL     1       2.867   9.322  25.417  0.00  0.00    -0.346 OA
HETATM   26  C   UNL     1       5.366   8.996  22.717  0.00  0.00     0.052 A 
HETATM   27  O   UNL     1       4.969   7.537  24.518  0.00  0.00    -0.346 OA
HETATM   28  C   UNL     1       4.445   7.517  25.849  0.00  0.00     0.202 C 
HETATM   29  C   UNL     1       2.994   7.968  25.869  0.00  0.00     0.202 C 
ENDBRANCH   6  20
TORSDOF 6
ENDMDL
