REMARK  6 active torsions:
REMARK  status: ('A' for Active; 'I' for Inactive)
REMARK    1  A    between atoms: C_2  and  C_3 
REMARK    2  A    between atoms: C_3  and  C_4 
REMARK    3  A    between atoms: C_6  and  C_7 
REMARK    4  A    between atoms: C_12  and  C_13 
REMARK    5  A    between atoms: C_23  and  O_24 
REMARK    6  A    between atoms: C_26  and  O_27 
ROOT
HETATM    1  C   UNL     1       7.338   0.796   1.591  0.00  0.00     0.102 A 
HETATM    2  N   UNL     1       7.830   1.814   2.326  0.00  0.00    -0.174 NA
HETATM    3  N   UNL     1       8.363   1.222   3.404  0.00  0.00    -0.288 N 
HETATM    4  H   UNL     1       8.771   1.810   4.124  0.00  0.00     0.188 HD
HETATM    5  C   UNL     1       8.303  -0.136   3.369  0.00  0.00     0.124 A 
HETATM    6  C   UNL     1       7.663  -0.470   2.193  0.00  0.00     0.022 A 
ENDROOT
BRANCH   1   7
HETATM    7  C   UNL     1       6.635   1.082   0.333  0.00  0.00     0.029 A 
HETATM    8  C   UNL     1       5.575   0.264  -0.084  0.00  0.00     0.026 A 
HETATM    9  C   UNL     1       4.979   0.421  -1.347  0.00  0.00    -0.024 A 
HETATM   10  C   UNL     1       5.421   1.465  -2.166  0.00  0.00     0.074 A 
HETATM   11  C   UNL     1       6.429   2.332  -1.746  0.00  0.00     0.074 A 
HETATM   12  C   UNL     1       7.023   2.140  -0.502  0.00  0.00     0.081 A 
BRANCH   9  13
HETATM   13  C   UNL     1       3.917  -0.559  -1.788  0.00  0.00     0.041 C 
BRANCH  13  14
HETATM   14  C   UNL     1       2.664  -0.559  -0.907  0.00  0.00     0.000 C 
HETATM   15  C   UNL     1       1.952   0.786  -0.888  0.00  0.00     0.005 C 
ENDBRANCH  13  14
ENDBRANCH   9  13
BRANCH  10  16
HETATM   16  O   UNL     1       4.844   1.636  -3.393  0.00  0.00    -0.360 OA
HETATM   17  H   UNL     1       5.236   2.419  -3.813  0.00  0.00     0.217 HD
ENDBRANCH  10  16
BRANCH  12  18
HETATM   18  O   UNL     1       8.005   3.030  -0.145  0.00  0.00    -0.360 OA
HETATM   19  H   UNL     1       8.179   2.870   0.812  0.00  0.00     0.217 HD
ENDBRANCH  12  18
ENDBRANCH   1   7
BRANCH   6  20
HETATM   20  C   UNL     1       7.470  -1.852   1.754  0.00  0.00    -0.019 A 
HETATM   21  C   UNL     1       7.214  -2.878   2.677  0.00  0.00     0.015 A 
HETATM   22  C   UNL     1       6.999  -4.193   2.246  0.00  0.00     0.040 A 
HETATM   23  C   UNL     1       7.013  -4.492   0.887  0.00  0.00     0.102 A 
HETATM   24  C   UNL     1       7.290  -3.486  -0.039  0.00  0.00     0.102 A 
HETATM   25  O   UNL     1       6.760  -5.791   0.533  0.00  0.00    -0.346 OA
HETATM   26  C   UNL     1       7.532  -2.182   0.393  0.00  0.00     0.052 A 
HETATM   27  O   UNL     1       7.324  -3.697  -1.393  0.00  0.00    -0.346 OA
HETATM   28  C   UNL     1       7.437  -5.089  -1.700  0.00  0.00     0.202 C 
HETATM   29  C   UNL     1       6.468  -5.910  -0.865  0.00  0.00     0.202 C 
ENDBRANCH   6  20
TORSDOF 6
