MODEL 1
REMARK VINA RESULT:    -8.429      0.000      0.000
REMARK INTER + INTRA:         -11.116
REMARK INTER:                  -9.546
REMARK INTRA:                  -1.570
REMARK UNBOUND:                -0.716
REMARK  5 active torsions:
REMARK  status: ('A' for Active; 'I' for Inactive)
REMARK    1  A    between atoms: C_2  and  C_4 
REMARK    2  A    between atoms: C_6  and  C_12 
REMARK    3  A    between atoms: C_7  and  O_8 
REMARK    4  A    between atoms: C_10  and  O_11 
REMARK    5  A    between atoms: N_17  and  C_18 
ROOT
HETATM    1  C   UNL     1      -1.115  14.307  25.431  0.00  0.00     0.171 A 
HETATM    2  N   UNL     1      -1.755  14.309  26.576  0.00  0.00    -0.151 NA
HETATM    3  N   UNL     1      -1.007  15.125  27.377  0.00  0.00    -0.226 N 
HETATM    4  C   UNL     1       0.126  15.580  26.704  0.00  0.00     0.349 A 
HETATM    5  O   UNL     1       1.016  16.249  27.204  0.00  0.00    -0.245 OA
HETATM    6  N   UNL     1       0.012  15.088  25.424  0.00  0.00    -0.244 N 
HETATM    7  H   UNL     1      -1.218  15.303  28.348  0.00  0.00     0.194 HD
ENDROOT
BRANCH   1   8
HETATM    8  C   UNL     1      -1.605  13.529  24.275  0.00  0.00     0.046 A 
HETATM    9  C   UNL     1      -2.084  14.172  23.132  0.00  0.00     0.028 A 
HETATM   10  C   UNL     1      -2.447  13.462  21.975  0.00  0.00    -0.021 A 
HETATM   11  C   UNL     1      -2.344  12.065  22.009  0.00  0.00     0.075 A 
HETATM   12  C   UNL     1      -1.974  11.397  23.174  0.00  0.00     0.074 A 
HETATM   13  C   UNL     1      -1.624  12.129  24.309  0.00  0.00     0.082 A 
BRANCH  10  14
HETATM   14  C   UNL     1      -2.918  14.221  20.749  0.00  0.00     0.013 C 
HETATM   15  C   UNL     1      -4.446  14.374  20.749  0.00  0.00     0.015 C 
HETATM   16  C   UNL     1      -2.244  15.597  20.661  0.00  0.00     0.015 C 
ENDBRANCH  10  14
BRANCH  11  17
HETATM   17  O   UNL     1      -2.616  11.353  20.875  0.00  0.00    -0.360 OA
HETATM   18  H   UNL     1      -3.558  11.461  20.663  0.00  0.00     0.217 HD
ENDBRANCH  11  17
BRANCH  13  19
HETATM   19  O   UNL     1      -1.313  11.400  25.427  0.00  0.00    -0.360 OA
HETATM   20  H   UNL     1      -0.378  11.111  25.350  0.00  0.00     0.217 HD
ENDBRANCH  13  19
ENDBRANCH   1   8
BRANCH   6  21
HETATM   21  C   UNL     1       1.074  15.162  24.508  0.00  0.00     0.046 A 
HETATM   22  C   UNL     1       0.965  15.925  23.338  0.00  0.00     0.044 A 
HETATM   23  C   UNL     1       1.974  15.818  22.353  0.00  0.00    -0.006 A 
HETATM   24  C   UNL     1       2.120  16.330  21.033  0.00  0.00     0.031 A 
HETATM   25  C   UNL     1       3.096  15.023  22.608  0.00  0.00     0.044 A 
HETATM   26  C   UNL     1       3.302  15.845  20.519  0.00  0.00     0.091 A 
HETATM   27  N   UNL     1       3.916  15.113  21.501  0.00  0.00    -0.360 N 
HETATM   28  C   UNL     1       5.220  14.499  21.372  0.00  0.00     0.155 C 
HETATM   29  C   UNL     1       3.243  14.304  23.802  0.00  0.00     0.033 A 
HETATM   30  C   UNL     1       2.193  14.352  24.723  0.00  0.00     0.032 A 
ENDBRANCH   6  21
TORSDOF 5
ENDMDL
MODEL 2
REMARK VINA RESULT:    -8.277      3.256      6.731
REMARK INTER + INTRA:         -10.929
REMARK INTER:                  -9.509
REMARK INTRA:                  -1.420
REMARK UNBOUND:                -0.716
REMARK  5 active torsions:
REMARK  status: ('A' for Active; 'I' for Inactive)
REMARK    1  A    between atoms: C_2  and  C_4 
REMARK    2  A    between atoms: C_6  and  C_12 
REMARK    3  A    between atoms: C_7  and  O_8 
REMARK    4  A    between atoms: C_10  and  O_11 
REMARK    5  A    between atoms: N_17  and  C_18 
ROOT
HETATM    1  C   UNL     1      -2.962  13.090  24.772  0.00  0.00     0.171 A 
HETATM    2  N   UNL     1      -3.857  13.709  24.040  0.00  0.00    -0.151 NA
HETATM    3  N   UNL     1      -4.694  12.713  23.623  0.00  0.00    -0.226 N 
HETATM    4  C   UNL     1      -4.260  11.472  24.082  0.00  0.00     0.349 A 
HETATM    5  O   UNL     1      -4.764  10.400  23.787  0.00  0.00    -0.245 OA
HETATM    6  N   UNL     1      -3.168  11.738  24.876  0.00  0.00    -0.244 N 
HETATM    7  H   UNL     1      -5.476  12.864  23.000  0.00  0.00     0.194 HD
ENDROOT
BRANCH   1   8
HETATM    8  C   UNL     1      -1.855  13.822  25.421  0.00  0.00     0.046 A 
HETATM    9  C   UNL     1      -0.693  14.134  24.713  0.00  0.00     0.028 A 
HETATM   10  C   UNL     1       0.325  14.930  25.267  0.00  0.00    -0.021 A 
HETATM   11  C   UNL     1       0.155  15.382  26.582  0.00  0.00     0.075 A 
HETATM   12  C   UNL     1      -0.943  14.990  27.344  0.00  0.00     0.074 A 
HETATM   13  C   UNL     1      -1.936  14.197  26.768  0.00  0.00     0.082 A 
BRANCH  10  14
HETATM   14  C   UNL     1       1.544  15.272  24.431  0.00  0.00     0.013 C 
HETATM   15  C   UNL     1       2.395  14.022  24.162  0.00  0.00     0.015 C 
HETATM   16  C   UNL     1       1.137  15.935  23.109  0.00  0.00     0.015 C 
ENDBRANCH  10  14
BRANCH  11  17
HETATM   17  O   UNL     1       1.092  16.219  27.121  0.00  0.00    -0.360 OA
HETATM   18  H   UNL     1       0.956  16.255  28.082  0.00  0.00     0.217 HD
ENDBRANCH  11  17
BRANCH  13  19
HETATM   19  O   UNL     1      -2.963  13.819  27.594  0.00  0.00    -0.360 OA
HETATM   20  H   UNL     1      -3.018  14.470  28.327  0.00  0.00     0.217 HD
ENDBRANCH  13  19
ENDBRANCH   1   8
BRANCH   6  21
HETATM   21  C   UNL     1      -2.331  10.713  25.347  0.00  0.00     0.046 A 
HETATM   22  C   UNL     1      -2.235  10.433  26.717  0.00  0.00     0.044 A 
HETATM   23  C   UNL     1      -1.242   9.532  27.164  0.00  0.00    -0.006 A 
HETATM   24  C   UNL     1      -0.789   9.126  28.451  0.00  0.00     0.031 A 
HETATM   25  C   UNL     1      -0.439   8.877  26.224  0.00  0.00     0.044 A 
HETATM   26  C   UNL     1       0.261   8.252  28.274  0.00  0.00     0.091 A 
HETATM   27  N   UNL     1       0.419   8.056  26.928  0.00  0.00    -0.360 N 
HETATM   28  C   UNL     1       1.376   7.144  26.338  0.00  0.00     0.155 C 
HETATM   29  C   UNL     1      -0.569   9.105  24.848  0.00  0.00     0.033 A 
HETATM   30  C   UNL     1      -1.494  10.066  24.432  0.00  0.00     0.032 A 
ENDBRANCH   6  21
TORSDOF 5
ENDMDL
MODEL 3
REMARK VINA RESULT:    -8.190      2.795      4.814
REMARK INTER + INTRA:         -10.822
REMARK INTER:                  -9.424
REMARK INTRA:                  -1.398
REMARK UNBOUND:                -0.716
REMARK  5 active torsions:
REMARK  status: ('A' for Active; 'I' for Inactive)
REMARK    1  A    between atoms: C_2  and  C_4 
REMARK    2  A    between atoms: C_6  and  C_12 
REMARK    3  A    between atoms: C_7  and  O_8 
REMARK    4  A    between atoms: C_10  and  O_11 
REMARK    5  A    between atoms: N_17  and  C_18 
ROOT
HETATM    1  C   UNL     1      -3.599  12.546  23.082  0.00  0.00     0.171 A 
HETATM    2  N   UNL     1      -4.888  12.652  22.864  0.00  0.00    -0.151 NA
HETATM    3  N   UNL     1      -4.974  13.399  21.723  0.00  0.00    -0.226 N 
HETATM    4  C   UNL     1      -3.709  13.781  21.281  0.00  0.00     0.349 A 
HETATM    5  O   UNL     1      -3.490  14.527  20.340  0.00  0.00    -0.245 OA
HETATM    6  N   UNL     1      -2.823  13.171  22.140  0.00  0.00    -0.244 N 
HETATM    7  H   UNL     1      -5.848  13.693  21.310  0.00  0.00     0.194 HD
ENDROOT
BRANCH   1   8
HETATM    8  C   UNL     1      -3.072  11.800  24.244  0.00  0.00     0.046 A 
HETATM    9  C   UNL     1      -1.938  10.995  24.121  0.00  0.00     0.028 A 
HETATM   10  C   UNL     1      -1.347  10.368  25.231  0.00  0.00    -0.021 A 
HETATM   11  C   UNL     1      -1.954  10.548  26.480  0.00  0.00     0.075 A 
HETATM   12  C   UNL     1      -3.148  11.255  26.608  0.00  0.00     0.074 A 
HETATM   13  C   UNL     1      -3.714  11.863  25.487  0.00  0.00     0.082 A 
BRANCH  10  14
HETATM   14  C   UNL     1      -0.089   9.542  25.040  0.00  0.00     0.013 C 
HETATM   15  C   UNL     1      -0.423   8.048  24.923  0.00  0.00     0.015 C 
HETATM   16  C   UNL     1       0.697  10.011  23.809  0.00  0.00     0.015 C 
ENDBRANCH  10  14
BRANCH  11  17
HETATM   17  O   UNL     1      -1.360  10.014  27.589  0.00  0.00    -0.360 OA
HETATM   18  H   UNL     1      -1.912  10.217  28.362  0.00  0.00     0.217 HD
ENDBRANCH  11  17
BRANCH  13  19
HETATM   19  O   UNL     1      -4.909  12.504  25.684  0.00  0.00    -0.360 OA
HETATM   20  H   UNL     1      -4.726  13.464  25.785  0.00  0.00     0.217 HD
ENDBRANCH  13  19
ENDBRANCH   1   8
BRANCH   6  21
HETATM   21  C   UNL     1      -1.456  13.491  22.140  0.00  0.00     0.046 A 
HETATM   22  C   UNL     1      -0.978  14.610  22.835  0.00  0.00     0.044 A 
HETATM   23  C   UNL     1       0.366  15.009  22.650  0.00  0.00    -0.006 A 
HETATM   24  C   UNL     1       1.128  16.132  23.080  0.00  0.00     0.031 A 
HETATM   25  C   UNL     1       1.207  14.230  21.849  0.00  0.00     0.044 A 
HETATM   26  C   UNL     1       2.391  16.018  22.542  0.00  0.00     0.091 A 
HETATM   27  N   UNL     1       2.448  14.834  21.858  0.00  0.00    -0.360 N 
HETATM   28  C   UNL     1       3.636  14.317  21.211  0.00  0.00     0.155 C 
HETATM   29  C   UNL     1       0.754  13.074  21.198  0.00  0.00     0.033 A 
HETATM   30  C   UNL     1      -0.600  12.748  21.321  0.00  0.00     0.032 A 
ENDBRANCH   6  21
TORSDOF 5
ENDMDL
MODEL 4
REMARK VINA RESULT:    -8.190      2.911      5.020
REMARK INTER + INTRA:         -10.821
REMARK INTER:                  -9.682
REMARK INTRA:                  -1.139
REMARK UNBOUND:                -0.716
REMARK  5 active torsions:
REMARK  status: ('A' for Active; 'I' for Inactive)
REMARK    1  A    between atoms: C_2  and  C_4 
REMARK    2  A    between atoms: C_6  and  C_12 
REMARK    3  A    between atoms: C_7  and  O_8 
REMARK    4  A    between atoms: C_10  and  O_11 
REMARK    5  A    between atoms: N_17  and  C_18 
ROOT
HETATM    1  C   UNL     1      -4.322  13.427  22.498  0.00  0.00     0.171 A 
HETATM    2  N   UNL     1      -5.596  13.414  22.182  0.00  0.00    -0.151 NA
HETATM    3  N   UNL     1      -5.629  13.891  20.903  0.00  0.00    -0.226 N 
HETATM    4  C   UNL     1      -4.351  14.237  20.467  0.00  0.00     0.349 A 
HETATM    5  O   UNL     1      -4.095  14.773  19.401  0.00  0.00    -0.245 OA
HETATM    6  N   UNL     1      -3.506  13.875  21.492  0.00  0.00    -0.244 N 
HETATM    7  H   UNL     1      -6.482  14.041  20.383  0.00  0.00     0.194 HD
ENDROOT
BRANCH   1   8
HETATM    8  C   UNL     1      -3.851  12.979  23.824  0.00  0.00     0.046 A 
HETATM    9  C   UNL     1      -2.835  13.666  24.491  0.00  0.00     0.028 A 
HETATM   10  C   UNL     1      -2.448  13.334  25.801  0.00  0.00    -0.021 A 
HETATM   11  C   UNL     1      -3.096  12.257  26.418  0.00  0.00     0.075 A 
HETATM   12  C   UNL     1      -4.033  11.487  25.731  0.00  0.00     0.074 A 
HETATM   13  C   UNL     1      -4.395  11.839  24.430  0.00  0.00     0.082 A 
BRANCH  10  14
HETATM   14  C   UNL     1      -1.368  14.148  26.490  0.00  0.00     0.013 C 
HETATM   15  C   UNL     1      -0.715  15.135  25.512  0.00  0.00     0.015 C 
HETATM   16  C   UNL     1      -1.933  14.895  27.705  0.00  0.00     0.015 C 
ENDBRANCH  10  14
BRANCH  11  17
HETATM   17  O   UNL     1      -2.794  11.958  27.717  0.00  0.00    -0.360 OA
HETATM   18  H   UNL     1      -3.509  12.292  28.284  0.00  0.00     0.217 HD
ENDBRANCH  11  17
BRANCH  13  19
HETATM   19  O   UNL     1      -5.290  11.010  23.806  0.00  0.00    -0.360 OA
HETATM   20  H   UNL     1      -6.184  11.405  23.899  0.00  0.00     0.217 HD
ENDBRANCH  13  19
ENDBRANCH   1   8
BRANCH   6  21
HETATM   21  C   UNL     1      -2.156  14.263  21.505  0.00  0.00     0.046 A 
HETATM   22  C   UNL     1      -1.134  13.319  21.335  0.00  0.00     0.044 A 
HETATM   23  C   UNL     1       0.206  13.715  21.550  0.00  0.00    -0.006 A 
HETATM   24  C   UNL     1       1.445  13.015  21.591  0.00  0.00     0.031 A 
HETATM   25  C   UNL     1       0.486  15.055  21.840  0.00  0.00     0.044 A 
HETATM   26  C   UNL     1       2.434  13.922  21.901  0.00  0.00     0.091 A 
HETATM   27  N   UNL     1       1.855  15.160  21.982  0.00  0.00    -0.360 N 
HETATM   28  C   UNL     1       2.580  16.391  22.218  0.00  0.00     0.155 C 
HETATM   29  C   UNL     1      -0.525  16.019  21.951  0.00  0.00     0.033 A 
HETATM   30  C   UNL     1      -1.849  15.589  21.825  0.00  0.00     0.032 A 
ENDBRANCH   6  21
TORSDOF 5
ENDMDL
MODEL 5
REMARK VINA RESULT:    -8.120      3.544      6.366
REMARK INTER + INTRA:         -10.735
REMARK INTER:                  -9.421
REMARK INTRA:                  -1.314
REMARK UNBOUND:                -0.716
REMARK  5 active torsions:
REMARK  status: ('A' for Active; 'I' for Inactive)
REMARK    1  A    between atoms: C_2  and  C_4 
REMARK    2  A    between atoms: C_6  and  C_12 
REMARK    3  A    between atoms: C_7  and  O_8 
REMARK    4  A    between atoms: C_10  and  O_11 
REMARK    5  A    between atoms: N_17  and  C_18 
ROOT
HETATM    1  C   UNL     1      -2.856  12.157  23.216  0.00  0.00     0.171 A 
HETATM    2  N   UNL     1      -4.009  12.493  22.691  0.00  0.00    -0.151 NA
HETATM    3  N   UNL     1      -4.934  11.932  23.526  0.00  0.00    -0.226 N 
HETATM    4  C   UNL     1      -4.313  11.210  24.543  0.00  0.00     0.349 A 
HETATM    5  O   UNL     1      -4.892  10.531  25.376  0.00  0.00    -0.245 OA
HETATM    6  N   UNL     1      -2.963  11.413  24.363  0.00  0.00    -0.244 N 
HETATM    7  H   UNL     1      -5.930  11.978  23.369  0.00  0.00     0.194 HD
ENDROOT
BRANCH   1   8
HETATM    8  C   UNL     1      -1.578  12.573  22.602  0.00  0.00     0.046 A 
HETATM    9  C   UNL     1      -0.805  13.584  23.177  0.00  0.00     0.028 A 
HETATM   10  C   UNL     1       0.468  13.920  22.683  0.00  0.00    -0.021 A 
HETATM   11  C   UNL     1       0.934  13.225  21.560  0.00  0.00     0.075 A 
HETATM   12  C   UNL     1       0.134  12.292  20.904  0.00  0.00     0.074 A 
HETATM   13  C   UNL     1      -1.126  11.982  21.416  0.00  0.00     0.082 A 
BRANCH  10  14
HETATM   14  C   UNL     1       1.278  14.997  23.379  0.00  0.00     0.013 C 
HETATM   15  C   UNL     1       0.986  16.380  22.779  0.00  0.00     0.015 C 
HETATM   16  C   UNL     1       1.006  15.002  24.889  0.00  0.00     0.015 C 
ENDBRANCH  10  14
BRANCH  11  17
HETATM   17  O   UNL     1       2.198  13.477  21.104  0.00  0.00    -0.360 OA
HETATM   18  H   UNL     1       2.375  14.428  21.197  0.00  0.00     0.217 HD
ENDBRANCH  11  17
BRANCH  13  19
HETATM   19  O   UNL     1      -1.869  11.086  20.692  0.00  0.00    -0.360 OA
HETATM   20  H   UNL     1      -2.759  11.476  20.549  0.00  0.00     0.217 HD
ENDBRANCH  13  19
ENDBRANCH   1   8
BRANCH   6  21
HETATM   21  C   UNL     1      -2.005  10.671  25.072  0.00  0.00     0.046 A 
HETATM   22  C   UNL     1      -1.263   9.663  24.442  0.00  0.00     0.044 A 
HETATM   23  C   UNL     1      -0.455   8.812  25.231  0.00  0.00    -0.006 A 
HETATM   24  C   UNL     1       0.308   7.642  24.954  0.00  0.00     0.031 A 
HETATM   25  C   UNL     1      -0.347   9.052  26.605  0.00  0.00     0.044 A 
HETATM   26  C   UNL     1       0.851   7.200  26.139  0.00  0.00     0.091 A 
HETATM   27  N   UNL     1       0.507   8.095  27.117  0.00  0.00    -0.360 N 
HETATM   28  C   UNL     1       0.952   8.020  28.493  0.00  0.00     0.155 C 
HETATM   29  C   UNL     1      -1.037  10.097  27.234  0.00  0.00     0.033 A 
HETATM   30  C   UNL     1      -1.900  10.869  26.453  0.00  0.00     0.032 A 
ENDBRANCH   6  21
TORSDOF 5
ENDMDL
MODEL 6
REMARK VINA RESULT:    -8.080      2.696      3.623
REMARK INTER + INTRA:         -10.685
REMARK INTER:                  -9.969
REMARK INTRA:                  -0.716
REMARK UNBOUND:                -0.716
REMARK  5 active torsions:
REMARK  status: ('A' for Active; 'I' for Inactive)
REMARK    1  A    between atoms: C_2  and  C_4 
REMARK    2  A    between atoms: C_6  and  C_12 
REMARK    3  A    between atoms: C_7  and  O_8 
REMARK    4  A    between atoms: C_10  and  O_11 
REMARK    5  A    between atoms: N_17  and  C_18 
ROOT
HETATM    1  C   UNL     1      -1.846  11.306  23.492  0.00  0.00     0.171 A 
HETATM    2  N   UNL     1      -2.375  10.175  23.894  0.00  0.00    -0.151 NA
HETATM    3  N   UNL     1      -1.301   9.355  24.095  0.00  0.00    -0.226 N 
HETATM    4  C   UNL     1      -0.112  10.000  23.762  0.00  0.00     0.349 A 
HETATM    5  O   UNL     1       0.991   9.479  23.756  0.00  0.00    -0.245 OA
HETATM    6  N   UNL     1      -0.476  11.285  23.427  0.00  0.00    -0.244 N 
HETATM    7  H   UNL     1      -1.381   8.387  24.374  0.00  0.00     0.194 HD
ENDROOT
BRANCH   1   8
HETATM    8  C   UNL     1      -2.684  12.476  23.160  0.00  0.00     0.046 A 
HETATM    9  C   UNL     1      -2.806  12.917  21.841  0.00  0.00     0.028 A 
HETATM   10  C   UNL     1      -3.686  13.952  21.481  0.00  0.00    -0.021 A 
HETATM   11  C   UNL     1      -4.426  14.563  22.502  0.00  0.00     0.075 A 
HETATM   12  C   UNL     1      -4.238  14.214  23.837  0.00  0.00     0.074 A 
HETATM   13  C   UNL     1      -3.355  13.185  24.165  0.00  0.00     0.082 A 
BRANCH  10  14
HETATM   14  C   UNL     1      -3.807  14.356  20.023  0.00  0.00     0.013 C 
HETATM   15  C   UNL     1      -5.157  13.914  19.440  0.00  0.00     0.015 C 
HETATM   16  C   UNL     1      -3.623  15.870  19.854  0.00  0.00     0.015 C 
ENDBRANCH  10  14
BRANCH  11  17
HETATM   17  O   UNL     1      -5.345  15.519  22.172  0.00  0.00    -0.360 OA
HETATM   18  H   UNL     1      -4.876  16.357  22.024  0.00  0.00     0.217 HD
ENDBRANCH  11  17
BRANCH  13  19
HETATM   19  O   UNL     1      -3.193  12.930  25.502  0.00  0.00    -0.360 OA
HETATM   20  H   UNL     1      -3.869  13.445  25.993  0.00  0.00     0.217 HD
ENDBRANCH  13  19
ENDBRANCH   1   8
BRANCH   6  21
HETATM   21  C   UNL     1       0.431  12.177  22.832  0.00  0.00     0.046 A 
HETATM   22  C   UNL     1       1.209  13.042  23.612  0.00  0.00     0.044 A 
HETATM   23  C   UNL     1       1.960  14.054  22.972  0.00  0.00    -0.006 A 
HETATM   24  C   UNL     1       2.736  15.152  23.441  0.00  0.00     0.031 A 
HETATM   25  C   UNL     1       1.978  14.112  21.574  0.00  0.00     0.044 A 
HETATM   26  C   UNL     1       3.198  15.844  22.345  0.00  0.00     0.091 A 
HETATM   27  N   UNL     1       2.793  15.170  21.224  0.00  0.00    -0.360 N 
HETATM   28  C   UNL     1       3.145  15.542  19.870  0.00  0.00     0.155 C 
HETATM   29  C   UNL     1       1.251  13.212  20.783  0.00  0.00     0.033 A 
HETATM   30  C   UNL     1       0.444  12.277  21.437  0.00  0.00     0.032 A 
ENDBRANCH   6  21
TORSDOF 5
ENDMDL
MODEL 7
REMARK VINA RESULT:    -8.032      3.585      6.309
REMARK INTER + INTRA:         -10.626
REMARK INTER:                  -9.471
REMARK INTRA:                  -1.155
REMARK UNBOUND:                -0.716
REMARK  5 active torsions:
REMARK  status: ('A' for Active; 'I' for Inactive)
REMARK    1  A    between atoms: C_2  and  C_4 
REMARK    2  A    between atoms: C_6  and  C_12 
REMARK    3  A    between atoms: C_7  and  O_8 
REMARK    4  A    between atoms: C_10  and  O_11 
REMARK    5  A    between atoms: N_17  and  C_18 
ROOT
HETATM    1  C   UNL     1      -3.025  12.307  24.768  0.00  0.00     0.171 A 
HETATM    2  N   UNL     1      -4.197  12.894  24.708  0.00  0.00    -0.151 NA
HETATM    3  N   UNL     1      -4.923  12.293  25.697  0.00  0.00    -0.226 N 
HETATM    4  C   UNL     1      -4.179  11.297  26.327  0.00  0.00     0.349 A 
HETATM    5  O   UNL     1      -4.605  10.539  27.184  0.00  0.00    -0.245 OA
HETATM    6  N   UNL     1      -2.929  11.358  25.753  0.00  0.00    -0.244 N 
HETATM    7  H   UNL     1      -5.894  12.500  25.883  0.00  0.00     0.194 HD
ENDROOT
BRANCH   1   8
HETATM    8  C   UNL     1      -1.930  12.674  23.847  0.00  0.00     0.046 A 
HETATM    9  C   UNL     1      -0.838  13.420  24.296  0.00  0.00     0.028 A 
HETATM   10  C   UNL     1       0.272  13.684  23.475  0.00  0.00    -0.021 A 
HETATM   11  C   UNL     1       0.239  13.199  22.161  0.00  0.00     0.075 A 
HETATM   12  C   UNL     1      -0.887  12.551  21.658  0.00  0.00     0.074 A 
HETATM   13  C   UNL     1      -1.975  12.306  22.497  0.00  0.00     0.082 A 
BRANCH  10  14
HETATM   14  C   UNL     1       1.448  14.461  24.036  0.00  0.00     0.013 C 
HETATM   15  C   UNL     1       1.001  15.393  25.171  0.00  0.00     0.015 C 
HETATM   16  C   UNL     1       2.551  13.514  24.525  0.00  0.00     0.015 C 
ENDBRANCH  10  14
BRANCH  11  17
HETATM   17  O   UNL     1       1.334  13.375  21.363  0.00  0.00    -0.360 OA
HETATM   18  H   UNL     1       1.285  12.741  20.628  0.00  0.00     0.217 HD
ENDBRANCH  11  17
BRANCH  13  19
HETATM   19  O   UNL     1      -3.060  11.701  21.918  0.00  0.00    -0.360 OA
HETATM   20  H   UNL     1      -3.734  12.393  21.742  0.00  0.00     0.217 HD
ENDBRANCH  13  19
ENDBRANCH   1   8
BRANCH   6  21
HETATM   21  C   UNL     1      -1.963  10.365  25.983  0.00  0.00     0.046 A 
HETATM   22  C   UNL     1      -1.420  10.169  27.260  0.00  0.00     0.044 A 
HETATM   23  C   UNL     1      -0.316   9.299  27.410  0.00  0.00    -0.006 A 
HETATM   24  C   UNL     1       0.540   8.973  28.499  0.00  0.00     0.031 A 
HETATM   25  C   UNL     1       0.150   8.588  26.298  0.00  0.00     0.044 A 
HETATM   26  C   UNL     1       1.493   8.091  28.039  0.00  0.00     0.091 A 
HETATM   27  N   UNL     1       1.208   7.813  26.729  0.00  0.00    -0.360 N 
HETATM   28  C   UNL     1       1.940   6.867  25.913  0.00  0.00     0.155 C 
HETATM   29  C   UNL     1      -0.426   8.731  25.029  0.00  0.00     0.033 A 
HETATM   30  C   UNL     1      -1.457   9.663  24.884  0.00  0.00     0.032 A 
ENDBRANCH   6  21
TORSDOF 5
ENDMDL
MODEL 8
REMARK VINA RESULT:    -8.007      2.511      5.604
REMARK INTER + INTRA:         -10.596
REMARK INTER:                  -9.161
REMARK INTRA:                  -1.435
REMARK UNBOUND:                -0.716
REMARK  5 active torsions:
REMARK  status: ('A' for Active; 'I' for Inactive)
REMARK    1  A    between atoms: C_2  and  C_4 
REMARK    2  A    between atoms: C_6  and  C_12 
REMARK    3  A    between atoms: C_7  and  O_8 
REMARK    4  A    between atoms: C_10  and  O_11 
REMARK    5  A    between atoms: N_17  and  C_18 
ROOT
HETATM    1  C   UNL     1       0.819  14.000  23.861  0.00  0.00     0.171 A 
HETATM    2  N   UNL     1       2.071  13.780  24.186  0.00  0.00    -0.151 NA
HETATM    3  N   UNL     1       2.736  13.809  22.993  0.00  0.00    -0.226 N 
HETATM    4  C   UNL     1       1.852  14.006  21.934  0.00  0.00     0.349 A 
HETATM    5  O   UNL     1       2.157  13.984  20.752  0.00  0.00    -0.245 OA
HETATM    6  N   UNL     1       0.619  14.187  22.517  0.00  0.00    -0.244 N 
HETATM    7  H   UNL     1       3.726  13.632  22.899  0.00  0.00     0.194 HD
ENDROOT
BRANCH   1   8
HETATM    8  C   UNL     1      -0.246  14.046  24.883  0.00  0.00     0.046 A 
HETATM    9  C   UNL     1      -1.357  13.205  24.797  0.00  0.00     0.028 A 
HETATM   10  C   UNL     1      -2.326  13.144  25.813  0.00  0.00    -0.021 A 
HETATM   11  C   UNL     1      -2.163  13.988  26.919  0.00  0.00     0.075 A 
HETATM   12  C   UNL     1      -1.124  14.914  26.973  0.00  0.00     0.074 A 
HETATM   13  C   UNL     1      -0.179  14.953  25.948  0.00  0.00     0.082 A 
BRANCH  10  14
HETATM   14  C   UNL     1      -3.487  12.176  25.681  0.00  0.00     0.013 C 
HETATM   15  C   UNL     1      -3.932  12.046  24.218  0.00  0.00     0.015 C 
HETATM   16  C   UNL     1      -3.124  10.800  26.253  0.00  0.00     0.015 C 
ENDBRANCH  10  14
BRANCH  11  17
HETATM   17  O   UNL     1      -3.047  13.898  27.957  0.00  0.00    -0.360 OA
HETATM   18  H   UNL     1      -3.234  14.794  28.281  0.00  0.00     0.217 HD
ENDBRANCH  11  17
BRANCH  13  19
HETATM   19  O   UNL     1       0.788  15.919  26.053  0.00  0.00    -0.360 OA
HETATM   20  H   UNL     1       1.077  16.158  25.145  0.00  0.00     0.217 HD
ENDBRANCH  13  19
ENDBRANCH   1   8
BRANCH   6  21
HETATM   21  C   UNL     1      -0.561  14.204  21.757  0.00  0.00     0.046 A 
HETATM   22  C   UNL     1      -1.171  15.413  21.397  0.00  0.00     0.044 A 
HETATM   23  C   UNL     1      -2.453  15.385  20.804  0.00  0.00    -0.006 A 
HETATM   24  C   UNL     1      -3.393  16.391  20.441  0.00  0.00     0.031 A 
HETATM   25  C   UNL     1      -3.045  14.152  20.511  0.00  0.00     0.044 A 
HETATM   26  C   UNL     1      -4.515  15.765  19.946  0.00  0.00     0.091 A 
HETATM   27  N   UNL     1      -4.268  14.418  19.929  0.00  0.00    -0.360 N 
HETATM   28  C   UNL     1      -5.181  13.423  19.406  0.00  0.00     0.155 C 
HETATM   29  C   UNL     1      -2.416  12.936  20.810  0.00  0.00     0.033 A 
HETATM   30  C   UNL     1      -1.190  12.985  21.478  0.00  0.00     0.032 A 
ENDBRANCH   6  21
TORSDOF 5
ENDMDL
