MODEL 1
REMARK VINA RESULT:   -10.974      0.000      0.000
REMARK INTER + INTRA:         -13.503
REMARK INTER:                 -12.629
REMARK INTRA:                  -0.874
REMARK UNBOUND:                -0.605
REMARK  3 active torsions:
REMARK  status: ('A' for Active; 'I' for Inactive)
REMARK    1  A    between atoms: C_10  and  C_11 
REMARK       I    between atoms: C_11  and  N_13 
REMARK    2  A    between atoms: N_13  and  C_14 
REMARK    3  A    between atoms: C_23  and  C_27 
ROOT
HETATM    1  C   UNL     1       5.902  11.500  22.772  0.00  0.00     0.153 C 
HETATM    2  C   UNL     1       6.231  12.975  22.884  0.00  0.00    -0.020 A 
HETATM    3  C   UNL     1       7.484  13.134  23.527  0.00  0.00    -0.016 A 
HETATM    4  C   UNL     1       5.418  14.058  22.564  0.00  0.00     0.010 A 
HETATM    5  C   UNL     1       5.844  15.337  22.926  0.00  0.00     0.001 A 
HETATM    6  C   UNL     1       7.042  15.505  23.626  0.00  0.00     0.001 A 
HETATM    7  C   UNL     1       7.853  14.406  23.930  0.00  0.00     0.013 A 
HETATM    8  C   UNL     1       7.253  10.864  23.061  0.00  0.00    -0.019 A 
HETATM    9  C   UNL     1       8.148  11.825  23.637  0.00  0.00    -0.003 A 
HETATM   10  C   UNL     1       9.386  11.397  24.155  0.00  0.00     0.022 A 
HETATM   11  C   UNL     1       9.681  10.016  24.054  0.00  0.00     0.016 A 
HETATM   12  C   UNL     1       8.804   9.101  23.445  0.00  0.00     0.002 A 
HETATM   13  C   UNL     1       7.580   9.521  22.944  0.00  0.00     0.010 A 
ENDROOT
BRANCH   1  14
HETATM   14  N   UNL     1       5.229  11.108  21.555  0.00  0.00    -0.344 N 
HETATM   15  C   UNL     1       5.898  11.180  20.342  0.00  0.00     0.253 C 
HETATM   16  O   UNL     1       6.976  11.750  20.212  0.00  0.00    -0.268 OA
HETATM   17  H   UNL     1       4.281  10.765  21.616  0.00  0.00     0.163 HD
BRANCH  15  18
HETATM   18  C   UNL     1       5.281  10.501  19.174  0.00  0.00     0.047 A 
HETATM   19  C   UNL     1       5.299   9.091  19.067  0.00  0.00     0.027 A 
HETATM   20  C   UNL     1       5.822   7.990  19.810  0.00  0.00     0.033 A 
HETATM   21  C   UNL     1       4.639   8.535  17.974  0.00  0.00     0.138 A 
HETATM   22  C   UNL     1       5.485   6.828  19.155  0.00  0.00     0.090 A 
HETATM   23  N   UNL     1       4.772   7.175  18.040  0.00  0.00    -0.350 N 
HETATM   24  H   UNL     1       4.370   6.542  17.360  0.00  0.00     0.166 HD
HETATM   25  N   UNL     1       3.973   9.180  17.002  0.00  0.00    -0.242 NA
HETATM   26  C   UNL     1       3.959  10.520  17.171  0.00  0.00     0.120 A 
HETATM   27  C   UNL     1       4.572  11.216  18.202  0.00  0.00     0.037 A 
ENDBRANCH  15  18
ENDBRANCH   1  14
BRANCH  10  28
HETATM   28  C   UNL     1      10.385  12.284  24.778  0.00  0.00     0.140 A 
HETATM   29  N   UNL     1      11.316  13.031  24.075  0.00  0.00    -0.338 N 
HETATM   30  H   UNL     1      11.411  13.049  23.070  0.00  0.00     0.167 HD
HETATM   31  C   UNL     1      12.135  13.688  24.965  0.00  0.00     0.063 A 
HETATM   32  C   UNL     1      11.642  13.310  26.207  0.00  0.00     0.088 A 
HETATM   33  C   UNL     1      13.234  14.538  24.808  0.00  0.00     0.035 A 
HETATM   34  N   UNL     1      10.535  12.518  26.067  0.00  0.00    -0.228 NA
HETATM   35  C   UNL     1      12.287  13.734  27.373  0.00  0.00     0.076 A 
HETATM   36  C   UNL     1      13.398  14.563  27.236  0.00  0.00     0.118 A 
HETATM   37  F   UNL     1      14.041  14.977  28.336  0.00  0.00    -0.206 F 
HETATM   38  C   UNL     1      13.860  14.972  25.986  0.00  0.00     0.044 A 
ENDBRANCH  10  28
TORSDOF 3
ENDMDL
MODEL 2
REMARK VINA RESULT:   -10.781      0.594      1.141
REMARK INTER + INTRA:         -13.276
REMARK INTER:                 -12.390
REMARK INTRA:                  -0.887
REMARK UNBOUND:                -0.605
REMARK  3 active torsions:
REMARK  status: ('A' for Active; 'I' for Inactive)
REMARK    1  A    between atoms: C_10  and  C_11 
REMARK       I    between atoms: C_11  and  N_13 
REMARK    2  A    between atoms: N_13  and  C_14 
REMARK    3  A    between atoms: C_23  and  C_27 
ROOT
HETATM    1  C   UNL     1       5.729  11.259  22.579  0.00  0.00     0.153 C 
HETATM    2  C   UNL     1       6.066  12.725  22.760  0.00  0.00    -0.020 A 
HETATM    3  C   UNL     1       7.322  12.847  23.406  0.00  0.00    -0.016 A 
HETATM    4  C   UNL     1       5.257  13.826  22.494  0.00  0.00     0.010 A 
HETATM    5  C   UNL     1       5.691  15.084  22.914  0.00  0.00     0.001 A 
HETATM    6  C   UNL     1       6.893  15.213  23.617  0.00  0.00     0.001 A 
HETATM    7  C   UNL     1       7.699  14.096  23.866  0.00  0.00     0.013 A 
HETATM    8  C   UNL     1       7.078  10.603  22.834  0.00  0.00    -0.019 A 
HETATM    9  C   UNL     1       7.979  11.531  23.451  0.00  0.00    -0.003 A 
HETATM   10  C   UNL     1       9.216  11.073  23.944  0.00  0.00     0.022 A 
HETATM   11  C   UNL     1       9.504   9.696  23.777  0.00  0.00     0.016 A 
HETATM   12  C   UNL     1       8.621   8.815  23.128  0.00  0.00     0.002 A 
HETATM   13  C   UNL     1       7.397   9.265  22.651  0.00  0.00     0.010 A 
ENDROOT
BRANCH   1  14
HETATM   14  N   UNL     1       5.050  10.928  21.347  0.00  0.00    -0.344 N 
HETATM   15  C   UNL     1       5.715  11.054  20.137  0.00  0.00     0.253 C 
HETATM   16  O   UNL     1       6.795  11.625  20.030  0.00  0.00    -0.268 OA
HETATM   17  H   UNL     1       4.101  10.587  21.396  0.00  0.00     0.163 HD
BRANCH  15  18
HETATM   18  C   UNL     1       5.091  10.435  18.940  0.00  0.00     0.047 A 
HETATM   19  C   UNL     1       5.154   9.037  18.736  0.00  0.00     0.027 A 
HETATM   20  C   UNL     1       5.734   7.908  19.389  0.00  0.00     0.033 A 
HETATM   21  C   UNL     1       4.485   8.533  17.623  0.00  0.00     0.138 A 
HETATM   22  C   UNL     1       5.419   6.781  18.664  0.00  0.00     0.090 A 
HETATM   23  N   UNL     1       4.666   7.178  17.593  0.00  0.00    -0.350 N 
HETATM   24  H   UNL     1       4.268   6.578  16.880  0.00  0.00     0.166 HD
HETATM   25  N   UNL     1       3.772   9.218  16.715  0.00  0.00    -0.242 NA
HETATM   26  C   UNL     1       3.716  10.543  16.976  0.00  0.00     0.120 A 
HETATM   27  C   UNL     1       4.332  11.189  18.037  0.00  0.00     0.037 A 
ENDBRANCH  15  18
ENDBRANCH   1  14
BRANCH  10  28
HETATM   28  C   UNL     1      10.223  11.924  24.605  0.00  0.00     0.140 A 
HETATM   29  N   UNL     1      10.459  11.942  25.969  0.00  0.00    -0.338 N 
HETATM   30  H   UNL     1       9.971  11.382  26.654  0.00  0.00     0.167 HD
HETATM   31  C   UNL     1      11.410  12.896  26.251  0.00  0.00     0.063 A 
HETATM   32  C   UNL     1      11.730  13.421  25.007  0.00  0.00     0.088 A 
HETATM   33  C   UNL     1      11.993  13.346  27.441  0.00  0.00     0.035 A 
HETATM   34  N   UNL     1      11.052  12.763  24.017  0.00  0.00    -0.228 NA
HETATM   35  C   UNL     1      12.628  14.488  24.909  0.00  0.00     0.076 A 
HETATM   36  C   UNL     1      13.201  14.965  26.085  0.00  0.00     0.118 A 
HETATM   37  F   UNL     1      14.058  15.993  26.021  0.00  0.00    -0.206 F 
HETATM   38  C   UNL     1      12.907  14.403  27.326  0.00  0.00     0.044 A 
ENDBRANCH  10  28
TORSDOF 3
ENDMDL
MODEL 3
REMARK VINA RESULT:   -10.590      4.764      9.919
REMARK INTER + INTRA:         -13.052
REMARK INTER:                 -12.192
REMARK INTRA:                  -0.860
REMARK UNBOUND:                -0.605
REMARK  3 active torsions:
REMARK  status: ('A' for Active; 'I' for Inactive)
REMARK    1  A    between atoms: C_10  and  C_11 
REMARK       I    between atoms: C_11  and  N_13 
REMARK    2  A    between atoms: N_13  and  C_14 
REMARK    3  A    between atoms: C_23  and  C_27 
ROOT
HETATM    1  C   UNL     1       6.909  13.326  24.582  0.00  0.00     0.153 C 
HETATM    2  C   UNL     1       6.292  12.042  24.067  0.00  0.00    -0.020 A 
HETATM    3  C   UNL     1       4.923  12.258  23.771  0.00  0.00    -0.016 A 
HETATM    4  C   UNL     1       6.874  10.779  24.007  0.00  0.00     0.010 A 
HETATM    5  C   UNL     1       6.065   9.691  23.679  0.00  0.00     0.001 A 
HETATM    6  C   UNL     1       4.698   9.876  23.456  0.00  0.00     0.001 A 
HETATM    7  C   UNL     1       4.131  11.154  23.509  0.00  0.00     0.013 A 
HETATM    8  C   UNL     1       5.860  14.351  24.178  0.00  0.00    -0.019 A 
HETATM    9  C   UNL     1       4.634  13.700  23.822  0.00  0.00    -0.003 A 
HETATM   10  C   UNL     1       3.477  14.473  23.602  0.00  0.00     0.022 A 
HETATM   11  C   UNL     1       3.608  15.877  23.730  0.00  0.00     0.016 A 
HETATM   12  C   UNL     1       4.834  16.494  24.037  0.00  0.00     0.002 A 
HETATM   13  C   UNL     1       5.972  15.731  24.265  0.00  0.00     0.010 A 
ENDROOT
BRANCH   1  14
HETATM   14  N   UNL     1       8.271  13.568  24.163  0.00  0.00    -0.344 N 
HETATM   15  C   UNL     1       9.113  14.330  24.960  0.00  0.00     0.253 C 
HETATM   16  O   UNL     1       8.710  14.984  25.916  0.00  0.00    -0.268 OA
HETATM   17  H   UNL     1       8.592  13.155  23.300  0.00  0.00     0.163 HD
BRANCH  15  18
HETATM   18  C   UNL     1      10.564  14.309  24.645  0.00  0.00     0.047 A 
HETATM   19  C   UNL     1      11.491  13.742  25.551  0.00  0.00     0.027 A 
HETATM   20  C   UNL     1      11.458  13.144  26.847  0.00  0.00     0.033 A 
HETATM   21  C   UNL     1      12.823  13.705  25.146  0.00  0.00     0.138 A 
HETATM   22  C   UNL     1      12.742  12.782  27.187  0.00  0.00     0.090 A 
HETATM   23  N   UNL     1      13.558  13.134  26.148  0.00  0.00    -0.350 N 
HETATM   24  H   UNL     1      14.559  12.986  26.090  0.00  0.00     0.166 HD
HETATM   25  N   UNL     1      13.341  14.138  23.985  0.00  0.00    -0.242 NA
HETATM   26  C   UNL     1      12.408  14.638  23.144  0.00  0.00     0.120 A 
HETATM   27  C   UNL     1      11.051  14.746  23.407  0.00  0.00     0.037 A 
ENDBRANCH  15  18
ENDBRANCH   1  14
BRANCH  10  28
HETATM   28  C   UNL     1       2.157  13.923  23.241  0.00  0.00     0.140 A 
HETATM   29  N   UNL     1       1.664  13.855  21.948  0.00  0.00    -0.338 N 
HETATM   30  H   UNL     1       2.148  14.173  21.121  0.00  0.00     0.167 HD
HETATM   31  C   UNL     1       0.383  13.354  21.978  0.00  0.00     0.063 A 
HETATM   32  C   UNL     1       0.152  13.119  23.327  0.00  0.00     0.088 A 
HETATM   33  C   UNL     1      -0.572  13.104  20.986  0.00  0.00     0.035 A 
HETATM   34  N   UNL     1       1.270  13.402  24.064  0.00  0.00    -0.228 NA
HETATM   35  C   UNL     1      -1.101  12.669  23.753  0.00  0.00     0.076 A 
HETATM   36  C   UNL     1      -2.073  12.437  22.782  0.00  0.00     0.118 A 
HETATM   37  F   UNL     1      -3.286  12.014  23.163  0.00  0.00    -0.206 F 
HETATM   38  C   UNL     1      -1.818  12.634  21.426  0.00  0.00     0.044 A 
ENDBRANCH  10  28
TORSDOF 3
ENDMDL
MODEL 4
REMARK VINA RESULT:   -10.521      4.777      9.809
REMARK INTER + INTRA:         -12.971
REMARK INTER:                 -11.846
REMARK INTRA:                  -1.125
REMARK UNBOUND:                -0.605
REMARK  3 active torsions:
REMARK  status: ('A' for Active; 'I' for Inactive)
REMARK    1  A    between atoms: C_10  and  C_11 
REMARK       I    between atoms: C_11  and  N_13 
REMARK    2  A    between atoms: N_13  and  C_14 
REMARK    3  A    between atoms: C_23  and  C_27 
ROOT
HETATM    1  C   UNL     1       6.904  14.212  22.581  0.00  0.00     0.153 C 
HETATM    2  C   UNL     1       5.934  14.804  23.582  0.00  0.00    -0.020 A 
HETATM    3  C   UNL     1       4.612  14.413  23.250  0.00  0.00    -0.016 A 
HETATM    4  C   UNL     1       6.206  15.712  24.601  0.00  0.00     0.010 A 
HETATM    5  C   UNL     1       5.132  16.279  25.288  0.00  0.00     0.001 A 
HETATM    6  C   UNL     1       3.820  15.960  24.925  0.00  0.00     0.001 A 
HETATM    7  C   UNL     1       3.565  15.036  23.906  0.00  0.00     0.013 A 
HETATM    8  C   UNL     1       6.041  13.157  21.906  0.00  0.00    -0.019 A 
HETATM    9  C   UNL     1       4.657  13.372  22.211  0.00  0.00    -0.003 A 
HETATM   10  C   UNL     1       3.673  12.624  21.534  0.00  0.00     0.022 A 
HETATM   11  C   UNL     1       4.127  11.674  20.588  0.00  0.00     0.016 A 
HETATM   12  C   UNL     1       5.493  11.452  20.340  0.00  0.00     0.002 A 
HETATM   13  C   UNL     1       6.462  12.196  20.999  0.00  0.00     0.010 A 
ENDROOT
BRANCH   1  14
HETATM   14  N   UNL     1       8.172  13.784  23.127  0.00  0.00    -0.344 N 
HETATM   15  C   UNL     1       9.230  14.678  23.200  0.00  0.00     0.253 C 
HETATM   16  O   UNL     1       9.216  15.769  22.640  0.00  0.00    -0.268 OA
HETATM   17  H   UNL     1       8.256  12.837  23.469  0.00  0.00     0.163 HD
BRANCH  15  18
HETATM   18  C   UNL     1      10.403  14.291  24.024  0.00  0.00     0.047 A 
HETATM   19  C   UNL     1      10.453  14.607  25.401  0.00  0.00     0.027 A 
HETATM   20  C   UNL     1       9.638  15.299  26.347  0.00  0.00     0.033 A 
HETATM   21  C   UNL     1      11.560  14.148  26.112  0.00  0.00     0.138 A 
HETATM   22  C   UNL     1      10.265  15.252  27.572  0.00  0.00     0.090 A 
HETATM   23  N   UNL     1      11.432  14.556  27.411  0.00  0.00    -0.350 N 
HETATM   24  H   UNL     1      12.108  14.338  28.133  0.00  0.00     0.166 HD
HETATM   25  N   UNL     1      12.592  13.426  25.647  0.00  0.00    -0.242 NA
HETATM   26  C   UNL     1      12.477  13.123  24.335  0.00  0.00     0.120 A 
HETATM   27  C   UNL     1      11.442  13.512  23.499  0.00  0.00     0.037 A 
ENDBRANCH  15  18
ENDBRANCH   1  14
BRANCH  10  28
HETATM   28  C   UNL     1       2.221  12.758  21.751  0.00  0.00     0.140 A 
HETATM   29  N   UNL     1       1.574  12.448  22.937  0.00  0.00    -0.338 N 
HETATM   30  H   UNL     1       2.022  12.099  23.772  0.00  0.00     0.167 HD
HETATM   31  C   UNL     1       0.219  12.623  22.772  0.00  0.00     0.063 A 
HETATM   32  C   UNL     1       0.099  13.057  21.459  0.00  0.00     0.088 A 
HETATM   33  C   UNL     1      -0.881  12.434  23.615  0.00  0.00     0.035 A 
HETATM   34  N   UNL     1       1.333  13.203  20.885  0.00  0.00    -0.228 NA
HETATM   35  C   UNL     1      -1.167  13.268  20.905  0.00  0.00     0.076 A 
HETATM   36  C   UNL     1      -2.276  13.063  21.723  0.00  0.00     0.118 A 
HETATM   37  F   UNL     1      -3.502  13.249  21.216  0.00  0.00    -0.206 F 
HETATM   38  C   UNL     1      -2.144  12.668  23.053  0.00  0.00     0.044 A 
ENDBRANCH  10  28
TORSDOF 3
ENDMDL
MODEL 5
REMARK VINA RESULT:   -10.490      0.651      1.680
REMARK INTER + INTRA:         -12.935
REMARK INTER:                 -12.168
REMARK INTRA:                  -0.767
REMARK UNBOUND:                -0.605
REMARK  3 active torsions:
REMARK  status: ('A' for Active; 'I' for Inactive)
REMARK    1  A    between atoms: C_10  and  C_11 
REMARK       I    between atoms: C_11  and  N_13 
REMARK    2  A    between atoms: N_13  and  C_14 
REMARK    3  A    between atoms: C_23  and  C_27 
ROOT
HETATM    1  C   UNL     1       6.143  11.133  22.861  0.00  0.00     0.153 C 
HETATM    2  C   UNL     1       6.421  12.622  22.918  0.00  0.00    -0.020 A 
HETATM    3  C   UNL     1       7.653  12.849  23.582  0.00  0.00    -0.016 A 
HETATM    4  C   UNL     1       5.581  13.662  22.534  0.00  0.00     0.010 A 
HETATM    5  C   UNL     1       5.956  14.969  22.851  0.00  0.00     0.001 A 
HETATM    6  C   UNL     1       7.132  15.206  23.570  0.00  0.00     0.001 A 
HETATM    7  C   UNL     1       7.971  14.148  23.938  0.00  0.00     0.013 A 
HETATM    8  C   UNL     1       7.506  10.555  23.207  0.00  0.00    -0.019 A 
HETATM    9  C   UNL     1       8.355  11.568  23.761  0.00  0.00    -0.003 A 
HETATM   10  C   UNL     1       9.594  11.204  24.325  0.00  0.00     0.022 A 
HETATM   11  C   UNL     1       9.936   9.830  24.289  0.00  0.00     0.016 A 
HETATM   12  C   UNL     1       9.104   8.862  23.699  0.00  0.00     0.002 A 
HETATM   13  C   UNL     1       7.879   9.220  23.153  0.00  0.00     0.010 A 
ENDROOT
BRANCH   1  14
HETATM   14  N   UNL     1       5.512  10.669  21.646  0.00  0.00    -0.344 N 
HETATM   15  C   UNL     1       6.192  10.750  20.440  0.00  0.00     0.253 C 
HETATM   16  O   UNL     1       7.235  11.381  20.308  0.00  0.00    -0.268 OA
HETATM   17  H   UNL     1       4.586  10.270  21.705  0.00  0.00     0.163 HD
BRANCH  15  18
HETATM   18  C   UNL     1       5.634  10.004  19.283  0.00  0.00     0.047 A 
HETATM   19  C   UNL     1       4.735  10.628  18.388  0.00  0.00     0.027 A 
HETATM   20  C   UNL     1       4.095  11.898  18.262  0.00  0.00     0.033 A 
HETATM   21  C   UNL     1       4.313   9.876  17.295  0.00  0.00     0.138 A 
HETATM   22  C   UNL     1       3.312  11.876  17.130  0.00  0.00     0.090 A 
HETATM   23  N   UNL     1       3.451  10.641  16.558  0.00  0.00    -0.350 N 
HETATM   24  H   UNL     1       3.012  10.320  15.703  0.00  0.00     0.166 HD
HETATM   25  N   UNL     1       4.666   8.621  16.976  0.00  0.00    -0.242 NA
HETATM   26  C   UNL     1       5.552   8.084  17.844  0.00  0.00     0.120 A 
HETATM   27  C   UNL     1       6.058   8.705  18.977  0.00  0.00     0.037 A 
ENDBRANCH  15  18
ENDBRANCH   1  14
BRANCH  10  28
HETATM   28  C   UNL     1      10.549  12.148  24.932  0.00  0.00     0.140 A 
HETATM   29  N   UNL     1      11.450  12.919  24.217  0.00  0.00    -0.338 N 
HETATM   30  H   UNL     1      11.552  12.917  23.212  0.00  0.00     0.167 HD
HETATM   31  C   UNL     1      12.233  13.632  25.096  0.00  0.00     0.063 A 
HETATM   32  C   UNL     1      11.750  13.263  26.344  0.00  0.00     0.088 A 
HETATM   33  C   UNL     1      13.295  14.527  24.924  0.00  0.00     0.035 A 
HETATM   34  N   UNL     1      10.679  12.420  26.215  0.00  0.00    -0.228 NA
HETATM   35  C   UNL     1      12.367  13.742  27.502  0.00  0.00     0.076 A 
HETATM   36  C   UNL     1      13.441  14.616  27.352  0.00  0.00     0.118 A 
HETATM   37  F   UNL     1      14.058  15.084  28.446  0.00  0.00    -0.206 F 
HETATM   38  C   UNL     1      13.893  15.016  26.096  0.00  0.00     0.044 A 
ENDBRANCH  10  28
TORSDOF 3
ENDMDL
MODEL 6
REMARK VINA RESULT:   -10.456      4.846      9.562
REMARK INTER + INTRA:         -12.895
REMARK INTER:                 -12.126
REMARK INTRA:                  -0.768
REMARK UNBOUND:                -0.605
REMARK  3 active torsions:
REMARK  status: ('A' for Active; 'I' for Inactive)
REMARK    1  A    between atoms: C_10  and  C_11 
REMARK       I    between atoms: C_11  and  N_13 
REMARK    2  A    between atoms: N_13  and  C_14 
REMARK    3  A    between atoms: C_23  and  C_27 
ROOT
HETATM    1  C   UNL     1       6.760  13.310  24.127  0.00  0.00     0.153 C 
HETATM    2  C   UNL     1       6.124  12.047  23.586  0.00  0.00    -0.020 A 
HETATM    3  C   UNL     1       4.734  12.257  23.400  0.00  0.00    -0.016 A 
HETATM    4  C   UNL     1       6.715  10.799  23.414  0.00  0.00     0.010 A 
HETATM    5  C   UNL     1       5.898   9.717  23.083  0.00  0.00     0.001 A 
HETATM    6  C   UNL     1       4.516   9.892  22.967  0.00  0.00     0.001 A 
HETATM    7  C   UNL     1       3.939  11.157  23.132  0.00  0.00     0.013 A 
HETATM    8  C   UNL     1       5.673  14.339  23.857  0.00  0.00    -0.019 A 
HETATM    9  C   UNL     1       4.432  13.689  23.552  0.00  0.00    -0.003 A 
HETATM   10  C   UNL     1       3.253  14.455  23.457  0.00  0.00     0.022 A 
HETATM   11  C   UNL     1       3.377  15.851  23.654  0.00  0.00     0.016 A 
HETATM   12  C   UNL     1       4.614  16.469  23.908  0.00  0.00     0.002 A 
HETATM   13  C   UNL     1       5.774  15.714  24.013  0.00  0.00     0.010 A 
ENDROOT
BRANCH   1  14
HETATM   14  N   UNL     1       8.086  13.597  23.629  0.00  0.00    -0.344 N 
HETATM   15  C   UNL     1       9.043  14.129  24.480  0.00  0.00     0.253 C 
HETATM   16  O   UNL     1       8.773  14.561  25.595  0.00  0.00    -0.268 OA
HETATM   17  H   UNL     1       8.297  13.381  22.665  0.00  0.00     0.163 HD
BRANCH  15  18
HETATM   18  C   UNL     1      10.453  14.133  24.013  0.00  0.00     0.047 A 
HETATM   19  C   UNL     1      10.842  13.376  22.884  0.00  0.00     0.027 A 
HETATM   20  C   UNL     1      10.226  12.472  21.966  0.00  0.00     0.033 A 
HETATM   21  C   UNL     1      12.169  13.491  22.476  0.00  0.00     0.138 A 
HETATM   22  C   UNL     1      11.177  12.065  21.059  0.00  0.00     0.090 A 
HETATM   23  N   UNL     1      12.351  12.687  21.385  0.00  0.00    -0.350 N 
HETATM   24  H   UNL     1      13.234  12.603  20.896  0.00  0.00     0.166 HD
HETATM   25  N   UNL     1      13.133  14.247  23.024  0.00  0.00    -0.242 NA
HETATM   26  C   UNL     1      12.701  14.975  24.077  0.00  0.00     0.120 A 
HETATM   27  C   UNL     1      11.417  14.963  24.601  0.00  0.00     0.037 A 
ENDBRANCH  15  18
ENDBRANCH   1  14
BRANCH  10  28
HETATM   28  C   UNL     1       1.918  13.904  23.159  0.00  0.00     0.140 A 
HETATM   29  N   UNL     1       1.360  13.847  21.892  0.00  0.00    -0.338 N 
HETATM   30  H   UNL     1       1.800  14.173  21.045  0.00  0.00     0.167 HD
HETATM   31  C   UNL     1       0.083  13.342  21.984  0.00  0.00     0.063 A 
HETATM   32  C   UNL     1      -0.079  13.094  23.340  0.00  0.00     0.088 A 
HETATM   33  C   UNL     1      -0.921  13.099  21.040  0.00  0.00     0.035 A 
HETATM   34  N   UNL     1       1.075  13.374  24.022  0.00  0.00    -0.228 NA
HETATM   35  C   UNL     1      -1.307  12.637  23.826  0.00  0.00     0.076 A 
HETATM   36  C   UNL     1      -2.327  12.411  22.904  0.00  0.00     0.118 A 
HETATM   37  F   UNL     1      -3.518  11.981  23.343  0.00  0.00    -0.206 F 
HETATM   38  C   UNL     1      -2.142  12.621  21.539  0.00  0.00     0.044 A 
ENDBRANCH  10  28
TORSDOF 3
ENDMDL
MODEL 7
REMARK VINA RESULT:   -10.082      3.836      9.355
REMARK INTER + INTRA:         -12.456
REMARK INTER:                 -11.562
REMARK INTRA:                  -0.894
REMARK UNBOUND:                -0.605
REMARK  3 active torsions:
REMARK  status: ('A' for Active; 'I' for Inactive)
REMARK    1  A    between atoms: C_10  and  C_11 
REMARK       I    between atoms: C_11  and  N_13 
REMARK    2  A    between atoms: N_13  and  C_14 
REMARK    3  A    between atoms: C_23  and  C_27 
ROOT
HETATM    1  C   UNL     1       7.373  14.748  22.496  0.00  0.00     0.153 C 
HETATM    2  C   UNL     1       6.004  14.182  22.813  0.00  0.00    -0.020 A 
HETATM    3  C   UNL     1       5.683  13.166  21.878  0.00  0.00    -0.016 A 
HETATM    4  C   UNL     1       5.090  14.638  23.758  0.00  0.00     0.010 A 
HETATM    5  C   UNL     1       3.805  14.093  23.755  0.00  0.00     0.001 A 
HETATM    6  C   UNL     1       3.450  13.142  22.794  0.00  0.00     0.001 A 
HETATM    7  C   UNL     1       4.385  12.687  21.857  0.00  0.00     0.013 A 
HETATM    8  C   UNL     1       7.927  13.693  21.551  0.00  0.00    -0.019 A 
HETATM    9  C   UNL     1       6.878  12.834  21.086  0.00  0.00    -0.003 A 
HETATM   10  C   UNL     1       7.142  11.910  20.056  0.00  0.00     0.022 A 
HETATM   11  C   UNL     1       8.463  11.876  19.548  0.00  0.00     0.016 A 
HETATM   12  C   UNL     1       9.486  12.699  20.052  0.00  0.00     0.002 A 
HETATM   13  C   UNL     1       9.223  13.617  21.060  0.00  0.00     0.010 A 
ENDROOT
BRANCH   1  14
HETATM   14  N   UNL     1       8.177  15.101  23.644  0.00  0.00    -0.344 N 
HETATM   15  C   UNL     1       8.599  14.112  24.521  0.00  0.00     0.253 C 
HETATM   16  O   UNL     1       8.162  12.967  24.490  0.00  0.00    -0.268 OA
HETATM   17  H   UNL     1       8.436  16.068  23.774  0.00  0.00     0.163 HD
BRANCH  15  18
HETATM   18  C   UNL     1       9.651  14.470  25.507  0.00  0.00     0.047 A 
HETATM   19  C   UNL     1      11.020  14.384  25.164  0.00  0.00     0.027 A 
HETATM   20  C   UNL     1      11.794  13.975  24.037  0.00  0.00     0.033 A 
HETATM   21  C   UNL     1      11.936  14.802  26.127  0.00  0.00     0.138 A 
HETATM   22  C   UNL     1      13.126  14.141  24.345  0.00  0.00     0.090 A 
HETATM   23  N   UNL     1      13.195  14.637  25.618  0.00  0.00    -0.350 N 
HETATM   24  H   UNL     1      14.037  14.879  26.125  0.00  0.00     0.166 HD
HETATM   25  N   UNL     1      11.676  15.291  27.349  0.00  0.00    -0.242 NA
HETATM   26  C   UNL     1      10.354  15.384  27.612  0.00  0.00     0.120 A 
HETATM   27  C   UNL     1       9.328  15.004  26.761  0.00  0.00     0.037 A 
ENDBRANCH  15  18
ENDBRANCH   1  14
BRANCH  10  28
HETATM   28  C   UNL     1       6.148  10.982  19.487  0.00  0.00     0.140 A 
HETATM   29  N   UNL     1       5.828   9.748  20.030  0.00  0.00    -0.338 N 
HETATM   30  H   UNL     1       6.237   9.354  20.865  0.00  0.00     0.167 HD
HETATM   31  C   UNL     1       4.919   9.116  19.213  0.00  0.00     0.063 A 
HETATM   32  C   UNL     1       4.709  10.027  18.186  0.00  0.00     0.088 A 
HETATM   33  C   UNL     1       4.290   7.868  19.265  0.00  0.00     0.035 A 
HETATM   34  N   UNL     1       5.409  11.181  18.414  0.00  0.00    -0.228 NA
HETATM   35  C   UNL     1       3.884   9.688  17.110  0.00  0.00     0.076 A 
HETATM   36  C   UNL     1       3.267   8.440  17.132  0.00  0.00     0.118 A 
HETATM   37  F   UNL     1       2.478   8.085  16.108  0.00  0.00    -0.206 F 
HETATM   38  C   UNL     1       3.449   7.549  18.188  0.00  0.00     0.044 A 
ENDBRANCH  10  28
TORSDOF 3
ENDMDL
MODEL 8
REMARK VINA RESULT:   -10.081      1.007      1.893
REMARK INTER + INTRA:         -12.454
REMARK INTER:                 -11.818
REMARK INTRA:                  -0.636
REMARK UNBOUND:                -0.605
REMARK  3 active torsions:
REMARK  status: ('A' for Active; 'I' for Inactive)
REMARK    1  A    between atoms: C_10  and  C_11 
REMARK       I    between atoms: C_11  and  N_13 
REMARK    2  A    between atoms: N_13  and  C_14 
REMARK    3  A    between atoms: C_23  and  C_27 
ROOT
HETATM    1  C   UNL     1       5.787  10.198  22.961  0.00  0.00     0.153 C 
HETATM    2  C   UNL     1       5.952  11.693  22.782  0.00  0.00    -0.020 A 
HETATM    3  C   UNL     1       7.220  12.093  23.273  0.00  0.00    -0.016 A 
HETATM    4  C   UNL     1       5.000  12.611  22.350  0.00  0.00     0.010 A 
HETATM    5  C   UNL     1       5.300  13.971  22.442  0.00  0.00     0.001 A 
HETATM    6  C   UNL     1       6.517  14.385  22.991  0.00  0.00     0.001 A 
HETATM    7  C   UNL     1       7.468  13.447  23.411  0.00  0.00     0.013 A 
HETATM    8  C   UNL     1       7.220   9.764  23.236  0.00  0.00    -0.019 A 
HETATM    9  C   UNL     1       8.035  10.900  23.551  0.00  0.00    -0.003 A 
HETATM   10  C   UNL     1       9.348  10.701  24.024  0.00  0.00     0.022 A 
HETATM   11  C   UNL     1       9.792   9.362  24.142  0.00  0.00     0.016 A 
HETATM   12  C   UNL     1       8.986   8.267  23.784  0.00  0.00     0.002 A 
HETATM   13  C   UNL     1       7.689   8.462  23.328  0.00  0.00     0.010 A 
ENDROOT
BRANCH   1  14
HETATM   14  N   UNL     1       5.081   9.522  21.897  0.00  0.00    -0.344 N 
HETATM   15  C   UNL     1       5.607   9.517  20.613  0.00  0.00     0.253 C 
HETATM   16  O   UNL     1       6.548  10.228  20.279  0.00  0.00    -0.268 OA
HETATM   17  H   UNL     1       4.220   9.043  22.117  0.00  0.00     0.163 HD
BRANCH  15  18
HETATM   18  C   UNL     1       5.011   8.578  19.629  0.00  0.00     0.047 A 
HETATM   19  C   UNL     1       4.606   9.033  18.352  0.00  0.00     0.027 A 
HETATM   20  C   UNL     1       4.556  10.274  17.650  0.00  0.00     0.033 A 
HETATM   21  C   UNL     1       4.119   8.073  17.469  0.00  0.00     0.138 A 
HETATM   22  C   UNL     1       4.041  10.039  16.395  0.00  0.00     0.090 A 
HETATM   23  N   UNL     1       3.776   8.701  16.303  0.00  0.00    -0.350 N 
HETATM   24  H   UNL     1       3.403   8.213  15.497  0.00  0.00     0.166 HD
HETATM   25  N   UNL     1       3.994   6.753  17.678  0.00  0.00    -0.242 NA
HETATM   26  C   UNL     1       4.427   6.367  18.899  0.00  0.00     0.120 A 
HETATM   27  C   UNL     1       4.930   7.204  19.884  0.00  0.00     0.037 A 
ENDBRANCH  15  18
ENDBRANCH   1  14
BRANCH  10  28
HETATM   28  C   UNL     1      10.280  11.784  24.390  0.00  0.00     0.140 A 
HETATM   29  N   UNL     1      10.948  12.584  23.478  0.00  0.00    -0.338 N 
HETATM   30  H   UNL     1      10.872  12.512  22.473  0.00  0.00     0.167 HD
HETATM   31  C   UNL     1      11.785  13.440  24.155  0.00  0.00     0.063 A 
HETATM   32  C   UNL     1      11.572  13.123  25.490  0.00  0.00     0.088 A 
HETATM   33  C   UNL     1      12.692  14.422  23.740  0.00  0.00     0.035 A 
HETATM   34  N   UNL     1      10.600  12.168  25.610  0.00  0.00    -0.228 NA
HETATM   35  C   UNL     1      12.324  13.754  26.486  0.00  0.00     0.076 A 
HETATM   36  C   UNL     1      13.248  14.717  26.091  0.00  0.00     0.118 A 
HETATM   37  F   UNL     1      13.989  15.331  27.024  0.00  0.00    -0.206 F 
HETATM   38  C   UNL     1      13.425  15.060  24.751  0.00  0.00     0.044 A 
ENDBRANCH  10  28
TORSDOF 3
ENDMDL
MODEL 9
REMARK VINA RESULT:    -9.847      4.396      6.067
REMARK INTER + INTRA:         -12.178
REMARK INTER:                 -11.573
REMARK INTRA:                  -0.605
REMARK UNBOUND:                -0.605
REMARK  3 active torsions:
REMARK  status: ('A' for Active; 'I' for Inactive)
REMARK    1  A    between atoms: C_10  and  C_11 
REMARK       I    between atoms: C_11  and  N_13 
REMARK    2  A    between atoms: N_13  and  C_14 
REMARK    3  A    between atoms: C_23  and  C_27 
ROOT
HETATM    1  C   UNL     1       3.433  12.689  22.864  0.00  0.00     0.153 C 
HETATM    2  C   UNL     1       4.283  11.496  23.253  0.00  0.00    -0.020 A 
HETATM    3  C   UNL     1       5.593  11.933  23.575  0.00  0.00    -0.016 A 
HETATM    4  C   UNL     1       3.945  10.149  23.186  0.00  0.00     0.010 A 
HETATM    5  C   UNL     1       4.945   9.202  23.409  0.00  0.00     0.001 A 
HETATM    6  C   UNL     1       6.258   9.614  23.656  0.00  0.00     0.001 A 
HETATM    7  C   UNL     1       6.579  10.974  23.731  0.00  0.00     0.013 A 
HETATM    8  C   UNL     1       4.281  13.846  23.372  0.00  0.00    -0.019 A 
HETATM    9  C   UNL     1       5.611  13.401  23.667  0.00  0.00    -0.003 A 
HETATM   10  C   UNL     1       6.608  14.349  23.968  0.00  0.00     0.022 A 
HETATM   11  C   UNL     1       6.218  15.710  23.977  0.00  0.00     0.016 A 
HETATM   12  C   UNL     1       4.895  16.117  23.727  0.00  0.00     0.002 A 
HETATM   13  C   UNL     1       3.915  15.183  23.420  0.00  0.00     0.010 A 
ENDROOT
BRANCH   1  14
HETATM   14  N   UNL     1       2.056  12.633  23.298  0.00  0.00    -0.344 N 
HETATM   15  C   UNL     1       1.053  13.126  22.476  0.00  0.00     0.253 C 
HETATM   16  O   UNL     1       1.284  13.794  21.475  0.00  0.00    -0.268 OA
HETATM   17  H   UNL     1       1.847  12.212  24.192  0.00  0.00     0.163 HD
BRANCH  15  18
HETATM   18  C   UNL     1      -0.351  12.788  22.825  0.00  0.00     0.047 A 
HETATM   19  C   UNL     1      -1.414  13.146  21.964  0.00  0.00     0.027 A 
HETATM   20  C   UNL     1      -1.573  13.848  20.731  0.00  0.00     0.033 A 
HETATM   21  C   UNL     1      -2.691  12.731  22.335  0.00  0.00     0.138 A 
HETATM   22  C   UNL     1      -2.911  13.851  20.406  0.00  0.00     0.090 A 
HETATM   23  N   UNL     1      -3.576  13.174  21.391  0.00  0.00    -0.350 N 
HETATM   24  H   UNL     1      -4.571  12.992  21.431  0.00  0.00     0.166 HD
HETATM   25  N   UNL     1      -3.039  12.017  23.417  0.00  0.00    -0.242 NA
HETATM   26  C   UNL     1      -1.983  11.673  24.187  0.00  0.00     0.120 A 
HETATM   27  C   UNL     1      -0.660  12.015  23.951  0.00  0.00     0.037 A 
ENDBRANCH  15  18
ENDBRANCH   1  14
BRANCH  10  28
HETATM   28  C   UNL     1       8.012  14.020  24.279  0.00  0.00     0.140 A 
HETATM   29  N   UNL     1       8.418  13.289  25.383  0.00  0.00    -0.338 N 
HETATM   30  H   UNL     1       7.805  12.907  26.088  0.00  0.00     0.167 HD
HETATM   31  C   UNL     1       9.793  13.228  25.405  0.00  0.00     0.063 A 
HETATM   32  C   UNL     1      10.172  13.935  24.271  0.00  0.00     0.088 A 
HETATM   33  C   UNL     1      10.713  12.653  26.287  0.00  0.00     0.035 A 
HETATM   34  N   UNL     1       9.072  14.341  23.565  0.00  0.00    -0.228 NA
HETATM   35  C   UNL     1      11.527  14.150  24.003  0.00  0.00     0.076 A 
HETATM   36  C   UNL     1      12.458  13.605  24.883  0.00  0.00     0.118 A 
HETATM   37  F   UNL     1      13.764  13.802  24.656  0.00  0.00    -0.206 F 
HETATM   38  C   UNL     1      12.069  12.859  25.996  0.00  0.00     0.044 A 
ENDBRANCH  10  28
TORSDOF 3
ENDMDL
