MODEL 1
REMARK VINA RESULT:    -8.534      0.000      0.000
REMARK INTER + INTRA:         -11.060
REMARK INTER:                 -10.117
REMARK INTRA:                  -0.942
REMARK UNBOUND:                -0.281
REMARK  5 active torsions:
REMARK  status: ('A' for Active; 'I' for Inactive)
REMARK       I    between atoms: N_5  and  C_6 
REMARK    1  A    between atoms: C_6  and  C_8 
REMARK    2  A    between atoms: C_15  and  C_19 
REMARK    3  A    between atoms: C_16  and  O_18 
REMARK       I    between atoms: C_19  and  N_21 
REMARK    4  A    between atoms: N_21  and  C_23 
REMARK    5  A    between atoms: C_26  and  N_29 
ROOT
HETATM    1  C   UNL     1       4.699   6.124  17.608  0.00  0.00     0.157 A 
HETATM    2  N   UNL     1       3.780   5.810  16.668  0.00  0.00    -0.168 NA
HETATM    3  N   UNL     1       3.396   6.982  16.158  0.00  0.00    -0.277 N 
HETATM    4  H   UNL     1       2.675   6.978  15.444  0.00  0.00     0.189 HD
HETATM    5  C   UNL     1       4.889   7.553  17.655  0.00  0.00     0.029 A 
HETATM    6  C   UNL     1       3.997   8.068  16.723  0.00  0.00     0.065 A 
HETATM    7  C   UNL     1       5.666   8.478  18.395  0.00  0.00     0.036 A 
HETATM    8  C   UNL     1       5.468   9.883  18.262  0.00  0.00     0.066 A 
HETATM    9  C   UNL     1       4.480  10.319  17.372  0.00  0.00     0.083 A 
HETATM   10  C   UNL     1       3.792   9.436  16.530  0.00  0.00     0.069 A 
ENDROOT
BRANCH   8  11
HETATM   11  C   UNL     1       6.203  10.730  19.262  0.00  0.00     0.260 C 
HETATM   12  O   UNL     1       7.199  11.276  18.779  0.00  0.00    -0.267 OA
HETATM   13  N   UNL     1       5.846  10.880  20.632  0.00  0.00    -0.318 N 
HETATM   14  C   UNL     1       4.818  10.094  21.312  0.00  0.00     0.159 C 
BRANCH  13  15
HETATM   15  C   UNL     1       6.571  11.836  21.458  0.00  0.00     0.037 A 
HETATM   16  C   UNL     1       6.045  13.098  21.737  0.00  0.00     0.032 A 
HETATM   17  C   UNL     1       6.762  14.051  22.477  0.00  0.00     0.031 A 
HETATM   18  C   UNL     1       8.040  13.803  22.987  0.00  0.00     0.030 A 
HETATM   19  C   UNL     1       8.530  12.507  22.788  0.00  0.00     0.031 A 
HETATM   20  C   UNL     1       7.815  11.540  22.040  0.00  0.00     0.032 A 
BRANCH  18  21
HETATM   21  N   UNL     1       8.756  14.797  23.620  0.00  0.00    -0.377 N 
HETATM   22  C   UNL     1       8.840  14.974  25.076  0.00  0.00     0.149 C 
HETATM   23  C   UNL     1      10.309  14.964  25.527  0.00  0.00     0.187 C 
HETATM   24  O   UNL     1      11.088  15.945  24.820  0.00  0.00    -0.388 OA
HETATM   25  C   UNL     1      11.048  15.683  23.407  0.00  0.00     0.187 C 
HETATM   26  C   UNL     1       9.612  15.725  22.857  0.00  0.00     0.149 C 
ENDBRANCH  18  21
ENDBRANCH  13  15
ENDBRANCH   8  11
BRANCH   9  27
HETATM   27  O   UNL     1       4.014  11.603  17.315  0.00  0.00    -0.360 OA
HETATM   28  H   UNL     1       4.222  12.022  18.170  0.00  0.00     0.217 HD
ENDBRANCH   9  27
BRANCH   1  29
HETATM   29  C   UNL     1       5.313   5.097  18.494  0.00  0.00     0.275 C 
HETATM   30  N   UNL     1       4.817   4.938  19.789  0.00  0.00    -0.347 N 
HETATM   31  C   UNL     1       3.612   5.533  20.347  0.00  0.00     0.126 C 
HETATM   32  C   UNL     1       5.439   4.031  20.739  0.00  0.00     0.126 C 
HETATM   33  C   UNL     1       3.317   4.713  21.596  0.00  0.00     0.021 C 
HETATM   34  C   UNL     1       4.700   4.272  22.051  0.00  0.00     0.021 C 
HETATM   35  O   UNL     1       6.253   4.404  18.098  0.00  0.00    -0.266 OA
ENDBRANCH   1  29
TORSDOF 5
ENDMDL
MODEL 2
REMARK VINA RESULT:    -8.502      5.286     10.288
REMARK INTER + INTRA:         -11.020
REMARK INTER:                 -10.004
REMARK INTRA:                  -1.016
REMARK UNBOUND:                -0.281
REMARK  5 active torsions:
REMARK  status: ('A' for Active; 'I' for Inactive)
REMARK       I    between atoms: N_5  and  C_6 
REMARK    1  A    between atoms: C_6  and  C_8 
REMARK    2  A    between atoms: C_15  and  C_19 
REMARK    3  A    between atoms: C_16  and  O_18 
REMARK       I    between atoms: C_19  and  N_21 
REMARK    4  A    between atoms: N_21  and  C_23 
REMARK    5  A    between atoms: C_26  and  N_29 
ROOT
HETATM    1  C   UNL     1       9.933  14.202  23.878  0.00  0.00     0.157 A 
HETATM    2  N   UNL     1      10.297  15.280  23.149  0.00  0.00    -0.168 NA
HETATM    3  N   UNL     1       9.148  15.829  22.749  0.00  0.00    -0.277 N 
HETATM    4  H   UNL     1       9.193  16.648  22.153  0.00  0.00     0.189 HD
HETATM    5  C   UNL     1       8.495  14.106  23.933  0.00  0.00     0.029 A 
HETATM    6  C   UNL     1       8.031  15.161  23.158  0.00  0.00     0.065 A 
HETATM    7  C   UNL     1       7.528  13.239  24.501  0.00  0.00     0.036 A 
HETATM    8  C   UNL     1       6.142  13.383  24.204  0.00  0.00     0.066 A 
HETATM    9  C   UNL     1       5.766  14.413  23.335  0.00  0.00     0.083 A 
HETATM   10  C   UNL     1       6.680  15.366  22.868  0.00  0.00     0.069 A 
ENDROOT
BRANCH   8  11
HETATM   11  C   UNL     1       5.265  12.267  24.696  0.00  0.00     0.260 C 
HETATM   12  O   UNL     1       4.968  12.389  25.889  0.00  0.00    -0.267 OA
HETATM   13  N   UNL     1       4.834  11.155  23.919  0.00  0.00    -0.318 N 
HETATM   14  C   UNL     1       5.327  10.841  22.579  0.00  0.00     0.159 C 
BRANCH  13  15
HETATM   15  C   UNL     1       3.878  10.214  24.486  0.00  0.00     0.037 A 
HETATM   16  C   UNL     1       2.520  10.283  24.172  0.00  0.00     0.032 A 
HETATM   17  C   UNL     1       1.579   9.424  24.761  0.00  0.00     0.031 A 
HETATM   18  C   UNL     1       1.935   8.443  25.692  0.00  0.00     0.030 A 
HETATM   19  C   UNL     1       3.306   8.312  25.937  0.00  0.00     0.031 A 
HETATM   20  C   UNL     1       4.262   9.176  25.349  0.00  0.00     0.032 A 
BRANCH  18  21
HETATM   21  N   UNL     1       0.973   7.687  26.327  0.00  0.00    -0.377 N 
HETATM   22  C   UNL     1       1.221   6.404  26.997  0.00  0.00     0.149 C 
HETATM   23  C   UNL     1       0.754   6.472  28.460  0.00  0.00     0.187 C 
HETATM   24  O   UNL     1      -0.624   6.872  28.559  0.00  0.00    -0.388 OA
HETATM   25  C   UNL     1      -0.805   8.169  27.967  0.00  0.00     0.187 C 
HETATM   26  C   UNL     1      -0.408   8.181  26.480  0.00  0.00     0.149 C 
ENDBRANCH  18  21
ENDBRANCH  13  15
ENDBRANCH   8  11
BRANCH   9  27
HETATM   27  O   UNL     1       4.524  14.526  22.773  0.00  0.00    -0.360 OA
HETATM   28  H   UNL     1       4.642  14.483  21.807  0.00  0.00     0.217 HD
ENDBRANCH   9  27
BRANCH   1  29
HETATM   29  C   UNL     1      10.929  13.244  24.432  0.00  0.00     0.275 C 
HETATM   30  N   UNL     1      11.586  13.565  25.621  0.00  0.00    -0.347 N 
HETATM   31  C   UNL     1      11.281  14.663  26.524  0.00  0.00     0.126 C 
HETATM   32  C   UNL     1      12.645  12.727  26.158  0.00  0.00     0.126 C 
HETATM   33  C   UNL     1      11.984  14.303  27.825  0.00  0.00     0.021 C 
HETATM   34  C   UNL     1      13.189  13.502  27.354  0.00  0.00     0.021 C 
HETATM   35  O   UNL     1      11.181  12.188  23.846  0.00  0.00    -0.266 OA
ENDBRANCH   1  29
TORSDOF 5
ENDMDL
MODEL 3
REMARK VINA RESULT:    -8.390      2.411     10.063
REMARK INTER + INTRA:         -10.878
REMARK INTER:                 -10.552
REMARK INTRA:                  -0.326
REMARK UNBOUND:                -0.281
REMARK  5 active torsions:
REMARK  status: ('A' for Active; 'I' for Inactive)
REMARK       I    between atoms: N_5  and  C_6 
REMARK    1  A    between atoms: C_6  and  C_8 
REMARK    2  A    between atoms: C_15  and  C_19 
REMARK    3  A    between atoms: C_16  and  O_18 
REMARK       I    between atoms: C_19  and  N_21 
REMARK    4  A    between atoms: N_21  and  C_23 
REMARK    5  A    between atoms: C_26  and  N_29 
ROOT
HETATM    1  C   UNL     1       8.307  14.585  22.708  0.00  0.00     0.157 A 
HETATM    2  N   UNL     1       8.013  15.729  23.364  0.00  0.00    -0.168 NA
HETATM    3  N   UNL     1       6.690  15.695  23.539  0.00  0.00    -0.277 N 
HETATM    4  H   UNL     1       6.248  16.487  23.992  0.00  0.00     0.189 HD
HETATM    5  C   UNL     1       7.106  13.817  22.491  0.00  0.00     0.029 A 
HETATM    6  C   UNL     1       6.080  14.593  23.015  0.00  0.00     0.065 A 
HETATM    7  C   UNL     1       6.749  12.588  21.883  0.00  0.00     0.036 A 
HETATM    8  C   UNL     1       5.384  12.212  21.722  0.00  0.00     0.066 A 
HETATM    9  C   UNL     1       4.406  13.097  22.189  0.00  0.00     0.083 A 
HETATM   10  C   UNL     1       4.730  14.251  22.915  0.00  0.00     0.069 A 
ENDROOT
BRANCH   8  11
HETATM   11  C   UNL     1       5.152  10.998  20.868  0.00  0.00     0.260 C 
HETATM   12  O   UNL     1       4.262  10.268  21.315  0.00  0.00    -0.267 OA
HETATM   13  N   UNL     1       5.881  10.669  19.690  0.00  0.00    -0.318 N 
HETATM   14  C   UNL     1       7.081  11.369  19.236  0.00  0.00     0.159 C 
BRANCH  13  15
HETATM   15  C   UNL     1       5.463   9.528  18.886  0.00  0.00     0.037 A 
HETATM   16  C   UNL     1       4.712   9.698  17.723  0.00  0.00     0.032 A 
HETATM   17  C   UNL     1       4.248   8.605  16.975  0.00  0.00     0.031 A 
HETATM   18  C   UNL     1       4.509   7.279  17.338  0.00  0.00     0.030 A 
HETATM   19  C   UNL     1       5.340   7.110  18.452  0.00  0.00     0.031 A 
HETATM   20  C   UNL     1       5.810   8.208  19.213  0.00  0.00     0.032 A 
BRANCH  18  21
HETATM   21  N   UNL     1       3.952   6.230  16.639  0.00  0.00    -0.377 N 
HETATM   22  C   UNL     1       3.673   4.902  17.199  0.00  0.00     0.149 C 
HETATM   23  C   UNL     1       2.188   4.549  17.013  0.00  0.00     0.187 C 
HETATM   24  O   UNL     1       1.789   4.646  15.635  0.00  0.00    -0.388 OA
HETATM   25  C   UNL     1       1.999   5.984  15.152  0.00  0.00     0.187 C 
HETATM   26  C   UNL     1       3.476   6.404  15.254  0.00  0.00     0.149 C 
ENDBRANCH  18  21
ENDBRANCH  13  15
ENDBRANCH   8  11
BRANCH   9  27
HETATM   27  O   UNL     1       3.075  12.992  21.896  0.00  0.00    -0.360 OA
HETATM   28  H   UNL     1       2.620  12.729  22.717  0.00  0.00     0.217 HD
ENDBRANCH   9  27
BRANCH   1  29
HETATM   29  C   UNL     1       9.682  14.276  22.226  0.00  0.00     0.275 C 
HETATM   30  N   UNL     1      10.722  14.203  23.154  0.00  0.00    -0.347 N 
HETATM   31  C   UNL     1      10.607  14.203  24.605  0.00  0.00     0.126 C 
HETATM   32  C   UNL     1      12.103  14.013  22.741  0.00  0.00     0.126 C 
HETATM   33  C   UNL     1      11.949  13.681  25.100  0.00  0.00     0.021 C 
HETATM   34  C   UNL     1      12.917  14.147  24.023  0.00  0.00     0.021 C 
HETATM   35  O   UNL     1       9.904  14.099  21.027  0.00  0.00    -0.266 OA
ENDBRANCH   1  29
TORSDOF 5
ENDMDL
MODEL 4
REMARK VINA RESULT:    -8.331      4.705      9.272
REMARK INTER + INTRA:         -10.804
REMARK INTER:                  -9.850
REMARK INTRA:                  -0.954
REMARK UNBOUND:                -0.281
REMARK  5 active torsions:
REMARK  status: ('A' for Active; 'I' for Inactive)
REMARK       I    between atoms: N_5  and  C_6 
REMARK    1  A    between atoms: C_6  and  C_8 
REMARK    2  A    between atoms: C_15  and  C_19 
REMARK    3  A    between atoms: C_16  and  O_18 
REMARK       I    between atoms: C_19  and  N_21 
REMARK    4  A    between atoms: N_21  and  C_23 
REMARK    5  A    between atoms: C_26  and  N_29 
ROOT
HETATM    1  C   UNL     1      10.175  12.444  22.139  0.00  0.00     0.157 A 
HETATM    2  N   UNL     1      10.866  12.860  21.055  0.00  0.00    -0.168 NA
HETATM    3  N   UNL     1      10.010  12.743  20.036  0.00  0.00    -0.277 N 
HETATM    4  H   UNL     1      10.341  12.978  19.107  0.00  0.00     0.189 HD
HETATM    5  C   UNL     1       8.835  12.073  21.758  0.00  0.00     0.029 A 
HETATM    6  C   UNL     1       8.787  12.250  20.382  0.00  0.00     0.065 A 
HETATM    7  C   UNL     1       7.671  11.570  22.392  0.00  0.00     0.036 A 
HETATM    8  C   UNL     1       6.534  11.165  21.636  0.00  0.00     0.066 A 
HETATM    9  C   UNL     1       6.603  11.283  20.244  0.00  0.00     0.083 A 
HETATM   10  C   UNL     1       7.683  11.902  19.600  0.00  0.00     0.069 A 
ENDROOT
BRANCH   8  11
HETATM   11  C   UNL     1       5.468  10.450  22.418  0.00  0.00     0.260 C 
HETATM   12  O   UNL     1       5.242   9.317  21.984  0.00  0.00    -0.267 OA
HETATM   13  N   UNL     1       4.748  10.997  23.517  0.00  0.00    -0.318 N 
HETATM   14  C   UNL     1       4.811  12.397  23.935  0.00  0.00     0.159 C 
BRANCH  13  15
HETATM   15  C   UNL     1       3.834  10.147  24.267  0.00  0.00     0.037 A 
HETATM   16  C   UNL     1       2.459  10.175  24.029  0.00  0.00     0.032 A 
HETATM   17  C   UNL     1       1.561   9.409  24.789  0.00  0.00     0.031 A 
HETATM   18  C   UNL     1       1.978   8.567  25.825  0.00  0.00     0.030 A 
HETATM   19  C   UNL     1       3.363   8.468  26.002  0.00  0.00     0.031 A 
HETATM   20  C   UNL     1       4.276   9.239  25.242  0.00  0.00     0.032 A 
BRANCH  18  21
HETATM   21  N   UNL     1       1.061   7.909  26.616  0.00  0.00    -0.377 N 
HETATM   22  C   UNL     1       1.402   6.973  27.695  0.00  0.00     0.149 C 
HETATM   23  C   UNL     1       0.765   7.433  29.016  0.00  0.00     0.187 C 
HETATM   24  O   UNL     1      -0.657   7.609  28.887  0.00  0.00    -0.388 OA
HETATM   25  C   UNL     1      -0.943   8.596  27.880  0.00  0.00     0.187 C 
HETATM   26  C   UNL     1      -0.383   8.191  26.506  0.00  0.00     0.149 C 
ENDBRANCH  18  21
ENDBRANCH  13  15
ENDBRANCH   8  11
BRANCH   9  27
HETATM   27  O   UNL     1       5.703  10.721  19.382  0.00  0.00    -0.360 OA
HETATM   28  H   UNL     1       6.135  10.670  18.509  0.00  0.00     0.217 HD
ENDBRANCH   9  27
BRANCH   1  29
HETATM   29  C   UNL     1      10.804  12.322  23.483  0.00  0.00     0.275 C 
HETATM   30  N   UNL     1      11.152  13.484  24.173  0.00  0.00    -0.347 N 
HETATM   31  C   UNL     1      10.800  14.852  23.825  0.00  0.00     0.126 C 
HETATM   32  C   UNL     1      11.866  13.436  25.439  0.00  0.00     0.126 C 
HETATM   33  C   UNL     1      11.047  15.652  25.097  0.00  0.00     0.021 C 
HETATM   34  C   UNL     1      12.182  14.892  25.766  0.00  0.00     0.021 C 
HETATM   35  O   UNL     1      11.026  11.214  23.977  0.00  0.00    -0.266 OA
ENDBRANCH   1  29
TORSDOF 5
ENDMDL
MODEL 5
REMARK VINA RESULT:    -8.281      2.448     10.501
REMARK INTER + INTRA:         -10.740
REMARK INTER:                  -9.938
REMARK INTRA:                  -0.802
REMARK UNBOUND:                -0.281
REMARK  5 active torsions:
REMARK  status: ('A' for Active; 'I' for Inactive)
REMARK       I    between atoms: N_5  and  C_6 
REMARK    1  A    between atoms: C_6  and  C_8 
REMARK    2  A    between atoms: C_15  and  C_19 
REMARK    3  A    between atoms: C_16  and  O_18 
REMARK       I    between atoms: C_19  and  N_21 
REMARK    4  A    between atoms: N_21  and  C_23 
REMARK    5  A    between atoms: C_26  and  N_29 
ROOT
HETATM    1  C   UNL     1       9.425  14.599  24.946  0.00  0.00     0.157 A 
HETATM    2  N   UNL     1       9.118  15.319  26.048  0.00  0.00    -0.168 NA
HETATM    3  N   UNL     1       7.993  14.770  26.514  0.00  0.00    -0.277 N 
HETATM    4  H   UNL     1       7.565  15.185  27.335  0.00  0.00     0.189 HD
HETATM    5  C   UNL     1       8.447  13.558  24.748  0.00  0.00     0.029 A 
HETATM    6  C   UNL     1       7.521  13.731  25.768  0.00  0.00     0.065 A 
HETATM    7  C   UNL     1       8.204  12.520  23.815  0.00  0.00     0.036 A 
HETATM    8  C   UNL     1       7.004  11.752  23.860  0.00  0.00     0.066 A 
HETATM    9  C   UNL     1       6.075  12.056  24.860  0.00  0.00     0.083 A 
HETATM   10  C   UNL     1       6.348  12.981  25.876  0.00  0.00     0.069 A 
ENDROOT
BRANCH   8  11
HETATM   11  C   UNL     1       6.783  10.843  22.684  0.00  0.00     0.260 C 
HETATM   12  O   UNL     1       7.504   9.842  22.717  0.00  0.00    -0.267 OA
HETATM   13  N   UNL     1       5.881  11.092  21.610  0.00  0.00    -0.318 N 
HETATM   14  C   UNL     1       5.169  12.351  21.401  0.00  0.00     0.159 C 
BRANCH  13  15
HETATM   15  C   UNL     1       5.671  10.063  20.601  0.00  0.00     0.037 A 
HETATM   16  C   UNL     1       6.119  10.231  19.291  0.00  0.00     0.032 A 
HETATM   17  C   UNL     1       5.866   9.277  18.293  0.00  0.00     0.031 A 
HETATM   18  C   UNL     1       5.157   8.097  18.543  0.00  0.00     0.030 A 
HETATM   19  C   UNL     1       4.788   7.884  19.876  0.00  0.00     0.031 A 
HETATM   20  C   UNL     1       5.037   8.843  20.888  0.00  0.00     0.032 A 
BRANCH  18  21
HETATM   21  N   UNL     1       4.838   7.232  17.518  0.00  0.00    -0.377 N 
HETATM   22  C   UNL     1       4.751   5.772  17.648  0.00  0.00     0.149 C 
HETATM   23  C   UNL     1       3.365   5.282  17.199  0.00  0.00     0.187 C 
HETATM   24  O   UNL     1       3.054   5.721  15.865  0.00  0.00    -0.388 OA
HETATM   25  C   UNL     1       3.067   7.158  15.803  0.00  0.00     0.187 C 
HETATM   26  C   UNL     1       4.439   7.736  16.190  0.00  0.00     0.149 C 
ENDBRANCH  18  21
ENDBRANCH  13  15
ENDBRANCH   8  11
BRANCH   9  27
HETATM   27  O   UNL     1       4.793  11.580  24.885  0.00  0.00    -0.360 OA
HETATM   28  H   UNL     1       4.803  10.757  25.408  0.00  0.00     0.217 HD
ENDBRANCH   9  27
BRANCH   1  29
HETATM   29  C   UNL     1      10.569  14.951  24.061  0.00  0.00     0.275 C 
HETATM   30  N   UNL     1      11.869  14.808  24.549  0.00  0.00    -0.347 N 
HETATM   31  C   UNL     1      12.278  14.160  25.786  0.00  0.00     0.126 C 
HETATM   32  C   UNL     1      13.026  15.234  23.779  0.00  0.00     0.126 C 
HETATM   33  C   UNL     1      13.769  13.907  25.618  0.00  0.00     0.021 C 
HETATM   34  C   UNL     1      14.212  15.051  24.719  0.00  0.00     0.021 C 
HETATM   35  O   UNL     1      10.376  15.373  22.919  0.00  0.00    -0.266 OA
ENDBRANCH   1  29
TORSDOF 5
ENDMDL
MODEL 6
REMARK VINA RESULT:    -8.221      6.195      7.468
REMARK INTER + INTRA:         -10.665
REMARK INTER:                  -9.939
REMARK INTRA:                  -0.725
REMARK UNBOUND:                -0.281
REMARK  5 active torsions:
REMARK  status: ('A' for Active; 'I' for Inactive)
REMARK       I    between atoms: N_5  and  C_6 
REMARK    1  A    between atoms: C_6  and  C_8 
REMARK    2  A    between atoms: C_15  and  C_19 
REMARK    3  A    between atoms: C_16  and  O_18 
REMARK       I    between atoms: C_19  and  N_21 
REMARK    4  A    between atoms: N_21  and  C_23 
REMARK    5  A    between atoms: C_26  and  N_29 
ROOT
HETATM    1  C   UNL     1      -2.322  11.021  25.202  0.00  0.00     0.157 A 
HETATM    2  N   UNL     1      -3.586  11.254  24.785  0.00  0.00    -0.168 NA
HETATM    3  N   UNL     1      -3.452  11.924  23.638  0.00  0.00    -0.277 N 
HETATM    4  H   UNL     1      -4.294  12.230  23.163  0.00  0.00     0.189 HD
HETATM    5  C   UNL     1      -1.381  11.562  24.253  0.00  0.00     0.029 A 
HETATM    6  C   UNL     1      -2.160  12.168  23.275  0.00  0.00     0.065 A 
HETATM    7  C   UNL     1       0.026  11.655  24.116  0.00  0.00     0.036 A 
HETATM    8  C   UNL     1       0.618  12.427  23.074  0.00  0.00     0.066 A 
HETATM    9  C   UNL     1      -0.239  13.088  22.188  0.00  0.00     0.083 A 
HETATM   10  C   UNL     1      -1.627  12.905  22.215  0.00  0.00     0.069 A 
ENDROOT
BRANCH   8  11
HETATM   11  C   UNL     1       2.105  12.614  23.184  0.00  0.00     0.260 C 
HETATM   12  O   UNL     1       2.738  11.740  22.585  0.00  0.00    -0.267 OA
HETATM   13  N   UNL     1       2.752  13.647  23.919  0.00  0.00    -0.318 N 
HETATM   14  C   UNL     1       2.070  14.573  24.823  0.00  0.00     0.159 C 
BRANCH  13  15
HETATM   15  C   UNL     1       4.199  13.788  23.833  0.00  0.00     0.037 A 
HETATM   16  C   UNL     1       4.790  14.608  22.872  0.00  0.00     0.032 A 
HETATM   17  C   UNL     1       6.184  14.702  22.736  0.00  0.00     0.031 A 
HETATM   18  C   UNL     1       7.070  13.989  23.550  0.00  0.00     0.030 A 
HETATM   19  C   UNL     1       6.480  13.239  24.574  0.00  0.00     0.031 A 
HETATM   20  C   UNL     1       5.074  13.137  24.717  0.00  0.00     0.032 A 
BRANCH  18  21
HETATM   21  N   UNL     1       8.429  14.025  23.322  0.00  0.00    -0.377 N 
HETATM   22  C   UNL     1       9.231  12.891  22.845  0.00  0.00     0.149 C 
HETATM   23  C   UNL     1       9.981  13.276  21.560  0.00  0.00     0.187 C 
HETATM   24  O   UNL     1      10.779  14.458  21.745  0.00  0.00    -0.388 OA
HETATM   25  C   UNL     1       9.943  15.564  22.128  0.00  0.00     0.187 C 
HETATM   26  C   UNL     1       9.189  15.285  23.439  0.00  0.00     0.149 C 
ENDBRANCH  18  21
ENDBRANCH  13  15
ENDBRANCH   8  11
BRANCH   9  27
HETATM   27  O   UNL     1       0.168  14.045  21.300  0.00  0.00    -0.360 OA
HETATM   28  H   UNL     1      -0.386  14.833  21.453  0.00  0.00     0.217 HD
ENDBRANCH   9  27
BRANCH   1  29
HETATM   29  C   UNL     1      -2.023  10.377  26.511  0.00  0.00     0.275 C 
HETATM   30  N   UNL     1      -1.252   9.214  26.531  0.00  0.00    -0.347 N 
HETATM   31  C   UNL     1      -0.517   8.628  25.421  0.00  0.00     0.126 C 
HETATM   32  C   UNL     1      -1.014   8.476  27.760  0.00  0.00     0.126 C 
HETATM   33  C   UNL     1       0.463   7.660  26.071  0.00  0.00     0.021 C 
HETATM   34  C   UNL     1      -0.276   7.215  27.324  0.00  0.00     0.021 C 
HETATM   35  O   UNL     1      -2.457  10.855  27.561  0.00  0.00    -0.266 OA
ENDBRANCH   1  29
TORSDOF 5
ENDMDL
MODEL 7
REMARK VINA RESULT:    -8.193      5.211      9.305
REMARK INTER + INTRA:         -10.629
REMARK INTER:                  -9.513
REMARK INTRA:                  -1.116
REMARK UNBOUND:                -0.281
REMARK  5 active torsions:
REMARK  status: ('A' for Active; 'I' for Inactive)
REMARK       I    between atoms: N_5  and  C_6 
REMARK    1  A    between atoms: C_6  and  C_8 
REMARK    2  A    between atoms: C_15  and  C_19 
REMARK    3  A    between atoms: C_16  and  O_18 
REMARK       I    between atoms: C_19  and  N_21 
REMARK    4  A    between atoms: N_21  and  C_23 
REMARK    5  A    between atoms: C_26  and  N_29 
ROOT
HETATM    1  C   UNL     1       8.523  12.053  21.979  0.00  0.00     0.157 A 
HETATM    2  N   UNL     1       9.021  12.399  20.772  0.00  0.00    -0.168 NA
HETATM    3  N   UNL     1       8.128  11.944  19.889  0.00  0.00    -0.277 N 
HETATM    4  H   UNL     1       8.326  12.073  18.903  0.00  0.00     0.189 HD
HETATM    5  C   UNL     1       7.263  11.371  21.817  0.00  0.00     0.029 A 
HETATM    6  C   UNL     1       7.067  11.293  20.445  0.00  0.00     0.065 A 
HETATM    7  C   UNL     1       6.285  10.773  22.651  0.00  0.00     0.036 A 
HETATM    8  C   UNL     1       5.199  10.032  22.102  0.00  0.00     0.066 A 
HETATM    9  C   UNL     1       5.128   9.917  20.709  0.00  0.00     0.083 A 
HETATM   10  C   UNL     1       5.999  10.609  19.858  0.00  0.00     0.069 A 
ENDROOT
BRANCH   8  11
HETATM   11  C   UNL     1       4.373   9.273  23.102  0.00  0.00     0.260 C 
HETATM   12  O   UNL     1       4.594   8.059  23.075  0.00  0.00    -0.267 OA
HETATM   13  N   UNL     1       3.406   9.847  23.974  0.00  0.00    -0.318 N 
HETATM   14  C   UNL     1       2.943  11.232  23.902  0.00  0.00     0.159 C 
BRANCH  13  15
HETATM   15  C   UNL     1       2.771   9.013  24.986  0.00  0.00     0.037 A 
HETATM   16  C   UNL     1       1.442   8.608  24.860  0.00  0.00     0.032 A 
HETATM   17  C   UNL     1       0.799   7.859  25.858  0.00  0.00     0.031 A 
HETATM   18  C   UNL     1       1.442   7.465  27.036  0.00  0.00     0.030 A 
HETATM   19  C   UNL     1       2.800   7.792  27.121  0.00  0.00     0.031 A 
HETATM   20  C   UNL     1       3.456   8.549  26.120  0.00  0.00     0.032 A 
BRANCH  18  21
HETATM   21  N   UNL     1       0.751   6.820  28.039  0.00  0.00    -0.377 N 
HETATM   22  C   UNL     1       0.690   5.363  28.214  0.00  0.00     0.149 C 
HETATM   23  C   UNL     1       1.173   4.978  29.621  0.00  0.00     0.187 C 
HETATM   24  O   UNL     1       0.438   5.672  30.643  0.00  0.00    -0.388 OA
HETATM   25  C   UNL     1       0.595   7.093  30.485  0.00  0.00     0.187 C 
HETATM   26  C   UNL     1       0.086   7.577  29.117  0.00  0.00     0.149 C 
ENDBRANCH  18  21
ENDBRANCH  13  15
ENDBRANCH   8  11
BRANCH   9  27
HETATM   27  O   UNL     1       4.298   9.051  20.054  0.00  0.00    -0.360 OA
HETATM   28  H   UNL     1       3.494   8.957  20.598  0.00  0.00     0.217 HD
ENDBRANCH   9  27
BRANCH   1  29
HETATM   29  C   UNL     1       9.271  12.290  23.245  0.00  0.00     0.275 C 
HETATM   30  N   UNL     1       8.904  13.367  24.055  0.00  0.00    -0.347 N 
HETATM   31  C   UNL     1       7.725  14.208  23.918  0.00  0.00     0.126 C 
HETATM   32  C   UNL     1       9.660  13.719  25.246  0.00  0.00     0.126 C 
HETATM   33  C   UNL     1       7.591  14.910  25.262  0.00  0.00     0.021 C 
HETATM   34  C   UNL     1       9.032  15.019  25.738  0.00  0.00     0.021 C 
HETATM   35  O   UNL     1      10.207  11.557  23.570  0.00  0.00    -0.266 OA
ENDBRANCH   1  29
TORSDOF 5
ENDMDL
MODEL 8
REMARK VINA RESULT:    -8.080      5.333      6.401
REMARK INTER + INTRA:         -10.486
REMARK INTER:                  -9.304
REMARK INTRA:                  -1.182
REMARK UNBOUND:                -0.281
REMARK  5 active torsions:
REMARK  status: ('A' for Active; 'I' for Inactive)
REMARK       I    between atoms: N_5  and  C_6 
REMARK    1  A    between atoms: C_6  and  C_8 
REMARK    2  A    between atoms: C_15  and  C_19 
REMARK    3  A    between atoms: C_16  and  O_18 
REMARK       I    between atoms: C_19  and  N_21 
REMARK    4  A    between atoms: N_21  and  C_23 
REMARK    5  A    between atoms: C_26  and  N_29 
ROOT
HETATM    1  C   UNL     1       2.939   8.065  25.279  0.00  0.00     0.157 A 
HETATM    2  N   UNL     1       1.627   7.936  24.982  0.00  0.00    -0.168 NA
HETATM    3  N   UNL     1       1.287   9.097  24.418  0.00  0.00    -0.277 N 
HETATM    4  H   UNL     1       0.320   9.227  24.142  0.00  0.00     0.189 HD
HETATM    5  C   UNL     1       3.415   9.360  24.860  0.00  0.00     0.029 A 
HETATM    6  C   UNL     1       2.301  10.006  24.341  0.00  0.00     0.065 A 
HETATM    7  C   UNL     1       4.633  10.084  24.892  0.00  0.00     0.036 A 
HETATM    8  C   UNL     1       4.688  11.454  24.504  0.00  0.00     0.066 A 
HETATM    9  C   UNL     1       3.499  12.060  24.085  0.00  0.00     0.083 A 
HETATM   10  C   UNL     1       2.313  11.335  23.913  0.00  0.00     0.069 A 
ENDROOT
BRANCH   8  11
HETATM   11  C   UNL     1       5.988  12.149  24.798  0.00  0.00     0.260 C 
HETATM   12  O   UNL     1       5.934  12.839  25.821  0.00  0.00    -0.267 OA
HETATM   13  N   UNL     1       7.159  12.078  23.993  0.00  0.00    -0.318 N 
HETATM   14  C   UNL     1       7.219  11.464  22.668  0.00  0.00     0.159 C 
BRANCH  13  15
HETATM   15  C   UNL     1       8.390  12.698  24.466  0.00  0.00     0.037 A 
HETATM   16  C   UNL     1       9.275  12.008  25.296  0.00  0.00     0.032 A 
HETATM   17  C   UNL     1      10.431  12.615  25.811  0.00  0.00     0.031 A 
HETATM   18  C   UNL     1      10.776  13.941  25.527  0.00  0.00     0.030 A 
HETATM   19  C   UNL     1       9.939  14.602  24.622  0.00  0.00     0.031 A 
HETATM   20  C   UNL     1       8.769  13.999  24.099  0.00  0.00     0.032 A 
BRANCH  18  21
HETATM   21  N   UNL     1      11.863  14.535  26.132  0.00  0.00    -0.377 N 
HETATM   22  C   UNL     1      12.260  14.333  27.531  0.00  0.00     0.149 C 
HETATM   23  C   UNL     1      13.713  13.837  27.603  0.00  0.00     0.187 C 
HETATM   24  O   UNL     1      14.611  14.723  26.913  0.00  0.00    -0.388 OA
HETATM   25  C   UNL     1      14.237  14.825  25.528  0.00  0.00     0.187 C 
HETATM   26  C   UNL     1      12.807  15.366  25.360  0.00  0.00     0.149 C 
ENDBRANCH  18  21
ENDBRANCH  13  15
ENDBRANCH   8  11
BRANCH   9  27
HETATM   27  O   UNL     1       3.345  13.408  23.915  0.00  0.00    -0.360 OA
HETATM   28  H   UNL     1       3.399  13.817  24.798  0.00  0.00     0.217 HD
ENDBRANCH   9  27
BRANCH   1  29
HETATM   29  C   UNL     1       3.693   7.016  26.020  0.00  0.00     0.275 C 
HETATM   30  N   UNL     1       3.813   7.123  27.407  0.00  0.00    -0.347 N 
HETATM   31  C   UNL     1       3.117   8.054  28.280  0.00  0.00     0.126 C 
HETATM   32  C   UNL     1       4.625   6.195  28.177  0.00  0.00     0.126 C 
HETATM   33  C   UNL     1       3.275   7.470  29.677  0.00  0.00     0.021 C 
HETATM   34  C   UNL     1       4.612   6.749  29.597  0.00  0.00     0.021 C 
HETATM   35  O   UNL     1       4.214   6.073  25.420  0.00  0.00    -0.266 OA
ENDBRANCH   1  29
TORSDOF 5
ENDMDL
MODEL 9
REMARK VINA RESULT:    -8.059      2.701      9.736
REMARK INTER + INTRA:         -10.460
REMARK INTER:                 -10.179
REMARK INTRA:                  -0.281
REMARK UNBOUND:                -0.281
REMARK  5 active torsions:
REMARK  status: ('A' for Active; 'I' for Inactive)
REMARK       I    between atoms: N_5  and  C_6 
REMARK    1  A    between atoms: C_6  and  C_8 
REMARK    2  A    between atoms: C_15  and  C_19 
REMARK    3  A    between atoms: C_16  and  O_18 
REMARK       I    between atoms: C_19  and  N_21 
REMARK    4  A    between atoms: N_21  and  C_23 
REMARK    5  A    between atoms: C_26  and  N_29 
ROOT
HETATM    1  C   UNL     1       5.846  14.865  23.335  0.00  0.00     0.157 A 
HETATM    2  N   UNL     1       6.729  15.423  24.193  0.00  0.00    -0.168 NA
HETATM    3  N   UNL     1       7.894  14.831  23.921  0.00  0.00    -0.277 N 
HETATM    4  H   UNL     1       8.701  15.085  24.481  0.00  0.00     0.189 HD
HETATM    5  C   UNL     1       6.515  13.902  22.496  0.00  0.00     0.029 A 
HETATM    6  C   UNL     1       7.832  13.889  22.936  0.00  0.00     0.065 A 
HETATM    7  C   UNL     1       6.168  13.011  21.451  0.00  0.00     0.036 A 
HETATM    8  C   UNL     1       7.106  12.066  20.943  0.00  0.00     0.066 A 
HETATM    9  C   UNL     1       8.385  12.051  21.510  0.00  0.00     0.083 A 
HETATM   10  C   UNL     1       8.798  13.008  22.445  0.00  0.00     0.069 A 
ENDROOT
BRANCH   8  11
HETATM   11  C   UNL     1       6.537  11.044  19.999  0.00  0.00     0.260 C 
HETATM   12  O   UNL     1       6.901  11.223  18.833  0.00  0.00    -0.267 OA
HETATM   13  N   UNL     1       5.644   9.997  20.361  0.00  0.00    -0.318 N 
HETATM   14  C   UNL     1       5.006   9.867  21.671  0.00  0.00     0.159 C 
BRANCH  13  15
HETATM   15  C   UNL     1       5.274   8.998  19.368  0.00  0.00     0.037 A 
HETATM   16  C   UNL     1       4.382   9.297  18.338  0.00  0.00     0.032 A 
HETATM   17  C   UNL     1       3.966   8.326  17.413  0.00  0.00     0.031 A 
HETATM   18  C   UNL     1       4.418   7.003  17.456  0.00  0.00     0.030 A 
HETATM   19  C   UNL     1       5.383   6.726  18.431  0.00  0.00     0.031 A 
HETATM   20  C   UNL     1       5.806   7.698  19.370  0.00  0.00     0.032 A 
BRANCH  18  21
HETATM   21  N   UNL     1       3.912   6.052  16.596  0.00  0.00    -0.377 N 
HETATM   22  C   UNL     1       3.679   4.645  16.943  0.00  0.00     0.149 C 
HETATM   23  C   UNL     1       2.212   4.269  16.680  0.00  0.00     0.187 C 
HETATM   24  O   UNL     1       1.825   4.559  15.326  0.00  0.00    -0.388 OA
HETATM   25  C   UNL     1       1.988   5.962  15.055  0.00  0.00     0.187 C 
HETATM   26  C   UNL     1       3.445   6.417  15.245  0.00  0.00     0.149 C 
ENDBRANCH  18  21
ENDBRANCH  13  15
ENDBRANCH   8  11
BRANCH   9  27
HETATM   27  O   UNL     1       9.303  11.059  21.301  0.00  0.00    -0.360 OA
HETATM   28  H   UNL     1       8.841  10.331  20.846  0.00  0.00     0.217 HD
ENDBRANCH   9  27
BRANCH   1  29
HETATM   29  C   UNL     1       4.392  15.180  23.376  0.00  0.00     0.275 C 
HETATM   30  N   UNL     1       3.473  14.129  23.388  0.00  0.00    -0.347 N 
HETATM   31  C   UNL     1       3.760  12.713  23.561  0.00  0.00     0.126 C 
HETATM   32  C   UNL     1       2.041  14.365  23.318  0.00  0.00     0.126 C 
HETATM   33  C   UNL     1       2.420  12.086  23.920  0.00  0.00     0.021 C 
HETATM   34  C   UNL     1       1.420  12.977  23.199  0.00  0.00     0.021 C 
HETATM   35  O   UNL     1       4.000  16.349  23.388  0.00  0.00    -0.266 OA
ENDBRANCH   1  29
TORSDOF 5
ENDMDL
