REMARK  8 active torsions:
REMARK  status: ('A' for Active; 'I' for Inactive)
REMARK    1  A    between atoms: C_2  and  C_3 
REMARK    2  A    between atoms: C_3  and  C_4 
REMARK    3  A    between atoms: C_4  and  N_5 
REMARK       I    between atoms: N_5  and  C_7 
REMARK    4  A    between atoms: C_7  and  C_9 
REMARK    5  A    between atoms: C_16  and  C_20 
REMARK    6  A    between atoms: C_17  and  O_19 
REMARK       I    between atoms: C_20  and  N_22 
REMARK    7  A    between atoms: N_22  and  C_24 
REMARK    8  A    between atoms: C_27  and  N_30 
ROOT
HETATM    1  C   UNL     1       7.023  -1.631  -4.138  0.00  0.00     0.157 A 
HETATM    2  N   UNL     1       7.365  -0.800  -5.146  0.00  0.00    -0.168 NA
HETATM    3  N   UNL     1       7.623  -1.614  -6.181  0.00  0.00    -0.277 N 
HETATM    4  H   UNL     1       7.922  -1.196  -7.056  0.00  0.00     0.189 HD
HETATM    5  C   UNL     1       7.045  -2.987  -4.587  0.00  0.00     0.029 A 
HETATM    6  C   UNL     1       7.452  -2.941  -5.913  0.00  0.00     0.065 A 
HETATM    7  C   UNL     1       6.780  -4.240  -4.007  0.00  0.00     0.036 C 
HETATM    8  C   UNL     1       6.828  -5.404  -4.789  0.00  0.00     0.066 C 
HETATM    9  C   UNL     1       7.342  -5.316  -6.092  0.00  0.00     0.083 C 
HETATM   10  C   UNL     1       7.641  -4.085  -6.691  0.00  0.00     0.069 C 
ENDROOT
BRANCH   8  11
HETATM   11  C   UNL     1       6.381  -6.729  -4.228  0.00  0.00     0.260 C 
HETATM   12  O   UNL     1       7.029  -7.713  -4.594  0.00  0.00    -0.267 OA
HETATM   13  N   UNL     1       5.296  -6.797  -3.334  0.00  0.00    -0.318 N 
HETATM   14  C   UNL     1       4.969  -8.054  -2.679  0.00  0.00     0.159 C 
BRANCH  13  15
HETATM   15  C   UNL     1       4.369  -5.745  -3.138  0.00  0.00     0.037 A 
HETATM   16  C   UNL     1       3.628  -5.260  -4.212  0.00  0.00     0.032 A 
HETATM   17  C   UNL     1       2.882  -4.085  -4.073  0.00  0.00     0.031 A 
HETATM   18  C   UNL     1       2.875  -3.350  -2.878  0.00  0.00     0.030 A 
HETATM   19  C   UNL     1       3.568  -3.909  -1.792  0.00  0.00     0.031 A 
HETATM   20  C   UNL     1       4.283  -5.109  -1.901  0.00  0.00     0.032 A 
BRANCH  18  21
HETATM   21  N   UNL     1       2.199  -2.156  -2.754  0.00  0.00    -0.377 N 
HETATM   22  C   UNL     1       1.102  -1.755  -3.643  0.00  0.00     0.149 C 
HETATM   23  C   UNL     1      -0.004  -1.145  -2.769  0.00  0.00     0.187 C 
HETATM   24  O   UNL     1       0.478  -0.010  -2.027  0.00  0.00    -0.388 OA
HETATM   25  C   UNL     1       1.571  -0.397  -1.167  0.00  0.00     0.187 C 
HETATM   26  C   UNL     1       2.726  -1.031  -1.961  0.00  0.00     0.149 C 
ENDBRANCH  18  21
ENDBRANCH  13  15
ENDBRANCH   8  11
BRANCH   9  27
HETATM   27  O   UNL     1       7.628  -6.424  -6.847  0.00  0.00    -0.360 OA
HETATM   28  H   UNL     1       7.696  -7.184  -6.227  0.00  0.00     0.217 HD
ENDBRANCH   9  27
BRANCH   1  29
HETATM   29  C   UNL     1       6.643  -1.182  -2.774  0.00  0.00     0.274 C 
HETATM   30  N   UNL     1       7.043   0.091  -2.328  0.00  0.00    -0.351 N 
HETATM   31  C   UNL     1       8.162   0.789  -2.941  0.00  0.00     0.152 C 
HETATM   32  O   UNL     1       6.005  -1.927  -2.027  0.00  0.00    -0.266 OA
BRANCH  30  33
HETATM   33  C   UNL     1       6.594   0.539  -1.009  0.00  0.00     0.125 C 
BRANCH  33  34
HETATM   34  C   UNL     1       6.124   1.995  -0.967  0.00  0.00     0.020 C 
BRANCH  34  35
HETATM   35  C   UNL     1       4.928   2.260  -1.882  0.00  0.00    -0.003 C 
HETATM   36  C   UNL     1       4.491   3.714  -1.811  0.00  0.00     0.005 C 
ENDBRANCH  34  35
ENDBRANCH  33  34
ENDBRANCH  30  33
ENDBRANCH   1  29
TORSDOF 8
