MODEL 1
REMARK VINA RESULT:    -8.070      0.000      0.000
REMARK INTER + INTRA:          -9.449
REMARK INTER:                  -9.018
REMARK INTRA:                  -0.430
REMARK UNBOUND:                -0.435
REMARK  3 active torsions:
REMARK  status: ('A' for Active; 'I' for Inactive)
REMARK    1  A    between atoms: O_1  and  C_2 
REMARK    2  A    between atoms: C_9  and  N_10 
REMARK    3  A    between atoms: C_12  and  C_13 
REMARK       I    between atoms: C_13  and  N_15 
ROOT
HETATM    1  C   UNL     1       8.823  12.413  19.396  0.00  0.00     0.066 A 
HETATM    2  C   UNL     1       8.022  11.835  20.373  0.00  0.00     0.053 A 
HETATM    3  C   UNL     1      10.191  12.494  19.570  0.00  0.00     0.039 A 
HETATM    4  C   UNL     1      10.761  11.980  20.734  0.00  0.00     0.035 A 
HETATM    5  C   UNL     1       9.995  11.373  21.721  0.00  0.00     0.073 A 
HETATM    6  C   UNL     1       8.606  11.299  21.556  0.00  0.00     0.030 A 
HETATM    7  N   UNL     1      10.635  10.899  22.794  0.00  0.00    -0.218 NA
HETATM    8  C   UNL     1       9.921  10.281  23.727  0.00  0.00     0.200 A 
HETATM    9  N   UNL     1       8.604  10.158  23.705  0.00  0.00    -0.212 NA
HETATM   10  C   UNL     1       7.954  10.694  22.642  0.00  0.00     0.140 A 
ENDROOT
BRANCH  10  11
HETATM   11  C   UNL     1       6.442  10.659  22.766  0.00  0.00     0.273 C 
HETATM   12  O   UNL     1       5.820   9.645  22.455  0.00  0.00    -0.266 OA
HETATM   13  N   UNL     1       5.801  11.816  23.204  0.00  0.00    -0.342 N 
HETATM   14  C   UNL     1       4.352  11.911  23.396  0.00  0.00     0.139 C 
HETATM   15  C   UNL     1       6.453  13.071  23.510  0.00  0.00     0.161 C 
HETATM   16  C   UNL     1       4.038  13.385  23.102  0.00  0.00     0.056 C 
HETATM   17  C   UNL     1       5.345  14.063  23.439  0.00  0.00    -0.056 C 
HETATM   18  C   UNL     1       2.883  14.069  23.790  0.00  0.00    -0.020 C 
HETATM   19  C   UNL     1       5.431  15.371  23.729  0.00  0.00    -0.018 C 
HETATM   20  C   UNL     1       4.190  16.217  23.818  0.00  0.00     0.054 C 
HETATM   21  C   UNL     1       2.951  15.386  24.080  0.00  0.00    -0.026 C 
ENDBRANCH  10  11
BRANCH   8  22
HETATM   22  N   UNL     1      10.583   9.811  24.838  0.00  0.00    -0.271 NA
HETATM   23  H   UNL     1      10.407   8.823  24.964  0.00  0.00     0.127 HD
HETATM   24  H   UNL     1      11.544  10.120  24.848  0.00  0.00     0.127 HD
ENDBRANCH   8  22
BRANCH   1  25
HETATM   25  O   UNL     1       8.302  12.908  18.239  0.00  0.00    -0.361 OA
HETATM   26  H   UNL     1       7.795  13.712  18.440  0.00  0.00     0.217 HD
ENDBRANCH   1  25
TORSDOF 3
ENDMDL
MODEL 2
REMARK VINA RESULT:    -7.557      7.339      9.937
REMARK INTER + INTRA:          -8.876
REMARK INTER:                  -8.535
REMARK INTRA:                  -0.341
REMARK UNBOUND:                -0.435
REMARK  3 active torsions:
REMARK  status: ('A' for Active; 'I' for Inactive)
REMARK    1  A    between atoms: O_1  and  C_2 
REMARK    2  A    between atoms: C_9  and  N_10 
REMARK    3  A    between atoms: C_12  and  C_13 
REMARK       I    between atoms: C_13  and  N_15 
ROOT
HETATM    1  C   UNL     1       2.048  14.002  25.339  0.00  0.00     0.066 A 
HETATM    2  C   UNL     1       0.975  13.256  25.811  0.00  0.00     0.053 A 
HETATM    3  C   UNL     1       2.104  14.389  24.013  0.00  0.00     0.039 A 
HETATM    4  C   UNL     1       1.065  14.030  23.155  0.00  0.00     0.035 A 
HETATM    5  C   UNL     1      -0.035  13.308  23.597  0.00  0.00     0.073 A 
HETATM    6  C   UNL     1      -0.092  12.902  24.937  0.00  0.00     0.030 A 
HETATM    7  N   UNL     1      -0.986  13.024  22.702  0.00  0.00    -0.218 NA
HETATM    8  C   UNL     1      -2.063  12.367  23.117  0.00  0.00     0.200 A 
HETATM    9  N   UNL     1      -2.234  11.911  24.347  0.00  0.00    -0.212 NA
HETATM   10  C   UNL     1      -1.239  12.151  25.237  0.00  0.00     0.140 A 
ENDROOT
BRANCH  10  11
HETATM   11  C   UNL     1      -1.432  11.459  26.574  0.00  0.00     0.273 C 
HETATM   12  O   UNL     1      -1.787  12.105  27.557  0.00  0.00    -0.266 OA
HETATM   13  N   UNL     1      -1.158  10.095  26.642  0.00  0.00    -0.342 N 
HETATM   14  C   UNL     1      -1.329   9.299  27.861  0.00  0.00     0.139 C 
HETATM   15  C   UNL     1      -0.659   9.283  25.553  0.00  0.00     0.161 C 
HETATM   16  C   UNL     1      -0.259   8.204  27.738  0.00  0.00     0.056 C 
HETATM   17  C   UNL     1      -0.086   8.094  26.241  0.00  0.00    -0.056 C 
HETATM   18  C   UNL     1      -0.485   6.847  28.355  0.00  0.00    -0.020 C 
HETATM   19  C   UNL     1       0.429   7.005  25.648  0.00  0.00    -0.018 C 
HETATM   20  C   UNL     1       0.783   5.788  26.459  0.00  0.00     0.054 C 
HETATM   21  C   UNL     1       0.034   5.744  27.775  0.00  0.00    -0.026 C 
ENDBRANCH  10  11
BRANCH   8  22
HETATM   22  N   UNL     1      -3.030  12.063  22.188  0.00  0.00    -0.271 NA
HETATM   23  H   UNL     1      -3.361  11.116  22.317  0.00  0.00     0.127 HD
HETATM   24  H   UNL     1      -3.722  12.796  22.128  0.00  0.00     0.127 HD
ENDBRANCH   8  22
BRANCH   1  25
HETATM   25  O   UNL     1       3.070  14.385  26.153  0.00  0.00    -0.361 OA
HETATM   26  H   UNL     1       3.029  15.348  26.280  0.00  0.00     0.217 HD
ENDBRANCH   1  25
TORSDOF 3
ENDMDL
MODEL 3
REMARK VINA RESULT:    -7.556      3.012      3.935
REMARK INTER + INTRA:          -8.874
REMARK INTER:                  -8.529
REMARK INTRA:                  -0.345
REMARK UNBOUND:                -0.435
REMARK  3 active torsions:
REMARK  status: ('A' for Active; 'I' for Inactive)
REMARK    1  A    between atoms: O_1  and  C_2 
REMARK    2  A    between atoms: C_9  and  N_10 
REMARK    3  A    between atoms: C_12  and  C_13 
REMARK       I    between atoms: C_13  and  N_15 
ROOT
HETATM    1  C   UNL     1       9.276  10.679  21.611  0.00  0.00     0.066 A 
HETATM    2  C   UNL     1       9.240  11.746  22.500  0.00  0.00     0.053 A 
HETATM    3  C   UNL     1       9.630  10.879  20.290  0.00  0.00     0.039 A 
HETATM    4  C   UNL     1       9.960  12.163  19.860  0.00  0.00     0.035 A 
HETATM    5  C   UNL     1       9.959  13.249  20.726  0.00  0.00     0.073 A 
HETATM    6  C   UNL     1       9.590  13.056  22.063  0.00  0.00     0.030 A 
HETATM    7  N   UNL     1      10.304  14.439  20.222  0.00  0.00    -0.218 NA
HETATM    8  C   UNL     1      10.345  15.480  21.046  0.00  0.00     0.200 A 
HETATM    9  N   UNL     1      10.005  15.439  22.323  0.00  0.00    -0.212 NA
HETATM   10  C   UNL     1       9.599  14.242  22.814  0.00  0.00     0.140 A 
ENDROOT
BRANCH  10  11
HETATM   11  C   UNL     1       9.070  14.309  24.235  0.00  0.00     0.273 C 
HETATM   12  O   UNL     1       9.759  13.904  25.170  0.00  0.00    -0.266 OA
HETATM   13  N   UNL     1       7.782  14.804  24.424  0.00  0.00    -0.342 N 
HETATM   14  C   UNL     1       7.160  14.951  25.743  0.00  0.00     0.139 C 
HETATM   15  C   UNL     1       6.881  15.222  23.371  0.00  0.00     0.161 C 
HETATM   16  C   UNL     1       5.662  14.751  25.467  0.00  0.00     0.056 C 
HETATM   17  C   UNL     1       5.544  15.183  24.024  0.00  0.00    -0.056 C 
HETATM   18  C   UNL     1       4.632  15.443  26.323  0.00  0.00    -0.020 C 
HETATM   19  C   UNL     1       4.380  15.568  23.475  0.00  0.00    -0.018 C 
HETATM   20  C   UNL     1       3.137  15.671  24.315  0.00  0.00     0.054 C 
HETATM   21  C   UNL     1       3.454  15.829  25.787  0.00  0.00    -0.026 C 
ENDBRANCH  10  11
BRANCH   8  22
HETATM   22  N   UNL     1      10.683  16.705  20.518  0.00  0.00    -0.271 NA
HETATM   23  H   UNL     1      10.733  17.403  21.248  0.00  0.00     0.127 HD
HETATM   24  H   UNL     1      11.470  16.627  19.890  0.00  0.00     0.127 HD
ENDBRANCH   8  22
BRANCH   1  25
HETATM   25  O   UNL     1       8.979   9.409  22.001  0.00  0.00    -0.361 OA
HETATM   26  H   UNL     1       9.756   9.021  22.436  0.00  0.00     0.217 HD
ENDBRANCH   1  25
TORSDOF 3
ENDMDL
MODEL 4
REMARK VINA RESULT:    -7.549      6.003      9.304
REMARK INTER + INTRA:          -8.866
REMARK INTER:                  -8.794
REMARK INTRA:                  -0.073
REMARK UNBOUND:                -0.435
REMARK  3 active torsions:
REMARK  status: ('A' for Active; 'I' for Inactive)
REMARK    1  A    between atoms: O_1  and  C_2 
REMARK    2  A    between atoms: C_9  and  N_10 
REMARK    3  A    between atoms: C_12  and  C_13 
REMARK       I    between atoms: C_13  and  N_15 
ROOT
HETATM    1  C   UNL     1      -0.995   8.397  28.714  0.00  0.00     0.066 A 
HETATM    2  C   UNL     1      -0.789   9.290  27.670  0.00  0.00     0.053 A 
HETATM    3  C   UNL     1      -0.904   7.035  28.499  0.00  0.00     0.039 A 
HETATM    4  C   UNL     1      -0.591   6.566  27.224  0.00  0.00     0.035 A 
HETATM    5  C   UNL     1      -0.353   7.429  26.162  0.00  0.00     0.073 A 
HETATM    6  C   UNL     1      -0.457   8.811  26.371  0.00  0.00     0.030 A 
HETATM    7  N   UNL     1      -0.047   6.884  24.981  0.00  0.00    -0.218 NA
HETATM    8  C   UNL     1       0.221   7.697  23.966  0.00  0.00     0.200 A 
HETATM    9  N   UNL     1       0.143   9.016  24.022  0.00  0.00    -0.212 NA
HETATM   10  C   UNL     1      -0.226   9.562  25.207  0.00  0.00     0.140 A 
ENDROOT
BRANCH  10  11
HETATM   11  C   UNL     1      -0.454  11.061  25.149  0.00  0.00     0.273 C 
HETATM   12  O   UNL     1      -1.588  11.518  25.272  0.00  0.00    -0.266 OA
HETATM   13  N   UNL     1       0.652  11.876  24.916  0.00  0.00    -0.342 N 
HETATM   14  C   UNL     1       0.579  13.339  24.864  0.00  0.00     0.139 C 
HETATM   15  C   UNL     1       2.002  11.411  24.680  0.00  0.00     0.161 C 
HETATM   16  C   UNL     1       1.693  13.728  23.882  0.00  0.00     0.056 C 
HETATM   17  C   UNL     1       2.659  12.574  24.022  0.00  0.00    -0.056 C 
HETATM   18  C   UNL     1       2.408  15.048  24.026  0.00  0.00    -0.020 C 
HETATM   19  C   UNL     1       3.953  12.665  23.678  0.00  0.00    -0.018 C 
HETATM   20  C   UNL     1       4.530  13.973  23.211  0.00  0.00     0.054 C 
HETATM   21  C   UNL     1       3.708  15.156  23.677  0.00  0.00    -0.026 C 
ENDBRANCH  10  11
BRANCH   8  22
HETATM   22  N   UNL     1       0.518   7.131  22.748  0.00  0.00    -0.271 NA
HETATM   23  H   UNL     1       0.673   6.136  22.848  0.00  0.00     0.127 HD
HETATM   24  H   UNL     1      -0.131   7.434  22.037  0.00  0.00     0.127 HD
ENDBRANCH   8  22
BRANCH   1  25
HETATM   25  O   UNL     1      -1.284   8.820  29.976  0.00  0.00    -0.361 OA
HETATM   26  H   UNL     1      -1.336   9.790  29.979  0.00  0.00     0.217 HD
ENDBRANCH   1  25
TORSDOF 3
ENDMDL
MODEL 5
REMARK VINA RESULT:    -7.460      6.375      8.908
REMARK INTER + INTRA:          -8.767
REMARK INTER:                  -8.316
REMARK INTRA:                  -0.451
REMARK UNBOUND:                -0.435
REMARK  3 active torsions:
REMARK  status: ('A' for Active; 'I' for Inactive)
REMARK    1  A    between atoms: O_1  and  C_2 
REMARK    2  A    between atoms: C_9  and  N_10 
REMARK    3  A    between atoms: C_12  and  C_13 
REMARK       I    between atoms: C_13  and  N_15 
ROOT
HETATM    1  C   UNL     1       0.510   8.213  24.134  0.00  0.00     0.066 A 
HETATM    2  C   UNL     1       0.103   9.541  24.152  0.00  0.00     0.053 A 
HETATM    3  C   UNL     1       0.282   7.396  25.226  0.00  0.00     0.039 A 
HETATM    4  C   UNL     1      -0.370   7.918  26.343  0.00  0.00     0.035 A 
HETATM    5  C   UNL     1      -0.813   9.233  26.386  0.00  0.00     0.073 A 
HETATM    6  C   UNL     1      -0.575  10.070  25.287  0.00  0.00     0.030 A 
HETATM    7  N   UNL     1      -1.440   9.636  27.495  0.00  0.00    -0.218 NA
HETATM    8  C   UNL     1      -1.904  10.880  27.536  0.00  0.00     0.200 A 
HETATM    9  N   UNL     1      -1.732  11.776  26.579  0.00  0.00    -0.212 NA
HETATM   10  C   UNL     1      -1.043  11.379  25.480  0.00  0.00     0.140 A 
ENDROOT
BRANCH  10  11
HETATM   11  C   UNL     1      -0.745  12.502  24.504  0.00  0.00     0.273 C 
HETATM   12  O   UNL     1      -1.494  12.706  23.550  0.00  0.00    -0.266 OA
HETATM   13  N   UNL     1       0.411  13.251  24.712  0.00  0.00    -0.342 N 
HETATM   14  C   UNL     1       0.803  14.380  23.864  0.00  0.00     0.139 C 
HETATM   15  C   UNL     1       1.383  13.021  25.760  0.00  0.00     0.161 C 
HETATM   16  C   UNL     1       2.338  14.368  23.923  0.00  0.00     0.056 C 
HETATM   17  C   UNL     1       2.600  13.718  25.262  0.00  0.00    -0.056 C 
HETATM   18  C   UNL     1       3.114  15.654  23.788  0.00  0.00    -0.020 C 
HETATM   19  C   UNL     1       3.759  13.863  25.924  0.00  0.00    -0.018 C 
HETATM   20  C   UNL     1       4.836  14.768  25.391  0.00  0.00     0.054 C 
HETATM   21  C   UNL     1       4.285  15.811  24.441  0.00  0.00    -0.026 C 
ENDBRANCH  10  11
BRANCH   8  22
HETATM   22  N   UNL     1      -2.532  11.295  28.688  0.00  0.00    -0.271 NA
HETATM   23  H   UNL     1      -3.283  11.936  28.471  0.00  0.00     0.127 HD
HETATM   24  H   UNL     1      -2.745  10.512  29.289  0.00  0.00     0.127 HD
ENDBRANCH   8  22
BRANCH   1  25
HETATM   25  O   UNL     1       1.132   7.666  23.054  0.00  0.00    -0.361 OA
HETATM   26  H   UNL     1       2.092   7.670  23.206  0.00  0.00     0.217 HD
ENDBRANCH   1  25
TORSDOF 3
ENDMDL
MODEL 6
REMARK VINA RESULT:    -7.413      3.302      3.713
REMARK INTER + INTRA:          -8.714
REMARK INTER:                  -8.393
REMARK INTRA:                  -0.321
REMARK UNBOUND:                -0.435
REMARK  3 active torsions:
REMARK  status: ('A' for Active; 'I' for Inactive)
REMARK    1  A    between atoms: O_1  and  C_2 
REMARK    2  A    between atoms: C_9  and  N_10 
REMARK    3  A    between atoms: C_12  and  C_13 
REMARK       I    between atoms: C_13  and  N_15 
ROOT
HETATM    1  C   UNL     1       9.745  15.578  21.423  0.00  0.00     0.066 A 
HETATM    2  C   UNL     1       9.025  14.640  22.152  0.00  0.00     0.053 A 
HETATM    3  C   UNL     1      10.412  16.603  22.066  0.00  0.00     0.039 A 
HETATM    4  C   UNL     1      10.362  16.681  23.458  0.00  0.00     0.035 A 
HETATM    5  C   UNL     1       9.673  15.747  24.221  0.00  0.00     0.073 A 
HETATM    6  C   UNL     1       8.985  14.712  23.574  0.00  0.00     0.030 A 
HETATM    7  N   UNL     1       9.695  15.899  25.548  0.00  0.00    -0.218 NA
HETATM    8  C   UNL     1       9.074  14.992  26.293  0.00  0.00     0.200 A 
HETATM    9  N   UNL     1       8.374  13.979  25.812  0.00  0.00    -0.212 NA
HETATM   10  C   UNL     1       8.306  13.864  24.462  0.00  0.00     0.140 A 
ENDROOT
BRANCH  10  11
HETATM   11  C   UNL     1       7.354  12.781  23.986  0.00  0.00     0.273 C 
HETATM   12  O   UNL     1       7.797  11.727  23.533  0.00  0.00    -0.266 OA
HETATM   13  N   UNL     1       5.988  13.046  24.049  0.00  0.00    -0.342 N 
HETATM   14  C   UNL     1       4.961  12.079  23.649  0.00  0.00     0.139 C 
HETATM   15  C   UNL     1       5.394  14.289  24.491  0.00  0.00     0.161 C 
HETATM   16  C   UNL     1       3.807  12.958  23.145  0.00  0.00     0.056 C 
HETATM   17  C   UNL     1       4.021  14.239  23.917  0.00  0.00    -0.056 C 
HETATM   18  C   UNL     1       2.380  12.486  23.272  0.00  0.00    -0.020 C 
HETATM   19  C   UNL     1       3.044  15.138  24.118  0.00  0.00    -0.018 C 
HETATM   20  C   UNL     1       1.642  14.859  23.648  0.00  0.00     0.054 C 
HETATM   21  C   UNL     1       1.386  13.378  23.466  0.00  0.00    -0.026 C 
ENDBRANCH  10  11
BRANCH   8  22
HETATM   22  N   UNL     1       9.085  15.163  27.658  0.00  0.00    -0.271 NA
HETATM   23  H   UNL     1      10.002  14.961  28.034  0.00  0.00     0.127 HD
HETATM   24  H   UNL     1       8.655  16.039  27.919  0.00  0.00     0.127 HD
ENDBRANCH   8  22
BRANCH   1  25
HETATM   25  O   UNL     1       9.831  15.521  20.065  0.00  0.00    -0.361 OA
HETATM   26  H   UNL     1      10.738  15.742  19.796  0.00  0.00     0.217 HD
ENDBRANCH   1  25
TORSDOF 3
ENDMDL
MODEL 7
REMARK VINA RESULT:    -7.312      3.078      5.327
REMARK INTER + INTRA:          -8.602
REMARK INTER:                  -8.143
REMARK INTRA:                  -0.459
REMARK UNBOUND:                -0.435
REMARK  3 active torsions:
REMARK  status: ('A' for Active; 'I' for Inactive)
REMARK    1  A    between atoms: O_1  and  C_2 
REMARK    2  A    between atoms: C_9  and  N_10 
REMARK    3  A    between atoms: C_12  and  C_13 
REMARK       I    between atoms: C_13  and  N_15 
ROOT
HETATM    1  C   UNL     1       5.577   7.729  23.715  0.00  0.00     0.066 A 
HETATM    2  C   UNL     1       6.026   8.774  22.917  0.00  0.00     0.053 A 
HETATM    3  C   UNL     1       4.676   6.806  23.217  0.00  0.00     0.039 A 
HETATM    4  C   UNL     1       4.231   6.929  21.902  0.00  0.00     0.035 A 
HETATM    5  C   UNL     1       4.679   7.945  21.067  0.00  0.00     0.073 A 
HETATM    6  C   UNL     1       5.582   8.891  21.569  0.00  0.00     0.030 A 
HETATM    7  N   UNL     1       4.204   7.971  19.818  0.00  0.00    -0.218 NA
HETATM    8  C   UNL     1       4.652   8.913  18.997  0.00  0.00     0.200 A 
HETATM    9  N   UNL     1       5.489   9.876  19.346  0.00  0.00    -0.212 NA
HETATM   10  C   UNL     1       5.921   9.879  20.632  0.00  0.00     0.140 A 
ENDROOT
BRANCH  10  11
HETATM   11  C   UNL     1       6.743  11.101  20.999  0.00  0.00     0.273 C 
HETATM   12  O   UNL     1       7.957  11.110  20.804  0.00  0.00    -0.266 OA
HETATM   13  N   UNL     1       6.079  12.175  21.589  0.00  0.00    -0.342 N 
HETATM   14  C   UNL     1       6.745  13.425  21.966  0.00  0.00     0.139 C 
HETATM   15  C   UNL     1       4.672  12.209  21.925  0.00  0.00     0.161 C 
HETATM   16  C   UNL     1       5.941  13.918  23.178  0.00  0.00     0.056 C 
HETATM   17  C   UNL     1       4.583  13.303  22.931  0.00  0.00    -0.056 C 
HETATM   18  C   UNL     1       5.819  15.394  23.460  0.00  0.00    -0.020 C 
HETATM   19  C   UNL     1       3.458  13.778  23.490  0.00  0.00    -0.018 C 
HETATM   20  C   UNL     1       3.491  15.022  24.334  0.00  0.00     0.054 C 
HETATM   21  C   UNL     1       4.698  15.885  24.029  0.00  0.00    -0.026 C 
ENDBRANCH  10  11
BRANCH   8  22
HETATM   22  N   UNL     1       4.147   8.945  17.717  0.00  0.00    -0.271 NA
HETATM   23  H   UNL     1       4.724   9.525  17.123  0.00  0.00     0.127 HD
HETATM   24  H   UNL     1       3.924   8.016  17.391  0.00  0.00     0.127 HD
ENDBRANCH   8  22
BRANCH   1  25
HETATM   25  O   UNL     1       6.004   7.569  24.997  0.00  0.00    -0.361 OA
HETATM   26  H   UNL     1       6.140   8.444  25.397  0.00  0.00     0.217 HD
ENDBRANCH   1  25
TORSDOF 3
ENDMDL
MODEL 8
REMARK VINA RESULT:    -7.252      2.671      3.861
REMARK INTER + INTRA:          -8.535
REMARK INTER:                  -8.099
REMARK INTRA:                  -0.435
REMARK UNBOUND:                -0.435
REMARK  3 active torsions:
REMARK  status: ('A' for Active; 'I' for Inactive)
REMARK    1  A    between atoms: O_1  and  C_2 
REMARK    2  A    between atoms: C_9  and  N_10 
REMARK    3  A    between atoms: C_12  and  C_13 
REMARK       I    between atoms: C_13  and  N_15 
ROOT
HETATM    1  C   UNL     1       4.710   9.046  19.088  0.00  0.00     0.066 A 
HETATM    2  C   UNL     1       5.392   9.848  19.994  0.00  0.00     0.053 A 
HETATM    3  C   UNL     1       4.535   7.699  19.338  0.00  0.00     0.039 A 
HETATM    4  C   UNL     1       5.042   7.154  20.517  0.00  0.00     0.035 A 
HETATM    5  C   UNL     1       5.706   7.929  21.458  0.00  0.00     0.073 A 
HETATM    6  C   UNL     1       5.898   9.294  21.205  0.00  0.00     0.030 A 
HETATM    7  N   UNL     1       6.144   7.318  22.564  0.00  0.00    -0.218 NA
HETATM    8  C   UNL     1       6.746   8.054  23.490  0.00  0.00     0.200 A 
HETATM    9  N   UNL     1       7.007   9.345  23.369  0.00  0.00    -0.212 NA
HETATM   10  C   UNL     1       6.614   9.948  22.220  0.00  0.00     0.140 A 
ENDROOT
BRANCH  10  11
HETATM   11  C   UNL     1       7.091  11.382  22.085  0.00  0.00     0.273 C 
HETATM   12  O   UNL     1       8.239  11.617  21.712  0.00  0.00    -0.266 OA
HETATM   13  N   UNL     1       6.201  12.396  22.430  0.00  0.00    -0.342 N 
HETATM   14  C   UNL     1       6.522  13.822  22.319  0.00  0.00     0.139 C 
HETATM   15  C   UNL     1       4.866  12.200  22.952  0.00  0.00     0.161 C 
HETATM   16  C   UNL     1       5.701  14.472  23.443  0.00  0.00     0.056 C 
HETATM   17  C   UNL     1       4.551  13.504  23.597  0.00  0.00    -0.056 C 
HETATM   18  C   UNL     1       5.198  15.886  23.298  0.00  0.00    -0.020 C 
HETATM   19  C   UNL     1       3.382  13.850  24.159  0.00  0.00    -0.018 C 
HETATM   20  C   UNL     1       3.130  15.269  24.588  0.00  0.00     0.054 C 
HETATM   21  C   UNL     1       4.028  16.251  23.864  0.00  0.00    -0.026 C 
ENDBRANCH  10  11
BRANCH   8  22
HETATM   22  N   UNL     1       7.210   7.416  24.618  0.00  0.00    -0.271 NA
HETATM   23  H   UNL     1       7.705   8.065  25.214  0.00  0.00     0.127 HD
HETATM   24  H   UNL     1       6.488   6.851  25.039  0.00  0.00     0.127 HD
ENDBRANCH   8  22
BRANCH   1  25
HETATM   25  O   UNL     1       4.186   9.549  17.936  0.00  0.00    -0.361 OA
HETATM   26  H   UNL     1       3.249   9.300  17.880  0.00  0.00     0.217 HD
ENDBRANCH   1  25
TORSDOF 3
ENDMDL
MODEL 9
REMARK VINA RESULT:    -7.159      3.252      4.390
REMARK INTER + INTRA:          -8.431
REMARK INTER:                  -7.996
REMARK INTRA:                  -0.435
REMARK UNBOUND:                -0.435
REMARK  3 active torsions:
REMARK  status: ('A' for Active; 'I' for Inactive)
REMARK    1  A    between atoms: O_1  and  C_2 
REMARK    2  A    between atoms: C_9  and  N_10 
REMARK    3  A    between atoms: C_12  and  C_13 
REMARK       I    between atoms: C_13  and  N_15 
ROOT
HETATM    1  C   UNL     1       9.259  14.917  25.500  0.00  0.00     0.066 A 
HETATM    2  C   UNL     1       8.365  14.157  24.755  0.00  0.00     0.053 A 
HETATM    3  C   UNL     1      10.129  15.788  24.873  0.00  0.00     0.039 A 
HETATM    4  C   UNL     1      10.094  15.904  23.484  0.00  0.00     0.035 A 
HETATM    5  C   UNL     1       9.198  15.180  22.709  0.00  0.00     0.073 A 
HETATM    6  C   UNL     1       8.321  14.286  23.337  0.00  0.00     0.030 A 
HETATM    7  N   UNL     1       9.232  15.370  21.387  0.00  0.00    -0.218 NA
HETATM    8  C   UNL     1       8.355  14.714  20.636  0.00  0.00     0.200 A 
HETATM    9  N   UNL     1       7.488  13.829  21.098  0.00  0.00    -0.212 NA
HETATM   10  C   UNL     1       7.498  13.596  22.434  0.00  0.00     0.140 A 
ENDROOT
BRANCH  10  11
HETATM   11  C   UNL     1       6.594  12.455  22.864  0.00  0.00     0.273 C 
HETATM   12  O   UNL     1       6.969  11.290  22.739  0.00  0.00    -0.266 OA
HETATM   13  N   UNL     1       5.334  12.778  23.362  0.00  0.00    -0.342 N 
HETATM   14  C   UNL     1       4.376  11.778  23.840  0.00  0.00     0.139 C 
HETATM   15  C   UNL     1       4.790  14.115  23.465  0.00  0.00     0.161 C 
HETATM   16  C   UNL     1       3.008  12.408  23.539  0.00  0.00     0.056 C 
HETATM   17  C   UNL     1       3.323  13.885  23.569  0.00  0.00    -0.056 C 
HETATM   18  C   UNL     1       1.818  12.094  24.411  0.00  0.00    -0.020 C 
HETATM   19  C   UNL     1       2.384  14.824  23.767  0.00  0.00    -0.018 C 
HETATM   20  C   UNL     1       0.962  14.432  24.062  0.00  0.00     0.054 C 
HETATM   21  C   UNL     1       0.861  13.026  24.613  0.00  0.00    -0.026 C 
ENDBRANCH  10  11
BRANCH   8  22
HETATM   22  N   UNL     1       8.407  14.900  19.274  0.00  0.00    -0.271 NA
HETATM   23  H   UNL     1       8.199  15.862  19.039  0.00  0.00     0.127 HD
HETATM   24  H   UNL     1       9.244  14.493  18.882  0.00  0.00     0.127 HD
ENDBRANCH   8  22
BRANCH   1  25
HETATM   25  O   UNL     1       9.307  14.842  26.858  0.00  0.00    -0.361 OA
HETATM   26  H   UNL     1       8.838  15.606  27.234  0.00  0.00     0.217 HD
ENDBRANCH   1  25
TORSDOF 3
ENDMDL
