MODEL 1
REMARK VINA RESULT:   -10.194      0.000      0.000
REMARK INTER + INTRA:         -16.943
REMARK INTER:                 -14.866
REMARK INTRA:                  -2.077
REMARK UNBOUND:                -2.577
REMARK  8 active torsions:
REMARK  status: ('A' for Active; 'I' for Inactive)
REMARK       I    between atoms: C_2  and  N_3 
REMARK    1  A    between atoms: C_2  and  C_18 
REMARK    2  A    between atoms: N_3  and  C_4 
REMARK    3  A    between atoms: C_4  and  C_5 
REMARK    4  A    between atoms: C_6  and  C_7 
REMARK    5  A    between atoms: C_19  and  O_20 
REMARK    6  A    between atoms: C_22  and  O_23 
REMARK    7  A    between atoms: C_24  and  C_25 
REMARK    8  A    between atoms: N_26  and  C_27 
ROOT
HETATM    1  C   UNL     1      -2.913  11.532  24.130  0.00  0.00     0.066 C 
HETATM    2  C   UNL     1      -4.294  11.453  24.339  0.00  0.00     0.084 C 
HETATM    3  C   UNL     1      -4.787  11.131  25.595  0.00  0.00     0.075 C 
HETATM    4  C   UNL     1      -3.899  10.803  26.620  0.00  0.00     0.082 C 
HETATM    5  C   UNL     1      -2.506  10.732  26.406  0.00  0.00     0.046 C 
HETATM    6  C   UNL     1      -2.022  11.104  25.142  0.00  0.00     0.038 C 
ENDROOT
BRANCH   1   7
HETATM    7  C   UNL     1      -2.336  12.034  22.856  0.00  0.00     0.256 C 
HETATM    8  O   UNL     1      -2.319  11.260  21.909  0.00  0.00    -0.267 OA
HETATM    9  N   UNL     1      -1.838  13.342  22.787  0.00  0.00    -0.348 N 
HETATM   10  C   UNL     1      -1.684  14.276  23.913  0.00  0.00     0.153 C 
BRANCH   9  11
HETATM   11  C   UNL     1      -1.257  13.796  21.508  0.00  0.00     0.165 C 
BRANCH  11  12
HETATM   12  C   UNL     1      -2.002  14.944  20.826  0.00  0.00    -0.029 A 
HETATM   13  C   UNL     1      -1.433  16.238  20.615  0.00  0.00    -0.017 A 
HETATM   14  C   UNL     1      -2.253  17.197  19.963  0.00  0.00     0.013 A 
HETATM   15  C   UNL     1      -3.559  16.924  19.548  0.00  0.00     0.001 A 
HETATM   16  C   UNL     1      -4.107  15.682  19.779  0.00  0.00     0.001 A 
HETATM   17  C   UNL     1      -3.345  14.718  20.427  0.00  0.00     0.010 A 
BRANCH  13  18
HETATM   18  C   UNL     1      -0.080  16.677  21.079  0.00  0.00    -0.008 A 
HETATM   19  C   UNL     1       1.039  16.796  20.253  0.00  0.00     0.128 A 
HETATM   20  N   UNL     1       2.302  17.095  20.656  0.00  0.00    -0.272 NA
HETATM   21  C   UNL     1       2.474  17.367  21.962  0.00  0.00     0.116 A 
HETATM   22  C   UNL     1       1.433  17.394  22.867  0.00  0.00     0.020 A 
HETATM   23  C   UNL     1       0.158  17.038  22.419  0.00  0.00     0.015 A 
ENDBRANCH  13  18
ENDBRANCH  11  12
ENDBRANCH   9  11
ENDBRANCH   1   7
BRANCH   2  24
HETATM   24  O   UNL     1      -5.236  11.698  23.376  0.00  0.00    -0.360 OA
HETATM   25  H   UNL     1      -5.459  10.865  22.921  0.00  0.00     0.217 HD
ENDBRANCH   2  24
BRANCH   5  26
HETATM   26  C   UNL     1      -1.651  10.081  27.449  0.00  0.00     0.172 A 
HETATM   27  N   UNL     1      -0.767   9.042  27.269  0.00  0.00    -0.244 N 
HETATM   28  C   UNL     1      -0.333   8.708  28.535  0.00  0.00     0.349 A 
HETATM   29  O   UNL     1       0.469   7.860  28.890  0.00  0.00    -0.245 OA
HETATM   30  N   UNL     1      -0.972   9.586  29.395  0.00  0.00    -0.226 N 
HETATM   31  N   UNL     1      -1.792  10.418  28.709  0.00  0.00    -0.151 NA
HETATM   32  H   UNL     1      -0.830   9.652  30.394  0.00  0.00     0.194 HD
BRANCH  27  33
HETATM   33  C   UNL     1      -0.254   8.408  26.122  0.00  0.00     0.051 C 
HETATM   34  C   UNL     1       0.697   9.003  25.278  0.00  0.00    -0.035 C 
HETATM   35  C   UNL     1       1.501  10.214  25.670  0.00  0.00     0.050 C 
HETATM   36  C   UNL     1       1.094   8.327  24.107  0.00  0.00     0.009 C 
HETATM   37  C   UNL     1       0.634   7.043  23.827  0.00  0.00     0.001 C 
HETATM   38  C   UNL     1      -0.208   6.400  24.731  0.00  0.00     0.002 C 
HETATM   39  C   UNL     1      -0.650   7.081  25.867  0.00  0.00     0.031 C 
ENDBRANCH  27  33
ENDBRANCH   5  26
BRANCH   4  40
HETATM   40  O   UNL     1      -4.437  10.565  27.858  0.00  0.00    -0.360 OA
HETATM   41  H   UNL     1      -4.814  11.393  28.200  0.00  0.00     0.217 HD
ENDBRANCH   4  40
TORSDOF 8
ENDMDL
MODEL 2
REMARK VINA RESULT:    -9.734      1.352      3.263
REMARK INTER + INTRA:         -16.295
REMARK INTER:                 -14.013
REMARK INTRA:                  -2.283
REMARK UNBOUND:                -2.577
REMARK  8 active torsions:
REMARK  status: ('A' for Active; 'I' for Inactive)
REMARK       I    between atoms: C_2  and  N_3 
REMARK    1  A    between atoms: C_2  and  C_18 
REMARK    2  A    between atoms: N_3  and  C_4 
REMARK    3  A    between atoms: C_4  and  C_5 
REMARK    4  A    between atoms: C_6  and  C_7 
REMARK    5  A    between atoms: C_19  and  O_20 
REMARK    6  A    between atoms: C_22  and  O_23 
REMARK    7  A    between atoms: C_24  and  C_25 
REMARK    8  A    between atoms: N_26  and  C_27 
ROOT
HETATM    1  C   UNL     1      -3.060  11.385  24.018  0.00  0.00     0.066 C 
HETATM    2  C   UNL     1      -4.433  11.346  24.284  0.00  0.00     0.084 C 
HETATM    3  C   UNL     1      -4.883  11.101  25.573  0.00  0.00     0.075 C 
HETATM    4  C   UNL     1      -3.962  10.807  26.579  0.00  0.00     0.082 C 
HETATM    5  C   UNL     1      -2.580  10.696  26.316  0.00  0.00     0.046 C 
HETATM    6  C   UNL     1      -2.138  10.991  25.017  0.00  0.00     0.038 C 
ENDROOT
BRANCH   1   7
HETATM    7  C   UNL     1      -2.524  11.807  22.698  0.00  0.00     0.256 C 
HETATM    8  O   UNL     1      -2.618  11.007  21.777  0.00  0.00    -0.267 OA
HETATM    9  N   UNL     1      -1.939  13.073  22.559  0.00  0.00    -0.348 N 
HETATM   10  C   UNL     1      -1.654  14.025  23.644  0.00  0.00     0.153 C 
BRANCH   9  11
HETATM   11  C   UNL     1      -1.403  13.447  21.236  0.00  0.00     0.165 C 
BRANCH  11  12
HETATM   12  C   UNL     1      -1.572  14.919  20.857  0.00  0.00    -0.029 A 
HETATM   13  C   UNL     1      -2.807  15.481  20.410  0.00  0.00    -0.017 A 
HETATM   14  C   UNL     1      -2.801  16.868  20.099  0.00  0.00     0.013 A 
HETATM   15  C   UNL     1      -1.660  17.666  20.203  0.00  0.00     0.001 A 
HETATM   16  C   UNL     1      -0.468  17.108  20.610  0.00  0.00     0.001 A 
HETATM   17  C   UNL     1      -0.425  15.752  20.910  0.00  0.00     0.010 A 
BRANCH  13  18
HETATM   18  C   UNL     1      -4.076  14.721  20.185  0.00  0.00    -0.008 A 
HETATM   19  C   UNL     1      -4.963  14.346  21.194  0.00  0.00     0.128 A 
HETATM   20  N   UNL     1      -6.070  13.572  21.040  0.00  0.00    -0.272 NA
HETATM   21  C   UNL     1      -6.373  13.191  19.786  0.00  0.00     0.116 A 
HETATM   22  C   UNL     1      -5.643  13.584  18.684  0.00  0.00     0.020 A 
HETATM   23  C   UNL     1      -4.488  14.343  18.892  0.00  0.00     0.015 A 
ENDBRANCH  13  18
ENDBRANCH  11  12
ENDBRANCH   9  11
ENDBRANCH   1   7
BRANCH   2  24
HETATM   24  O   UNL     1      -5.408  11.560  23.346  0.00  0.00    -0.360 OA
HETATM   25  H   UNL     1      -5.945  12.331  23.606  0.00  0.00     0.217 HD
ENDBRANCH   2  24
BRANCH   5  26
HETATM   26  C   UNL     1      -1.697  10.082  27.359  0.00  0.00     0.172 A 
HETATM   27  N   UNL     1      -0.777   9.074  27.180  0.00  0.00    -0.244 N 
HETATM   28  C   UNL     1      -0.326   8.764  28.446  0.00  0.00     0.349 A 
HETATM   29  O   UNL     1       0.509   7.947  28.802  0.00  0.00    -0.245 OA
HETATM   30  N   UNL     1      -0.992   9.623  29.304  0.00  0.00    -0.226 N 
HETATM   31  N   UNL     1      -1.845  10.421  28.617  0.00  0.00    -0.151 NA
HETATM   32  H   UNL     1      -0.849   9.700  30.301  0.00  0.00     0.194 HD
BRANCH  27  33
HETATM   33  C   UNL     1      -0.247   8.453  26.034  0.00  0.00     0.051 C 
HETATM   34  C   UNL     1       0.703   9.066  25.200  0.00  0.00    -0.035 C 
HETATM   35  C   UNL     1       1.487  10.286  25.605  0.00  0.00     0.050 C 
HETATM   36  C   UNL     1       1.118   8.400  24.029  0.00  0.00     0.009 C 
HETATM   37  C   UNL     1       0.679   7.111  23.739  0.00  0.00     0.001 C 
HETATM   38  C   UNL     1      -0.162   6.454  24.633  0.00  0.00     0.002 C 
HETATM   39  C   UNL     1      -0.622   7.122  25.769  0.00  0.00     0.031 C 
ENDBRANCH  27  33
ENDBRANCH   5  26
BRANCH   4  40
HETATM   40  O   UNL     1      -4.454  10.646  27.847  0.00  0.00    -0.360 OA
HETATM   41  H   UNL     1      -4.024  11.289  28.435  0.00  0.00     0.217 HD
ENDBRANCH   4  40
TORSDOF 8
ENDMDL
MODEL 3
REMARK VINA RESULT:    -9.587      1.324      1.588
REMARK INTER + INTRA:         -16.088
REMARK INTER:                 -14.260
REMARK INTRA:                  -1.827
REMARK UNBOUND:                -2.577
REMARK  8 active torsions:
REMARK  status: ('A' for Active; 'I' for Inactive)
REMARK       I    between atoms: C_2  and  N_3 
REMARK    1  A    between atoms: C_2  and  C_18 
REMARK    2  A    between atoms: N_3  and  C_4 
REMARK    3  A    between atoms: C_4  and  C_5 
REMARK    4  A    between atoms: C_6  and  C_7 
REMARK    5  A    between atoms: C_19  and  O_20 
REMARK    6  A    between atoms: C_22  and  O_23 
REMARK    7  A    between atoms: C_24  and  C_25 
REMARK    8  A    between atoms: N_26  and  C_27 
ROOT
HETATM    1  C   UNL     1      -3.295  11.131  24.073  0.00  0.00     0.066 C 
HETATM    2  C   UNL     1      -4.647  11.050  24.420  0.00  0.00     0.084 C 
HETATM    3  C   UNL     1      -5.013  10.857  25.744  0.00  0.00     0.075 C 
HETATM    4  C   UNL     1      -4.025  10.658  26.709  0.00  0.00     0.082 C 
HETATM    5  C   UNL     1      -2.656  10.590  26.372  0.00  0.00     0.046 C 
HETATM    6  C   UNL     1      -2.302  10.832  25.035  0.00  0.00     0.038 C 
ENDROOT
BRANCH   1   7
HETATM    7  C   UNL     1      -2.853  11.502  22.704  0.00  0.00     0.256 C 
HETATM    8  O   UNL     1      -2.241  10.656  22.068  0.00  0.00    -0.267 OA
HETATM    9  N   UNL     1      -3.140  12.779  22.203  0.00  0.00    -0.348 N 
HETATM   10  C   UNL     1      -3.734  13.896  22.956  0.00  0.00     0.153 C 
BRANCH   9  11
HETATM   11  C   UNL     1      -2.669  13.114  20.846  0.00  0.00     0.165 C 
BRANCH  11  12
HETATM   12  C   UNL     1      -2.499  14.608  20.566  0.00  0.00    -0.029 A 
HETATM   13  C   UNL     1      -1.389  15.377  21.033  0.00  0.00    -0.017 A 
HETATM   14  C   UNL     1      -1.375  16.754  20.685  0.00  0.00     0.013 A 
HETATM   15  C   UNL     1      -2.387  17.360  19.936  0.00  0.00     0.001 A 
HETATM   16  C   UNL     1      -3.466  16.615  19.512  0.00  0.00     0.001 A 
HETATM   17  C   UNL     1      -3.527  15.267  19.843  0.00  0.00     0.010 A 
BRANCH  13  18
HETATM   18  C   UNL     1      -0.285  14.866  21.905  0.00  0.00    -0.008 A 
HETATM   19  C   UNL     1      -0.192  15.095  23.278  0.00  0.00     0.128 A 
HETATM   20  N   UNL     1       0.844  14.733  24.081  0.00  0.00    -0.272 NA
HETATM   21  C   UNL     1       1.837  14.030  23.508  0.00  0.00     0.116 A 
HETATM   22  C   UNL     1       1.817  13.640  22.185  0.00  0.00     0.020 A 
HETATM   23  C   UNL     1       0.755  14.071  21.385  0.00  0.00     0.015 A 
ENDBRANCH  13  18
ENDBRANCH  11  12
ENDBRANCH   9  11
ENDBRANCH   1   7
BRANCH   2  24
HETATM   24  O   UNL     1      -5.682  11.172  23.531  0.00  0.00    -0.360 OA
HETATM   25  H   UNL     1      -6.152  12.010  23.693  0.00  0.00     0.217 HD
ENDBRANCH   2  24
BRANCH   5  26
HETATM   26  C   UNL     1      -1.690  10.071  27.392  0.00  0.00     0.172 A 
HETATM   27  N   UNL     1      -0.728   9.104  27.209  0.00  0.00    -0.244 N 
HETATM   28  C   UNL     1      -0.197   8.876  28.462  0.00  0.00     0.349 A 
HETATM   29  O   UNL     1       0.697   8.121  28.808  0.00  0.00    -0.245 OA
HETATM   30  N   UNL     1      -0.862   9.741  29.315  0.00  0.00    -0.226 N 
HETATM   31  N   UNL     1      -1.791  10.461  28.640  0.00  0.00    -0.151 NA
HETATM   32  H   UNL     1      -0.672   9.871  30.299  0.00  0.00     0.194 HD
BRANCH  27  33
HETATM   33  C   UNL     1      -0.225   8.456  26.065  0.00  0.00     0.051 C 
HETATM   34  C   UNL     1       0.671   9.065  25.172  0.00  0.00    -0.035 C 
HETATM   35  C   UNL     1       1.433  10.322  25.501  0.00  0.00     0.050 C 
HETATM   36  C   UNL     1       1.059   8.370  24.010  0.00  0.00     0.009 C 
HETATM   37  C   UNL     1       0.648   7.059  23.784  0.00  0.00     0.001 C 
HETATM   38  C   UNL     1      -0.135   6.410  24.734  0.00  0.00     0.002 C 
HETATM   39  C   UNL     1      -0.570   7.106  25.863  0.00  0.00     0.031 C 
ENDBRANCH  27  33
ENDBRANCH   5  26
BRANCH   4  40
HETATM   40  O   UNL     1      -4.438  10.546  28.010  0.00  0.00    -0.360 OA
HETATM   41  H   UNL     1      -3.680  10.283  28.559  0.00  0.00     0.217 HD
ENDBRANCH   4  40
TORSDOF 8
ENDMDL
MODEL 4
REMARK VINA RESULT:    -9.377      2.616      7.914
REMARK INTER + INTRA:         -15.792
REMARK INTER:                 -13.228
REMARK INTRA:                  -2.564
REMARK UNBOUND:                -2.577
REMARK  8 active torsions:
REMARK  status: ('A' for Active; 'I' for Inactive)
REMARK       I    between atoms: C_2  and  N_3 
REMARK    1  A    between atoms: C_2  and  C_18 
REMARK    2  A    between atoms: N_3  and  C_4 
REMARK    3  A    between atoms: C_4  and  C_5 
REMARK    4  A    between atoms: C_6  and  C_7 
REMARK    5  A    between atoms: C_19  and  O_20 
REMARK    6  A    between atoms: C_22  and  O_23 
REMARK    7  A    between atoms: C_24  and  C_25 
REMARK    8  A    between atoms: N_26  and  C_27 
ROOT
HETATM    1  C   UNL     1      -3.192  14.091  22.080  0.00  0.00     0.066 C 
HETATM    2  C   UNL     1      -4.378  14.712  21.672  0.00  0.00     0.084 C 
HETATM    3  C   UNL     1      -4.337  15.736  20.737  0.00  0.00     0.075 C 
HETATM    4  C   UNL     1      -3.104  16.199  20.275  0.00  0.00     0.082 C 
HETATM    5  C   UNL     1      -1.884  15.693  20.773  0.00  0.00     0.046 C 
HETATM    6  C   UNL     1      -1.944  14.628  21.684  0.00  0.00     0.038 C 
ENDROOT
BRANCH   1   7
HETATM    7  C   UNL     1      -3.192  12.884  22.947  0.00  0.00     0.256 C 
HETATM    8  O   UNL     1      -3.823  12.950  23.992  0.00  0.00    -0.267 OA
HETATM    9  N   UNL     1      -2.483  11.743  22.548  0.00  0.00    -0.348 N 
HETATM   10  C   UNL     1      -1.583  11.638  21.388  0.00  0.00     0.153 C 
BRANCH   9  11
HETATM   11  C   UNL     1      -2.493  10.572  23.445  0.00  0.00     0.165 C 
BRANCH  11  12
HETATM   12  C   UNL     1      -1.147  10.229  24.084  0.00  0.00    -0.029 A 
HETATM   13  C   UNL     1      -0.698  10.780  25.324  0.00  0.00    -0.017 A 
HETATM   14  C   UNL     1       0.577  10.357  25.786  0.00  0.00     0.013 A 
HETATM   15  C   UNL     1       1.382   9.459  25.081  0.00  0.00     0.001 A 
HETATM   16  C   UNL     1       0.951   8.953  23.874  0.00  0.00     0.001 A 
HETATM   17  C   UNL     1      -0.284   9.351  23.378  0.00  0.00     0.010 A 
BRANCH  13  18
HETATM   18  C   UNL     1      -1.429  11.805  26.133  0.00  0.00    -0.008 A 
HETATM   19  C   UNL     1      -2.410  11.511  27.080  0.00  0.00     0.128 A 
HETATM   20  N   UNL     1      -3.162  12.417  27.760  0.00  0.00    -0.272 NA
HETATM   21  C   UNL     1      -2.886  13.716  27.547  0.00  0.00     0.116 A 
HETATM   22  C   UNL     1      -1.868  14.142  26.720  0.00  0.00     0.020 A 
HETATM   23  C   UNL     1      -1.148  13.179  26.007  0.00  0.00     0.015 A 
ENDBRANCH  13  18
ENDBRANCH  11  12
ENDBRANCH   9  11
ENDBRANCH   1   7
BRANCH   2  24
HETATM   24  O   UNL     1      -5.625  14.365  22.119  0.00  0.00    -0.360 OA
HETATM   25  H   UNL     1      -5.795  13.428  21.912  0.00  0.00     0.217 HD
ENDBRANCH   2  24
BRANCH   5  26
HETATM   26  C   UNL     1      -0.621  16.439  20.469  0.00  0.00     0.172 A 
HETATM   27  N   UNL     1       0.563  16.387  21.168  0.00  0.00    -0.244 N 
HETATM   28  C   UNL     1       1.370  17.344  20.590  0.00  0.00     0.349 A 
HETATM   29  O   UNL     1       2.520  17.661  20.850  0.00  0.00    -0.245 OA
HETATM   30  N   UNL     1       0.623  17.895  19.563  0.00  0.00    -0.226 N 
HETATM   31  N   UNL     1      -0.609  17.334  19.511  0.00  0.00    -0.151 NA
HETATM   32  H   UNL     1       0.941  18.588  18.899  0.00  0.00     0.194 HD
BRANCH  27  33
HETATM   33  C   UNL     1       1.030  15.554  22.202  0.00  0.00     0.051 C 
HETATM   34  C   UNL     1       1.637  14.309  21.968  0.00  0.00    -0.035 C 
HETATM   35  C   UNL     1       2.144  13.883  20.616  0.00  0.00     0.050 C 
HETATM   36  C   UNL     1       2.001  13.507  23.068  0.00  0.00     0.009 C 
HETATM   37  C   UNL     1       1.859  13.968  24.374  0.00  0.00     0.001 C 
HETATM   38  C   UNL     1       1.378  15.254  24.601  0.00  0.00     0.002 C 
HETATM   39  C   UNL     1       0.965  16.038  23.523  0.00  0.00     0.031 C 
ENDBRANCH  27  33
ENDBRANCH   5  26
BRANCH   4  40
HETATM   40  O   UNL     1      -3.125  17.160  19.299  0.00  0.00    -0.360 OA
HETATM   41  H   UNL     1      -4.042  17.287  19.003  0.00  0.00     0.217 HD
ENDBRANCH   4  40
TORSDOF 8
ENDMDL
MODEL 5
REMARK VINA RESULT:    -8.947      2.637      8.327
REMARK INTER + INTRA:         -15.185
REMARK INTER:                 -13.498
REMARK INTRA:                  -1.687
REMARK UNBOUND:                -2.577
REMARK  8 active torsions:
REMARK  status: ('A' for Active; 'I' for Inactive)
REMARK       I    between atoms: C_2  and  N_3 
REMARK    1  A    between atoms: C_2  and  C_18 
REMARK    2  A    between atoms: N_3  and  C_4 
REMARK    3  A    between atoms: C_4  and  C_5 
REMARK    4  A    between atoms: C_6  and  C_7 
REMARK    5  A    between atoms: C_19  and  O_20 
REMARK    6  A    between atoms: C_22  and  O_23 
REMARK    7  A    between atoms: C_24  and  C_25 
REMARK    8  A    between atoms: N_26  and  C_27 
ROOT
HETATM    1  C   UNL     1      -2.732  13.624  21.695  0.00  0.00     0.066 C 
HETATM    2  C   UNL     1      -3.977  14.262  21.689  0.00  0.00     0.084 C 
HETATM    3  C   UNL     1      -4.116  15.504  21.088  0.00  0.00     0.075 C 
HETATM    4  C   UNL     1      -2.993  16.149  20.570  0.00  0.00     0.082 C 
HETATM    5  C   UNL     1      -1.698  15.600  20.687  0.00  0.00     0.046 C 
HETATM    6  C   UNL     1      -1.581  14.323  21.258  0.00  0.00     0.038 C 
ENDROOT
BRANCH   1   7
HETATM    7  C   UNL     1      -2.563  12.228  22.174  0.00  0.00     0.256 C 
HETATM    8  O   UNL     1      -3.119  11.348  21.531  0.00  0.00    -0.267 OA
HETATM    9  N   UNL     1      -1.796  11.974  23.319  0.00  0.00    -0.348 N 
HETATM   10  C   UNL     1      -1.226  12.983  24.226  0.00  0.00     0.153 C 
BRANCH   9  11
HETATM   11  C   UNL     1      -1.668  10.576  23.770  0.00  0.00     0.165 C 
BRANCH  11  12
HETATM   12  C   UNL     1      -1.719  10.373  25.286  0.00  0.00    -0.029 A 
HETATM   13  C   UNL     1      -0.763   9.598  26.010  0.00  0.00    -0.017 A 
HETATM   14  C   UNL     1      -0.947   9.509  27.416  0.00  0.00     0.013 A 
HETATM   15  C   UNL     1      -2.005  10.127  28.085  0.00  0.00     0.001 A 
HETATM   16  C   UNL     1      -2.937  10.851  27.374  0.00  0.00     0.001 A 
HETATM   17  C   UNL     1      -2.803  10.952  25.995  0.00  0.00     0.010 A 
BRANCH  13  18
HETATM   18  C   UNL     1       0.368   8.827  25.404  0.00  0.00    -0.008 A 
HETATM   19  C   UNL     1       1.715   9.162  25.539  0.00  0.00     0.128 A 
HETATM   20  N   UNL     1       2.759   8.545  24.923  0.00  0.00    -0.272 NA
HETATM   21  C   UNL     1       2.468   7.470  24.169  0.00  0.00     0.116 A 
HETATM   22  C   UNL     1       1.191   6.966  24.040  0.00  0.00     0.020 A 
HETATM   23  C   UNL     1       0.142   7.656  24.655  0.00  0.00     0.015 A 
ENDBRANCH  13  18
ENDBRANCH  11  12
ENDBRANCH   9  11
ENDBRANCH   1   7
BRANCH   2  24
HETATM   24  O   UNL     1      -5.119  13.732  22.227  0.00  0.00    -0.360 OA
HETATM   25  H   UNL     1      -4.904  13.280  23.064  0.00  0.00     0.217 HD
ENDBRANCH   2  24
BRANCH   5  26
HETATM   26  C   UNL     1      -0.517  16.474  20.393  0.00  0.00     0.172 A 
HETATM   27  N   UNL     1       0.664  16.539  21.095  0.00  0.00    -0.244 N 
HETATM   28  C   UNL     1       1.370  17.579  20.527  0.00  0.00     0.349 A 
HETATM   29  O   UNL     1       2.480  18.010  20.793  0.00  0.00    -0.245 OA
HETATM   30  N   UNL     1       0.571  18.059  19.502  0.00  0.00    -0.226 N 
HETATM   31  N   UNL     1      -0.596  17.373  19.442  0.00  0.00    -0.151 NA
HETATM   32  H   UNL     1       0.817  18.786  18.844  0.00  0.00     0.194 HD
BRANCH  27  33
HETATM   33  C   UNL     1       1.212  15.750  22.124  0.00  0.00     0.051 C 
HETATM   34  C   UNL     1       2.015  14.625  21.881  0.00  0.00    -0.035 C 
HETATM   35  C   UNL     1       2.638  14.332  20.542  0.00  0.00     0.050 C 
HETATM   36  C   UNL     1       2.455  13.847  22.972  0.00  0.00     0.009 C 
HETATM   37  C   UNL     1       2.188  14.232  24.283  0.00  0.00     0.001 C 
HETATM   38  C   UNL     1       1.503  15.419  24.527  0.00  0.00     0.002 C 
HETATM   39  C   UNL     1       1.017  16.168  23.454  0.00  0.00     0.031 C 
ENDBRANCH  27  33
ENDBRANCH   5  26
BRANCH   4  40
HETATM   40  O   UNL     1      -3.199  17.338  19.923  0.00  0.00    -0.360 OA
HETATM   41  H   UNL     1      -4.109  17.356  19.581  0.00  0.00     0.217 HD
ENDBRANCH   4  40
TORSDOF 8
ENDMDL
MODEL 6
REMARK VINA RESULT:    -8.861      1.243      2.802
REMARK INTER + INTRA:         -15.065
REMARK INTER:                 -13.658
REMARK INTRA:                  -1.407
REMARK UNBOUND:                -2.577
REMARK  8 active torsions:
REMARK  status: ('A' for Active; 'I' for Inactive)
REMARK       I    between atoms: C_2  and  N_3 
REMARK    1  A    between atoms: C_2  and  C_18 
REMARK    2  A    between atoms: N_3  and  C_4 
REMARK    3  A    between atoms: C_4  and  C_5 
REMARK    4  A    between atoms: C_6  and  C_7 
REMARK    5  A    between atoms: C_19  and  O_20 
REMARK    6  A    between atoms: C_22  and  O_23 
REMARK    7  A    between atoms: C_24  and  C_25 
REMARK    8  A    between atoms: N_26  and  C_27 
ROOT
HETATM    1  C   UNL     1      -2.438  11.288  24.058  0.00  0.00     0.066 C 
HETATM    2  C   UNL     1      -3.810  11.403  24.302  0.00  0.00     0.084 C 
HETATM    3  C   UNL     1      -4.308  11.181  25.578  0.00  0.00     0.075 C 
HETATM    4  C   UNL     1      -3.445  10.760  26.590  0.00  0.00     0.082 C 
HETATM    5  C   UNL     1      -2.080  10.495  26.345  0.00  0.00     0.046 C 
HETATM    6  C   UNL     1      -1.585  10.767  25.060  0.00  0.00     0.038 C 
ENDROOT
BRANCH   1   7
HETATM    7  C   UNL     1      -1.833  11.676  22.757  0.00  0.00     0.256 C 
HETATM    8  O   UNL     1      -2.160  11.024  21.775  0.00  0.00    -0.267 OA
HETATM    9  N   UNL     1      -0.928  12.744  22.703  0.00  0.00    -0.348 N 
HETATM   10  C   UNL     1      -0.373  13.474  23.854  0.00  0.00     0.153 C 
BRANCH   9  11
HETATM   11  C   UNL     1      -0.337  13.086  21.395  0.00  0.00     0.165 C 
BRANCH  11  12
HETATM   12  C   UNL     1       0.541  14.338  21.384  0.00  0.00    -0.029 A 
HETATM   13  C   UNL     1       0.034  15.656  21.167  0.00  0.00    -0.017 A 
HETATM   14  C   UNL     1       0.980  16.715  21.190  0.00  0.00     0.013 A 
HETATM   15  C   UNL     1       2.346  16.511  21.401  0.00  0.00     0.001 A 
HETATM   16  C   UNL     1       2.829  15.234  21.584  0.00  0.00     0.001 A 
HETATM   17  C   UNL     1       1.940  14.166  21.553  0.00  0.00     0.010 A 
BRANCH  13  18
HETATM   18  C   UNL     1      -1.389  15.997  20.856  0.00  0.00    -0.008 A 
HETATM   19  C   UNL     1      -2.491  15.511  21.560  0.00  0.00     0.128 A 
HETATM   20  N   UNL     1      -3.797  15.720  21.246  0.00  0.00    -0.272 NA
HETATM   21  C   UNL     1      -4.047  16.526  20.198  0.00  0.00     0.116 A 
HETATM   22  C   UNL     1      -3.052  17.160  19.484  0.00  0.00     0.020 A 
HETATM   23  C   UNL     1      -1.722  16.884  19.813  0.00  0.00     0.015 A 
ENDBRANCH  13  18
ENDBRANCH  11  12
ENDBRANCH   9  11
ENDBRANCH   1   7
BRANCH   2  24
HETATM   24  O   UNL     1      -4.737  11.751  23.356  0.00  0.00    -0.360 OA
HETATM   25  H   UNL     1      -5.537  11.205  23.469  0.00  0.00     0.217 HD
ENDBRANCH   2  24
BRANCH   5  26
HETATM   26  C   UNL     1      -1.294   9.758  27.385  0.00  0.00     0.172 A 
HETATM   27  N   UNL     1      -0.475   8.669  27.190  0.00  0.00    -0.244 N 
HETATM   28  C   UNL     1      -0.092   8.270  28.454  0.00  0.00     0.349 A 
HETATM   29  O   UNL     1       0.645   7.361  28.799  0.00  0.00    -0.245 OA
HETATM   30  N   UNL     1      -0.692   9.162  29.327  0.00  0.00    -0.226 N 
HETATM   31  N   UNL     1      -1.441  10.066  28.650  0.00  0.00    -0.151 NA
HETATM   32  H   UNL     1      -0.569   9.189  30.330  0.00  0.00     0.194 HD
BRANCH  27  33
HETATM   33  C   UNL     1       0.021   8.037  26.034  0.00  0.00     0.051 C 
HETATM   34  C   UNL     1       1.088   8.549  25.280  0.00  0.00    -0.035 C 
HETATM   35  C   UNL     1       2.013   9.623  25.787  0.00  0.00     0.050 C 
HETATM   36  C   UNL     1       1.466   7.892  24.092  0.00  0.00     0.009 C 
HETATM   37  C   UNL     1       0.866   6.694  23.710  0.00  0.00     0.001 C 
HETATM   38  C   UNL     1      -0.103   6.119  24.527  0.00  0.00     0.002 C 
HETATM   39  C   UNL     1      -0.522   6.788  25.678  0.00  0.00     0.031 C 
ENDBRANCH  27  33
ENDBRANCH   5  26
BRANCH   4  40
HETATM   40  O   UNL     1      -3.975  10.628  27.846  0.00  0.00    -0.360 OA
HETATM   41  H   UNL     1      -3.904   9.698  28.121  0.00  0.00     0.217 HD
ENDBRANCH   4  40
TORSDOF 8
ENDMDL
MODEL 7
REMARK VINA RESULT:    -8.520      2.832      8.470
REMARK INTER + INTRA:         -14.583
REMARK INTER:                 -11.779
REMARK INTRA:                  -2.804
REMARK UNBOUND:                -2.577
REMARK  8 active torsions:
REMARK  status: ('A' for Active; 'I' for Inactive)
REMARK       I    between atoms: C_2  and  N_3 
REMARK    1  A    between atoms: C_2  and  C_18 
REMARK    2  A    between atoms: N_3  and  C_4 
REMARK    3  A    between atoms: C_4  and  C_5 
REMARK    4  A    between atoms: C_6  and  C_7 
REMARK    5  A    between atoms: C_19  and  O_20 
REMARK    6  A    between atoms: C_22  and  O_23 
REMARK    7  A    between atoms: C_24  and  C_25 
REMARK    8  A    between atoms: N_26  and  C_27 
ROOT
HETATM    1  C   UNL     1      -1.083   9.224  25.727  0.00  0.00     0.066 C 
HETATM    2  C   UNL     1      -1.111   9.693  27.045  0.00  0.00     0.084 C 
HETATM    3  C   UNL     1      -1.963  10.731  27.394  0.00  0.00     0.075 C 
HETATM    4  C   UNL     1      -2.723  11.359  26.407  0.00  0.00     0.082 C 
HETATM    5  C   UNL     1      -2.613  11.008  25.044  0.00  0.00     0.046 C 
HETATM    6  C   UNL     1      -1.780   9.927  24.716  0.00  0.00     0.038 C 
ENDROOT
BRANCH   1   7
HETATM    7  C   UNL     1      -0.318   8.012  25.337  0.00  0.00     0.256 C 
HETATM    8  O   UNL     1      -0.553   6.983  25.955  0.00  0.00    -0.267 OA
HETATM    9  N   UNL     1       0.625   8.088  24.304  0.00  0.00    -0.348 N 
HETATM   10  C   UNL     1       1.070   9.313  23.620  0.00  0.00     0.153 C 
BRANCH   9  11
HETATM   11  C   UNL     1       1.376   6.866  23.959  0.00  0.00     0.165 C 
BRANCH  11  12
HETATM   12  C   UNL     1       2.898   6.989  24.049  0.00  0.00    -0.029 A 
HETATM   13  C   UNL     1       3.617   6.993  25.283  0.00  0.00    -0.017 A 
HETATM   14  C   UNL     1       5.030   7.112  25.198  0.00  0.00     0.013 A 
HETATM   15  C   UNL     1       5.711   7.233  23.984  0.00  0.00     0.001 A 
HETATM   16  C   UNL     1       5.006   7.253  22.801  0.00  0.00     0.001 A 
HETATM   17  C   UNL     1       3.621   7.155  22.839  0.00  0.00     0.010 A 
BRANCH  13  18
HETATM   18  C   UNL     1       3.002   6.948  26.646  0.00  0.00    -0.008 A 
HETATM   19  C   UNL     1       2.805   8.063  27.462  0.00  0.00     0.128 A 
HETATM   20  N   UNL     1       2.342   8.047  28.741  0.00  0.00    -0.272 NA
HETATM   21  C   UNL     1       1.977   6.852  29.239  0.00  0.00     0.116 A 
HETATM   22  C   UNL     1       2.016   5.687  28.501  0.00  0.00     0.020 A 
HETATM   23  C   UNL     1       2.539   5.741  27.206  0.00  0.00     0.015 A 
ENDBRANCH  13  18
ENDBRANCH  11  12
ENDBRANCH   9  11
ENDBRANCH   1   7
BRANCH   2  24
HETATM   24  O   UNL     1      -0.355   9.178  28.064  0.00  0.00    -0.360 OA
HETATM   25  H   UNL     1       0.588   9.219  27.821  0.00  0.00     0.217 HD
ENDBRANCH   2  24
BRANCH   5  26
HETATM   26  C   UNL     1      -3.214  11.917  24.017  0.00  0.00     0.172 A 
HETATM   27  N   UNL     1      -2.633  13.026  23.447  0.00  0.00    -0.244 N 
HETATM   28  C   UNL     1      -3.622  13.601  22.677  0.00  0.00     0.349 A 
HETATM   29  O   UNL     1      -3.584  14.593  21.966  0.00  0.00    -0.245 OA
HETATM   30  N   UNL     1      -4.731  12.785  22.819  0.00  0.00    -0.226 N 
HETATM   31  N   UNL     1      -4.466  11.757  23.661  0.00  0.00    -0.151 NA
HETATM   32  H   UNL     1      -5.614  12.889  22.338  0.00  0.00     0.194 HD
BRANCH  27  33
HETATM   33  C   UNL     1      -1.324  13.543  23.475  0.00  0.00     0.051 C 
HETATM   34  C   UNL     1      -0.931  14.588  24.326  0.00  0.00    -0.035 C 
HETATM   35  C   UNL     1      -1.751  15.041  25.505  0.00  0.00     0.050 C 
HETATM   36  C   UNL     1       0.380  15.096  24.229  0.00  0.00     0.009 C 
HETATM   37  C   UNL     1       1.315  14.515  23.377  0.00  0.00     0.001 C 
HETATM   38  C   UNL     1       0.963  13.396  22.628  0.00  0.00     0.002 C 
HETATM   39  C   UNL     1      -0.348  12.918  22.676  0.00  0.00     0.031 C 
ENDBRANCH  27  33
ENDBRANCH   5  26
BRANCH   4  40
HETATM   40  O   UNL     1      -3.601  12.327  26.818  0.00  0.00    -0.360 OA
HETATM   41  H   UNL     1      -3.256  12.741  27.627  0.00  0.00     0.217 HD
ENDBRANCH   4  40
TORSDOF 8
ENDMDL
MODEL 8
REMARK VINA RESULT:    -8.369      2.229      3.907
REMARK INTER + INTRA:         -14.372
REMARK INTER:                 -11.794
REMARK INTRA:                  -2.577
REMARK UNBOUND:                -2.577
REMARK  8 active torsions:
REMARK  status: ('A' for Active; 'I' for Inactive)
REMARK       I    between atoms: C_2  and  N_3 
REMARK    1  A    between atoms: C_2  and  C_18 
REMARK    2  A    between atoms: N_3  and  C_4 
REMARK    3  A    between atoms: C_4  and  C_5 
REMARK    4  A    between atoms: C_6  and  C_7 
REMARK    5  A    between atoms: C_19  and  O_20 
REMARK    6  A    between atoms: C_22  and  O_23 
REMARK    7  A    between atoms: C_24  and  C_25 
REMARK    8  A    between atoms: N_26  and  C_27 
ROOT
HETATM    1  C   UNL     1      -1.230  10.577  24.800  0.00  0.00     0.066 C 
HETATM    2  C   UNL     1      -1.939  11.358  25.720  0.00  0.00     0.084 C 
HETATM    3  C   UNL     1      -1.941  11.015  27.064  0.00  0.00     0.075 C 
HETATM    4  C   UNL     1      -1.307   9.843  27.477  0.00  0.00     0.082 C 
HETATM    5  C   UNL     1      -0.705   8.957  26.558  0.00  0.00     0.046 C 
HETATM    6  C   UNL     1      -0.674   9.341  25.208  0.00  0.00     0.038 C 
ENDROOT
BRANCH   1   7
HETATM    7  C   UNL     1      -1.057  10.989  23.384  0.00  0.00     0.256 C 
HETATM    8  O   UNL     1      -1.894  10.598  22.583  0.00  0.00    -0.267 OA
HETATM    9  N   UNL     1       0.036  11.788  23.022  0.00  0.00    -0.348 N 
HETATM   10  C   UNL     1       1.160  12.171  23.891  0.00  0.00     0.153 C 
BRANCH   9  11
HETATM   11  C   UNL     1       0.182  12.162  21.602  0.00  0.00     0.165 C 
BRANCH  11  12
HETATM   12  C   UNL     1       0.529  13.629  21.347  0.00  0.00    -0.029 A 
HETATM   13  C   UNL     1      -0.431  14.686  21.392  0.00  0.00    -0.017 A 
HETATM   14  C   UNL     1       0.051  15.997  21.134  0.00  0.00     0.013 A 
HETATM   15  C   UNL     1       1.388  16.271  20.837  0.00  0.00     0.001 A 
HETATM   16  C   UNL     1       2.302  15.242  20.770  0.00  0.00     0.001 A 
HETATM   17  C   UNL     1       1.870  13.941  21.001  0.00  0.00     0.010 A 
BRANCH  13  18
HETATM   18  C   UNL     1      -1.899  14.515  21.622  0.00  0.00    -0.008 A 
HETATM   19  C   UNL     1      -2.521  14.616  22.867  0.00  0.00     0.128 A 
HETATM   20  N   UNL     1      -3.832  14.370  23.129  0.00  0.00    -0.272 NA
HETATM   21  C   UNL     1      -4.614  14.068  22.077  0.00  0.00     0.116 A 
HETATM   22  C   UNL     1      -4.150  14.043  20.779  0.00  0.00     0.020 A 
HETATM   23  C   UNL     1      -2.787  14.259  20.559  0.00  0.00     0.015 A 
ENDBRANCH  13  18
ENDBRANCH  11  12
ENDBRANCH   9  11
ENDBRANCH   1   7
BRANCH   2  24
HETATM   24  O   UNL     1      -2.640  12.488  25.394  0.00  0.00    -0.360 OA
HETATM   25  H   UNL     1      -3.556  12.407  25.719  0.00  0.00     0.217 HD
ENDBRANCH   2  24
BRANCH   5  26
HETATM   26  C   UNL     1      -0.323   7.586  27.026  0.00  0.00     0.172 A 
HETATM   27  N   UNL     1       0.701   6.800  26.549  0.00  0.00    -0.244 N 
HETATM   28  C   UNL     1       0.561   5.589  27.194  0.00  0.00     0.349 A 
HETATM   29  O   UNL     1       1.241   4.578  27.117  0.00  0.00    -0.245 OA
HETATM   30  N   UNL     1      -0.529   5.734  28.035  0.00  0.00    -0.226 N 
HETATM   31  N   UNL     1      -1.071   6.970  27.909  0.00  0.00    -0.151 NA
HETATM   32  H   UNL     1      -0.868   5.049  28.697  0.00  0.00     0.194 HD
BRANCH  27  33
HETATM   33  C   UNL     1       1.771   7.051  25.670  0.00  0.00     0.051 C 
HETATM   34  C   UNL     1       1.771   6.644  24.327  0.00  0.00    -0.035 C 
HETATM   35  C   UNL     1       0.528   6.198  23.602  0.00  0.00     0.050 C 
HETATM   36  C   UNL     1       2.920   6.867  23.542  0.00  0.00     0.009 C 
HETATM   37  C   UNL     1       4.011   7.569  24.048  0.00  0.00     0.001 C 
HETATM   38  C   UNL     1       3.959   8.086  25.339  0.00  0.00     0.002 C 
HETATM   39  C   UNL     1       2.848   7.825  26.143  0.00  0.00     0.031 C 
ENDBRANCH  27  33
ENDBRANCH   5  26
BRANCH   4  40
HETATM   40  O   UNL     1      -1.276   9.592  28.823  0.00  0.00    -0.360 OA
HETATM   41  H   UNL     1      -0.354   9.627  29.128  0.00  0.00     0.217 HD
ENDBRANCH   4  40
TORSDOF 8
ENDMDL
MODEL 9
REMARK VINA RESULT:    -8.295      2.438      4.357
REMARK INTER + INTRA:         -14.266
REMARK INTER:                 -11.995
REMARK INTRA:                  -2.272
REMARK UNBOUND:                -2.577
REMARK  8 active torsions:
REMARK  status: ('A' for Active; 'I' for Inactive)
REMARK       I    between atoms: C_2  and  N_3 
REMARK    1  A    between atoms: C_2  and  C_18 
REMARK    2  A    between atoms: N_3  and  C_4 
REMARK    3  A    between atoms: C_4  and  C_5 
REMARK    4  A    between atoms: C_6  and  C_7 
REMARK    5  A    between atoms: C_19  and  O_20 
REMARK    6  A    between atoms: C_22  and  O_23 
REMARK    7  A    between atoms: C_24  and  C_25 
REMARK    8  A    between atoms: N_26  and  C_27 
ROOT
HETATM    1  C   UNL     1      -0.813  10.506  24.503  0.00  0.00     0.066 C 
HETATM    2  C   UNL     1      -1.598  11.015  25.543  0.00  0.00     0.084 C 
HETATM    3  C   UNL     1      -1.678  10.332  26.748  0.00  0.00     0.075 C 
HETATM    4  C   UNL     1      -1.046   9.096  26.883  0.00  0.00     0.082 C 
HETATM    5  C   UNL     1      -0.366   8.485  25.807  0.00  0.00     0.046 C 
HETATM    6  C   UNL     1      -0.256   9.209  24.610  0.00  0.00     0.038 C 
ENDROOT
BRANCH   1   7
HETATM    7  C   UNL     1      -0.558  11.276  23.258  0.00  0.00     0.256 C 
HETATM    8  O   UNL     1      -1.247  11.005  22.285  0.00  0.00    -0.267 OA
HETATM    9  N   UNL     1       0.442  12.258  23.242  0.00  0.00    -0.348 N 
HETATM   10  C   UNL     1       1.407  12.536  24.318  0.00  0.00     0.153 C 
BRANCH   9  11
HETATM   11  C   UNL     1       0.675  12.988  21.982  0.00  0.00     0.165 C 
BRANCH  11  12
HETATM   12  C   UNL     1       0.903  14.493  22.133  0.00  0.00    -0.029 A 
HETATM   13  C   UNL     1      -0.153  15.435  22.330  0.00  0.00    -0.017 A 
HETATM   14  C   UNL     1       0.223  16.799  22.456  0.00  0.00     0.013 A 
HETATM   15  C   UNL     1       1.549  17.232  22.384  0.00  0.00     0.001 A 
HETATM   16  C   UNL     1       2.558  16.319  22.168  0.00  0.00     0.001 A 
HETATM   17  C   UNL     1       2.233  14.976  22.024  0.00  0.00     0.010 A 
BRANCH  13  18
HETATM   18  C   UNL     1      -1.614  15.109  22.349  0.00  0.00    -0.008 A 
HETATM   19  C   UNL     1      -2.318  14.700  23.482  0.00  0.00     0.128 A 
HETATM   20  N   UNL     1      -3.617  14.302  23.516  0.00  0.00    -0.272 NA
HETATM   21  C   UNL     1      -4.304  14.374  22.362  0.00  0.00     0.116 A 
HETATM   22  C   UNL     1      -3.760  14.865  21.193  0.00  0.00     0.020 A 
HETATM   23  C   UNL     1      -2.409  15.223  21.192  0.00  0.00     0.015 A 
ENDBRANCH  13  18
ENDBRANCH  11  12
ENDBRANCH   9  11
ENDBRANCH   1   7
BRANCH   2  24
HETATM   24  O   UNL     1      -2.302  12.187  25.477  0.00  0.00    -0.360 OA
HETATM   25  H   UNL     1      -1.755  12.915  25.827  0.00  0.00     0.217 HD
ENDBRANCH   2  24
BRANCH   5  26
HETATM   26  C   UNL     1       0.017   7.041  25.926  0.00  0.00     0.172 A 
HETATM   27  N   UNL     1       1.104   6.522  26.591  0.00  0.00    -0.244 N 
HETATM   28  C   UNL     1       1.101   5.174  26.297  0.00  0.00     0.349 A 
HETATM   29  O   UNL     1       1.856   4.290  26.668  0.00  0.00    -0.245 OA
HETATM   30  N   UNL     1      -0.004   4.968  25.489  0.00  0.00    -0.226 N 
HETATM   31  N   UNL     1      -0.655   6.134  25.259  0.00  0.00    -0.151 NA
HETATM   32  H   UNL     1      -0.332   4.077  25.142  0.00  0.00     0.194 HD
BRANCH  27  33
HETATM   33  C   UNL     1       2.047   7.084  27.472  0.00  0.00     0.051 C 
HETATM   34  C   UNL     1       3.199   7.755  27.034  0.00  0.00    -0.035 C 
HETATM   35  C   UNL     1       3.387   8.227  25.616  0.00  0.00     0.050 C 
HETATM   36  C   UNL     1       4.129   8.216  27.987  0.00  0.00     0.009 C 
HETATM   37  C   UNL     1       3.876   8.104  29.352  0.00  0.00     0.001 C 
HETATM   38  C   UNL     1       2.672   7.555  29.786  0.00  0.00     0.002 C 
HETATM   39  C   UNL     1       1.768   7.047  28.851  0.00  0.00     0.031 C 
ENDBRANCH  27  33
ENDBRANCH   5  26
BRANCH   4  40
HETATM   40  O   UNL     1      -1.096   8.500  28.116  0.00  0.00    -0.360 OA
HETATM   41  H   UNL     1      -1.150   7.537  27.997  0.00  0.00     0.217 HD
ENDBRANCH   4  40
TORSDOF 8
ENDMDL
