MODEL 1
REMARK VINA RESULT:    -9.449      0.000      0.000
REMARK INTER + INTRA:         -14.070
REMARK INTER:                 -12.861
REMARK INTRA:                  -1.209
REMARK UNBOUND:                -1.031
REMARK  7 active torsions:
REMARK  status: ('A' for Active; 'I' for Inactive)
REMARK    1  A    between atoms: C_5  and  O_6 
REMARK    2  A    between atoms: C_13  and  C_14 
REMARK    3  A    between atoms: C_14  and  C_15 
REMARK    4  A    between atoms: C_15  and  C_16 
REMARK    5  A    between atoms: C_16  and  C_17 
REMARK    6  A    between atoms: C_17  and  N_18 
REMARK    7  A    between atoms: N_22  and  C_26 
ROOT
HETATM    1  N   UNL     1       4.889   9.174  21.997  0.00  0.00    -0.191 NA
HETATM    2  C   UNL     1       5.367  10.027  22.620  0.00  0.00     0.102 C 
HETATM    3  C   UNL     1       5.966  11.103  23.368  0.00  0.00     0.078 A 
HETATM    4  C   UNL     1       5.175  12.242  23.674  0.00  0.00     0.039 A 
HETATM    5  C   UNL     1       7.303  11.055  23.765  0.00  0.00     0.088 A 
HETATM    6  C   UNL     1       7.879  12.133  24.442  0.00  0.00     0.068 A 
HETATM    7  C   UNL     1       7.087  13.250  24.709  0.00  0.00     0.045 A 
HETATM    8  C   UNL     1       5.734  13.351  24.359  0.00  0.00    -0.000 A 
HETATM    9  N   UNL     1       7.440  14.434  25.312  0.00  0.00    -0.365 N 
HETATM   10  H   UNL     1       8.379  14.652  25.635  0.00  0.00     0.165 HD
HETATM   11  C   UNL     1       6.368  15.285  25.354  0.00  0.00     0.096 A 
HETATM   12  C   UNL     1       5.272  14.654  24.793  0.00  0.00    -0.030 A 
ENDROOT
BRANCH   5  13
HETATM   13  O   UNL     1       8.146  10.007  23.529  0.00  0.00    -0.359 OA
HETATM   14  H   UNL     1       8.347   9.495  24.330  0.00  0.00     0.217 HD
ENDBRANCH   5  13
BRANCH  12  15
HETATM   15  C   UNL     1       3.937  15.319  24.602  0.00  0.00     0.041 C 
BRANCH  15  16
HETATM   16  C   UNL     1       2.700  14.439  24.905  0.00  0.00     0.006 C 
BRANCH  16  17
HETATM   17  C   UNL     1       1.707  14.270  23.710  0.00  0.00     0.028 C 
BRANCH  17  18
HETATM   18  C   UNL     1       0.597  13.324  24.118  0.00  0.00     0.235 C 
BRANCH  18  19
HETATM   19  N   UNL     1       0.552  11.940  23.491  0.00  0.00    -0.068 N 
HETATM   20  H   UNL     1       0.384  12.068  22.476  0.00  0.00     0.280 HD
HETATM   21  C   UNL     1      -0.671  11.190  24.067  0.00  0.00     0.262 C 
HETATM   22  C   UNL     1      -0.456  10.913  25.582  0.00  0.00     0.263 C 
HETATM   23  N   UNL     1       0.881  10.213  25.846  0.00  0.00    -0.057 N 
HETATM   24  C   UNL     1       2.102  10.775  25.108  0.00  0.00     0.263 C 
HETATM   25  H   UNL     1       1.047  10.414  26.846  0.00  0.00     0.281 HD
HETATM   26  C   UNL     1       1.783  11.043  23.624  0.00  0.00     0.262 C 
BRANCH  23  27
HETATM   27  C   UNL     1       0.883   8.702  25.794  0.00  0.00     0.233 C 
HETATM   28  C   UNL     1      -0.363   8.104  26.398  0.00  0.00     0.007 C 
HETATM   29  C   UNL     1      -0.343   7.279  27.450  0.00  0.00    -0.007 C 
HETATM   30  C   UNL     1       0.948   6.745  27.964  0.00  0.00     0.123 C 
HETATM   31  C   UNL     1       0.929   6.429  29.451  0.00  0.00    -0.008 C 
HETATM   32  C   UNL     1       2.194   7.430  27.504  0.00  0.00    -0.007 C 
HETATM   33  N   UNL     1       0.914   6.169  30.684  0.00  0.00    -0.101 N 
HETATM   34  C   UNL     1       2.166   8.260  26.464  0.00  0.00     0.007 C 
ENDBRANCH  23  27
ENDBRANCH  18  19
ENDBRANCH  17  18
ENDBRANCH  16  17
ENDBRANCH  15  16
ENDBRANCH  12  15
TORSDOF 7
ENDMDL
MODEL 2
REMARK VINA RESULT:    -9.376      2.495      4.842
REMARK INTER + INTRA:         -13.969
REMARK INTER:                 -12.744
REMARK INTRA:                  -1.225
REMARK UNBOUND:                -1.031
REMARK  7 active torsions:
REMARK  status: ('A' for Active; 'I' for Inactive)
REMARK    1  A    between atoms: C_5  and  O_6 
REMARK    2  A    between atoms: C_13  and  C_14 
REMARK    3  A    between atoms: C_14  and  C_15 
REMARK    4  A    between atoms: C_15  and  C_16 
REMARK    5  A    between atoms: C_16  and  C_17 
REMARK    6  A    between atoms: C_17  and  N_18 
REMARK    7  A    between atoms: N_22  and  C_26 
ROOT
HETATM    1  N   UNL     1       1.518  14.511  24.254  0.00  0.00    -0.191 NA
HETATM    2  C   UNL     1       2.641  14.524  24.540  0.00  0.00     0.102 C 
HETATM    3  C   UNL     1       4.033  14.515  24.912  0.00  0.00     0.078 A 
HETATM    4  C   UNL     1       4.916  13.645  24.220  0.00  0.00     0.039 A 
HETATM    5  C   UNL     1       4.513  15.317  25.948  0.00  0.00     0.088 A 
HETATM    6  C   UNL     1       5.856  15.253  26.329  0.00  0.00     0.068 A 
HETATM    7  C   UNL     1       6.697  14.371  25.649  0.00  0.00     0.045 A 
HETATM    8  C   UNL     1       6.283  13.557  24.586  0.00  0.00    -0.000 A 
HETATM    9  N   UNL     1       8.027  14.102  25.874  0.00  0.00    -0.365 N 
HETATM   10  H   UNL     1       8.577  14.525  26.616  0.00  0.00     0.165 HD
HETATM   11  C   UNL     1       8.473  13.146  25.000  0.00  0.00     0.096 A 
HETATM   12  C   UNL     1       7.434  12.786  24.161  0.00  0.00    -0.030 A 
ENDROOT
BRANCH   5  13
HETATM   13  O   UNL     1       3.752  16.192  26.669  0.00  0.00    -0.359 OA
HETATM   14  H   UNL     1       4.076  16.316  27.577  0.00  0.00     0.217 HD
ENDBRANCH   5  13
BRANCH  12  15
HETATM   15  C   UNL     1       7.542  11.704  23.122  0.00  0.00     0.041 C 
BRANCH  15  16
HETATM   16  C   UNL     1       8.240  10.401  23.579  0.00  0.00     0.006 C 
BRANCH  16  17
HETATM   17  C   UNL     1       7.923   9.144  22.706  0.00  0.00     0.028 C 
BRANCH  17  18
HETATM   18  C   UNL     1       6.750   8.402  23.312  0.00  0.00     0.235 C 
BRANCH  18  19
HETATM   19  N   UNL     1       5.506   8.189  22.464  0.00  0.00    -0.068 N 
HETATM   20  H   UNL     1       5.822   7.859  21.534  0.00  0.00     0.280 HD
HETATM   21  C   UNL     1       4.825   9.561  22.258  0.00  0.00     0.262 C 
HETATM   22  C   UNL     1       4.274  10.088  23.613  0.00  0.00     0.263 C 
HETATM   23  N   UNL     1       3.383   9.050  24.304  0.00  0.00    -0.057 N 
HETATM   24  C   UNL     1       3.908   7.610  24.331  0.00  0.00     0.263 C 
HETATM   25  H   UNL     1       3.392   9.365  25.289  0.00  0.00     0.281 HD
HETATM   26  C   UNL     1       4.458   7.190  22.953  0.00  0.00     0.262 C 
BRANCH  23  27
HETATM   27  C   UNL     1       1.913   9.069  23.951  0.00  0.00     0.233 C 
HETATM   28  C   UNL     1       1.301  10.439  24.106  0.00  0.00     0.007 C 
HETATM   29  C   UNL     1       0.293  10.699  24.944  0.00  0.00    -0.007 C 
HETATM   30  C   UNL     1      -0.420   9.589  25.633  0.00  0.00     0.123 C 
HETATM   31  C   UNL     1      -1.010   9.984  26.978  0.00  0.00    -0.008 C 
HETATM   32  C   UNL     1       0.249   8.253  25.633  0.00  0.00    -0.007 C 
HETATM   33  N   UNL     1      -1.498  10.312  28.093  0.00  0.00    -0.101 N 
HETATM   34  C   UNL     1       1.262   8.003  24.805  0.00  0.00     0.007 C 
ENDBRANCH  23  27
ENDBRANCH  18  19
ENDBRANCH  17  18
ENDBRANCH  16  17
ENDBRANCH  15  16
ENDBRANCH  12  15
TORSDOF 7
ENDMDL
MODEL 3
REMARK VINA RESULT:    -9.179      2.353      7.254
REMARK INTER + INTRA:         -13.697
REMARK INTER:                 -12.779
REMARK INTRA:                  -0.918
REMARK UNBOUND:                -1.031
REMARK  7 active torsions:
REMARK  status: ('A' for Active; 'I' for Inactive)
REMARK    1  A    between atoms: C_5  and  O_6 
REMARK    2  A    between atoms: C_13  and  C_14 
REMARK    3  A    between atoms: C_14  and  C_15 
REMARK    4  A    between atoms: C_15  and  C_16 
REMARK    5  A    between atoms: C_16  and  C_17 
REMARK    6  A    between atoms: C_17  and  N_18 
REMARK    7  A    between atoms: N_22  and  C_26 
ROOT
HETATM    1  N   UNL     1       2.395   6.764  22.925  0.00  0.00    -0.191 NA
HETATM    2  C   UNL     1       1.808   7.047  23.885  0.00  0.00     0.102 C 
HETATM    3  C   UNL     1       1.102   7.418  25.085  0.00  0.00     0.078 A 
HETATM    4  C   UNL     1       0.344   8.619  25.084  0.00  0.00     0.039 A 
HETATM    5  C   UNL     1       1.175   6.640  26.240  0.00  0.00     0.088 A 
HETATM    6  C   UNL     1       0.526   7.046  27.409  0.00  0.00     0.068 A 
HETATM    7  C   UNL     1      -0.191   8.242  27.389  0.00  0.00     0.045 A 
HETATM    8  C   UNL     1      -0.322   9.057  26.256  0.00  0.00    -0.000 A 
HETATM    9  N   UNL     1      -0.863   8.863  28.416  0.00  0.00    -0.365 N 
HETATM   10  H   UNL     1      -0.900   8.510  29.368  0.00  0.00     0.165 HD
HETATM   11  C   UNL     1      -1.411  10.040  27.983  0.00  0.00     0.096 A 
HETATM   12  C   UNL     1      -1.123  10.202  26.639  0.00  0.00    -0.030 A 
ENDROOT
BRANCH   5  13
HETATM   13  O   UNL     1       1.867   5.467  26.344  0.00  0.00    -0.359 OA
HETATM   14  H   UNL     1       2.818   5.601  26.498  0.00  0.00     0.217 HD
ENDBRANCH   5  13
BRANCH  12  15
HETATM   15  C   UNL     1      -1.506  11.422  25.848  0.00  0.00     0.041 C 
BRANCH  15  16
HETATM   16  C   UNL     1      -1.958  11.162  24.391  0.00  0.00     0.006 C 
BRANCH  16  17
HETATM   17  C   UNL     1      -1.377  12.158  23.335  0.00  0.00     0.028 C 
BRANCH  17  18
HETATM   18  C   UNL     1      -0.259  12.958  23.970  0.00  0.00     0.235 C 
BRANCH  18  19
HETATM   19  N   UNL     1       0.729  13.674  23.064  0.00  0.00    -0.068 N 
HETATM   20  H   UNL     1       0.200  14.011  22.240  0.00  0.00     0.280 HD
HETATM   21  C   UNL     1       1.757  12.636  22.557  0.00  0.00     0.262 C 
HETATM   22  C   UNL     1       2.627  12.131  23.743  0.00  0.00     0.263 C 
HETATM   23  N   UNL     1       3.252  13.293  24.523  0.00  0.00    -0.057 N 
HETATM   24  C   UNL     1       2.325  14.470  24.851  0.00  0.00     0.263 C 
HETATM   25  H   UNL     1       3.478  12.858  25.433  0.00  0.00     0.281 HD
HETATM   26  C   UNL     1       1.485  14.879  23.625  0.00  0.00     0.262 C 
BRANCH  23  27
HETATM   27  C   UNL     1       4.593  13.797  24.040  0.00  0.00     0.233 C 
HETATM   28  C   UNL     1       5.657  12.728  24.078  0.00  0.00     0.007 C 
HETATM   29  C   UNL     1       6.770  12.830  24.810  0.00  0.00    -0.007 C 
HETATM   30  C   UNL     1       7.115  14.112  25.483  0.00  0.00     0.123 C 
HETATM   31  C   UNL     1       7.936  13.934  26.751  0.00  0.00    -0.008 C 
HETATM   32  C   UNL     1       6.025  15.127  25.603  0.00  0.00    -0.007 C 
HETATM   33  N   UNL     1       8.616  13.787  27.802  0.00  0.00    -0.101 N 
HETATM   34  C   UNL     1       4.912  15.014  24.881  0.00  0.00     0.007 C 
ENDBRANCH  23  27
ENDBRANCH  18  19
ENDBRANCH  17  18
ENDBRANCH  16  17
ENDBRANCH  15  16
ENDBRANCH  12  15
TORSDOF 7
ENDMDL
MODEL 4
REMARK VINA RESULT:    -9.053      2.370      4.575
REMARK INTER + INTRA:         -13.523
REMARK INTER:                 -12.039
REMARK INTRA:                  -1.485
REMARK UNBOUND:                -1.031
REMARK  7 active torsions:
REMARK  status: ('A' for Active; 'I' for Inactive)
REMARK    1  A    between atoms: C_5  and  O_6 
REMARK    2  A    between atoms: C_13  and  C_14 
REMARK    3  A    between atoms: C_14  and  C_15 
REMARK    4  A    between atoms: C_15  and  C_16 
REMARK    5  A    between atoms: C_16  and  C_17 
REMARK    6  A    between atoms: C_17  and  N_18 
REMARK    7  A    between atoms: N_22  and  C_26 
ROOT
HETATM    1  N   UNL     1       1.126  10.975  23.634  0.00  0.00    -0.191 NA
HETATM    2  C   UNL     1       1.975  11.751  23.782  0.00  0.00     0.102 C 
HETATM    3  C   UNL     1       3.035  12.704  23.995  0.00  0.00     0.078 A 
HETATM    4  C   UNL     1       4.378  12.276  23.828  0.00  0.00     0.039 A 
HETATM    5  C   UNL     1       2.764  14.016  24.386  0.00  0.00     0.088 A 
HETATM    6  C   UNL     1       3.808  14.909  24.640  0.00  0.00     0.068 A 
HETATM    7  C   UNL     1       5.120  14.456  24.492  0.00  0.00     0.045 A 
HETATM    8  C   UNL     1       5.458  13.160  24.080  0.00  0.00    -0.000 A 
HETATM    9  N   UNL     1       6.296  15.128  24.728  0.00  0.00    -0.365 N 
HETATM   10  H   UNL     1       6.349  16.081  25.076  0.00  0.00     0.165 HD
HETATM   11  C   UNL     1       7.368  14.310  24.488  0.00  0.00     0.096 A 
HETATM   12  C   UNL     1       6.905  13.078  24.062  0.00  0.00    -0.030 A 
ENDROOT
BRANCH   5  13
HETATM   13  O   UNL     1       1.511  14.529  24.567  0.00  0.00    -0.359 OA
HETATM   14  H   UNL     1       1.283  14.650  25.504  0.00  0.00     0.217 HD
ENDBRANCH   5  13
BRANCH  12  15
HETATM   15  C   UNL     1       7.802  11.905  23.777  0.00  0.00     0.041 C 
BRANCH  15  16
HETATM   16  C   UNL     1       7.482  11.113  22.486  0.00  0.00     0.006 C 
BRANCH  16  17
HETATM   17  C   UNL     1       7.768   9.579  22.569  0.00  0.00     0.028 C 
BRANCH  17  18
HETATM   18  C   UNL     1       6.496   8.819  22.255  0.00  0.00     0.235 C 
BRANCH  18  19
HETATM   19  N   UNL     1       6.106   7.651  23.146  0.00  0.00    -0.068 N 
HETATM   20  H   UNL     1       6.879   6.961  23.102  0.00  0.00     0.280 HD
HETATM   21  C   UNL     1       4.856   6.977  22.535  0.00  0.00     0.262 C 
HETATM   22  C   UNL     1       3.640   7.942  22.623  0.00  0.00     0.263 C 
HETATM   23  N   UNL     1       3.431   8.463  24.049  0.00  0.00    -0.057 N 
HETATM   24  C   UNL     1       4.686   8.929  24.796  0.00  0.00     0.263 C 
HETATM   25  H   UNL     1       2.867   9.316  23.897  0.00  0.00     0.281 HD
HETATM   26  C   UNL     1       5.842   7.924  24.626  0.00  0.00     0.262 C 
BRANCH  23  27
HETATM   27  C   UNL     1       2.556   7.630  24.958  0.00  0.00     0.233 C 
HETATM   28  C   UNL     1       1.120   7.589  24.496  0.00  0.00     0.007 C 
HETATM   29  C   UNL     1       0.100   8.038  25.236  0.00  0.00    -0.007 C 
HETATM   30  C   UNL     1       0.313   8.425  26.657  0.00  0.00     0.123 C 
HETATM   31  C   UNL     1      -0.649   9.494  27.149  0.00  0.00    -0.008 C 
HETATM   32  C   UNL     1       1.727   8.631  27.097  0.00  0.00    -0.007 C 
HETATM   33  N   UNL     1      -1.446  10.382  27.557  0.00  0.00    -0.101 N 
HETATM   34  C   UNL     1       2.739   8.195  26.351  0.00  0.00     0.007 C 
ENDBRANCH  23  27
ENDBRANCH  18  19
ENDBRANCH  17  18
ENDBRANCH  16  17
ENDBRANCH  15  16
ENDBRANCH  12  15
TORSDOF 7
ENDMDL
MODEL 5
REMARK VINA RESULT:    -8.979      2.073      3.982
REMARK INTER + INTRA:         -13.421
REMARK INTER:                 -12.666
REMARK INTRA:                  -0.755
REMARK UNBOUND:                -1.031
REMARK  7 active torsions:
REMARK  status: ('A' for Active; 'I' for Inactive)
REMARK    1  A    between atoms: C_5  and  O_6 
REMARK    2  A    between atoms: C_13  and  C_14 
REMARK    3  A    between atoms: C_14  and  C_15 
REMARK    4  A    between atoms: C_15  and  C_16 
REMARK    5  A    between atoms: C_16  and  C_17 
REMARK    6  A    between atoms: C_17  and  N_18 
REMARK    7  A    between atoms: N_22  and  C_26 
ROOT
HETATM    1  N   UNL     1       1.559  14.453  24.222  0.00  0.00    -0.191 NA
HETATM    2  C   UNL     1       2.694  14.388  24.446  0.00  0.00     0.102 C 
HETATM    3  C   UNL     1       4.100  14.285  24.746  0.00  0.00     0.078 A 
HETATM    4  C   UNL     1       4.843  13.222  24.168  0.00  0.00     0.039 A 
HETATM    5  C   UNL     1       4.726  15.186  25.608  0.00  0.00     0.088 A 
HETATM    6  C   UNL     1       6.078  15.036  25.928  0.00  0.00     0.068 A 
HETATM    7  C   UNL     1       6.780  13.969  25.366  0.00  0.00     0.045 A 
HETATM    8  C   UNL     1       6.215  13.045  24.476  0.00  0.00    -0.000 A 
HETATM    9  N   UNL     1       8.087  13.594  25.567  0.00  0.00    -0.365 N 
HETATM   10  H   UNL     1       8.725  14.068  26.200  0.00  0.00     0.165 HD
HETATM   11  C   UNL     1       8.376  12.467  24.845  0.00  0.00     0.096 A 
HETATM   12  C   UNL     1       7.252  12.093  24.130  0.00  0.00    -0.030 A 
ENDROOT
BRANCH   5  13
HETATM   13  O   UNL     1       4.107  16.244  26.209  0.00  0.00    -0.359 OA
HETATM   14  H   UNL     1       3.291  15.991  26.674  0.00  0.00     0.217 HD
ENDBRANCH   5  13
BRANCH  12  15
HETATM   15  C   UNL     1       7.181  10.853  23.282  0.00  0.00     0.041 C 
BRANCH  15  16
HETATM   16  C   UNL     1       7.069   9.516  24.056  0.00  0.00     0.006 C 
BRANCH  16  17
HETATM   17  C   UNL     1       5.823   8.647  23.689  0.00  0.00     0.028 C 
BRANCH  17  18
HETATM   18  C   UNL     1       4.580   9.509  23.755  0.00  0.00     0.235 C 
BRANCH  18  19
HETATM   19  N   UNL     1       3.777   9.532  25.046  0.00  0.00    -0.068 N 
HETATM   20  H   UNL     1       4.440   9.732  25.816  0.00  0.00     0.280 HD
HETATM   21  C   UNL     1       3.212   8.112  25.284  0.00  0.00     0.262 C 
HETATM   22  C   UNL     1       2.162   7.770  24.190  0.00  0.00     0.263 C 
HETATM   23  N   UNL     1       1.086   8.856  24.078  0.00  0.00    -0.057 N 
HETATM   24  C   UNL     1       1.580  10.307  24.074  0.00  0.00     0.263 C 
HETATM   25  H   UNL     1       0.699   8.693  23.133  0.00  0.00     0.281 HD
HETATM   26  C   UNL     1       2.636  10.541  25.172  0.00  0.00     0.262 C 
BRANCH  23  27
HETATM   27  C   UNL     1      -0.124   8.713  24.973  0.00  0.00     0.233 C 
HETATM   28  C   UNL     1      -0.042   9.592  26.197  0.00  0.00     0.007 C 
HETATM   29  C   UNL     1      -0.047   9.111  27.444  0.00  0.00    -0.007 C 
HETATM   30  C   UNL     1      -0.338   7.673  27.696  0.00  0.00     0.123 C 
HETATM   31  C   UNL     1       0.325   7.127  28.951  0.00  0.00    -0.008 C 
HETATM   32  C   UNL     1      -0.265   6.752  26.521  0.00  0.00    -0.007 C 
HETATM   33  N   UNL     1       0.875   6.674  29.991  0.00  0.00    -0.101 N 
HETATM   34  C   UNL     1      -0.247   7.237  25.281  0.00  0.00     0.007 C 
ENDBRANCH  23  27
ENDBRANCH  18  19
ENDBRANCH  17  18
ENDBRANCH  16  17
ENDBRANCH  15  16
ENDBRANCH  12  15
TORSDOF 7
ENDMDL
MODEL 6
REMARK VINA RESULT:    -8.971      2.291      6.801
REMARK INTER + INTRA:         -13.410
REMARK INTER:                 -12.256
REMARK INTRA:                  -1.154
REMARK UNBOUND:                -1.031
REMARK  7 active torsions:
REMARK  status: ('A' for Active; 'I' for Inactive)
REMARK    1  A    between atoms: C_5  and  O_6 
REMARK    2  A    between atoms: C_13  and  C_14 
REMARK    3  A    between atoms: C_14  and  C_15 
REMARK    4  A    between atoms: C_15  and  C_16 
REMARK    5  A    between atoms: C_16  and  C_17 
REMARK    6  A    between atoms: C_17  and  N_18 
REMARK    7  A    between atoms: N_22  and  C_26 
ROOT
HETATM    1  N   UNL     1       6.769   9.448  24.426  0.00  0.00    -0.191 NA
HETATM    2  C   UNL     1       5.740   8.954  24.224  0.00  0.00     0.102 C 
HETATM    3  C   UNL     1       4.467   8.319  23.996  0.00  0.00     0.078 A 
HETATM    4  C   UNL     1       3.383   8.639  24.857  0.00  0.00     0.039 A 
HETATM    5  C   UNL     1       4.294   7.386  22.974  0.00  0.00     0.088 A 
HETATM    6  C   UNL     1       3.065   6.742  22.804  0.00  0.00     0.068 A 
HETATM    7  C   UNL     1       2.024   7.056  23.678  0.00  0.00     0.045 A 
HETATM    8  C   UNL     1       2.127   8.000  24.710  0.00  0.00    -0.000 A 
HETATM    9  N   UNL     1       0.757   6.524  23.737  0.00  0.00    -0.365 N 
HETATM   10  H   UNL     1       0.420   5.786  23.128  0.00  0.00     0.165 HD
HETATM   11  C   UNL     1       0.052   7.088  24.767  0.00  0.00     0.096 A 
HETATM   12  C   UNL     1       0.850   8.030  25.394  0.00  0.00    -0.030 A 
ENDROOT
BRANCH   5  13
HETATM   13  O   UNL     1       5.265   7.015  22.089  0.00  0.00    -0.359 OA
HETATM   14  H   UNL     1       6.021   6.579  22.517  0.00  0.00     0.217 HD
ENDBRANCH   5  13
BRANCH  12  15
HETATM   15  C   UNL     1       0.427   8.795  26.617  0.00  0.00     0.041 C 
BRANCH  15  16
HETATM   16  C   UNL     1      -0.483  10.021  26.361  0.00  0.00     0.006 C 
BRANCH  16  17
HETATM   17  C   UNL     1      -0.751  10.336  24.854  0.00  0.00     0.028 C 
BRANCH  17  18
HETATM   18  C   UNL     1      -0.497  11.808  24.602  0.00  0.00     0.235 C 
BRANCH  18  19
HETATM   19  N   UNL     1       0.381  12.204  23.427  0.00  0.00    -0.068 N 
HETATM   20  H   UNL     1      -0.077  11.850  22.568  0.00  0.00     0.280 HD
HETATM   21  C   UNL     1       1.731  11.463  23.564  0.00  0.00     0.262 C 
HETATM   22  C   UNL     1       2.500  11.992  24.808  0.00  0.00     0.263 C 
HETATM   23  N   UNL     1       2.630  13.519  24.787  0.00  0.00    -0.057 N 
HETATM   24  C   UNL     1       1.365  14.306  24.422  0.00  0.00     0.263 C 
HETATM   25  H   UNL     1       2.817  13.743  25.779  0.00  0.00     0.281 HD
HETATM   26  C   UNL     1       0.659  13.690  23.198  0.00  0.00     0.262 C 
BRANCH  23  27
HETATM   27  C   UNL     1       3.832  14.093  24.073  0.00  0.00     0.233 C 
HETATM   28  C   UNL     1       4.973  13.109  23.984  0.00  0.00     0.007 C 
HETATM   29  C   UNL     1       6.176  13.334  24.522  0.00  0.00    -0.007 C 
HETATM   30  C   UNL     1       6.516  14.673  25.075  0.00  0.00     0.123 C 
HETATM   31  C   UNL     1       7.538  14.627  26.200  0.00  0.00    -0.008 C 
HETATM   32  C   UNL     1       5.379  15.610  25.325  0.00  0.00    -0.007 C 
HETATM   33  N   UNL     1       8.385  14.589  27.133  0.00  0.00    -0.101 N 
HETATM   34  C   UNL     1       4.179  15.375  24.798  0.00  0.00     0.007 C 
ENDBRANCH  23  27
ENDBRANCH  18  19
ENDBRANCH  17  18
ENDBRANCH  16  17
ENDBRANCH  15  16
ENDBRANCH  12  15
TORSDOF 7
ENDMDL
MODEL 7
REMARK VINA RESULT:    -8.953      2.868      8.284
REMARK INTER + INTRA:         -13.385
REMARK INTER:                 -12.381
REMARK INTRA:                  -1.005
REMARK UNBOUND:                -1.031
REMARK  7 active torsions:
REMARK  status: ('A' for Active; 'I' for Inactive)
REMARK    1  A    between atoms: C_5  and  O_6 
REMARK    2  A    between atoms: C_13  and  C_14 
REMARK    3  A    between atoms: C_14  and  C_15 
REMARK    4  A    between atoms: C_15  and  C_16 
REMARK    5  A    between atoms: C_16  and  C_17 
REMARK    6  A    between atoms: C_17  and  N_18 
REMARK    7  A    between atoms: N_22  and  C_26 
ROOT
HETATM    1  N   UNL     1      -1.822  11.834  24.522  0.00  0.00    -0.191 NA
HETATM    2  C   UNL     1      -1.356  11.073  25.262  0.00  0.00     0.102 C 
HETATM    3  C   UNL     1      -0.795  10.104  26.170  0.00  0.00     0.078 A 
HETATM    4  C   UNL     1       0.225   9.238  25.695  0.00  0.00     0.039 A 
HETATM    5  C   UNL     1      -1.256   9.987  27.481  0.00  0.00     0.088 A 
HETATM    6  C   UNL     1      -0.736   9.004  28.329  0.00  0.00     0.068 A 
HETATM    7  C   UNL     1       0.249   8.150  27.830  0.00  0.00     0.045 A 
HETATM    8  C   UNL     1       0.769   8.231  26.531  0.00  0.00    -0.000 A 
HETATM    9  N   UNL     1       0.868   7.091  28.452  0.00  0.00    -0.365 N 
HETATM   10  H   UNL     1       0.653   6.779  29.394  0.00  0.00     0.165 HD
HETATM   11  C   UNL     1       1.757   6.493  27.599  0.00  0.00     0.096 A 
HETATM   12  C   UNL     1       1.752   7.175  26.395  0.00  0.00    -0.030 A 
ENDROOT
BRANCH   5  13
HETATM   13  O   UNL     1      -2.224  10.772  28.038  0.00  0.00    -0.359 OA
HETATM   14  H   UNL     1      -1.957  11.704  28.115  0.00  0.00     0.217 HD
ENDBRANCH   5  13
BRANCH  12  15
HETATM   15  C   UNL     1       2.554   6.750  25.196  0.00  0.00     0.041 C 
BRANCH  15  16
HETATM   16  C   UNL     1       3.984   6.237  25.493  0.00  0.00     0.006 C 
BRANCH  16  17
HETATM   17  C   UNL     1       4.820   5.853  24.230  0.00  0.00     0.028 C 
BRANCH  17  18
HETATM   18  C   UNL     1       5.981   6.816  24.092  0.00  0.00     0.235 C 
BRANCH  18  19
HETATM   19  N   UNL     1       6.006   7.760  22.901  0.00  0.00    -0.068 N 
HETATM   20  H   UNL     1       6.203   7.187  22.060  0.00  0.00     0.280 HD
HETATM   21  C   UNL     1       7.195   8.731  23.083  0.00  0.00     0.262 C 
HETATM   22  C   UNL     1       6.935   9.663  24.299  0.00  0.00     0.263 C 
HETATM   23  N   UNL     1       5.573  10.361  24.198  0.00  0.00    -0.057 N 
HETATM   24  C   UNL     1       4.386   9.482  23.787  0.00  0.00     0.263 C 
HETATM   25  H   UNL     1       5.387  10.635  25.178  0.00  0.00     0.281 HD
HETATM   26  C   UNL     1       4.750   8.575  22.594  0.00  0.00     0.262 C 
BRANCH  23  27
HETATM   27  C   UNL     1       5.534  11.679  23.459  0.00  0.00     0.233 C 
HETATM   28  C   UNL     1       6.549  12.664  23.986  0.00  0.00     0.007 C 
HETATM   29  C   UNL     1       6.215  13.849  24.506  0.00  0.00    -0.007 C 
HETATM   30  C   UNL     1       4.816  14.348  24.410  0.00  0.00     0.123 C 
HETATM   31  C   UNL     1       4.420  15.277  25.547  0.00  0.00    -0.008 C 
HETATM   32  C   UNL     1       3.766  13.349  24.047  0.00  0.00    -0.007 C 
HETATM   33  N   UNL     1       4.091  16.046  26.490  0.00  0.00    -0.101 N 
HETATM   34  C   UNL     1       4.103  12.165  23.541  0.00  0.00     0.007 C 
ENDBRANCH  23  27
ENDBRANCH  18  19
ENDBRANCH  17  18
ENDBRANCH  16  17
ENDBRANCH  15  16
ENDBRANCH  12  15
TORSDOF 7
ENDMDL
MODEL 8
REMARK VINA RESULT:    -8.792      2.172      5.760
REMARK INTER + INTRA:         -13.164
REMARK INTER:                 -12.133
REMARK INTRA:                  -1.031
REMARK UNBOUND:                -1.031
REMARK  7 active torsions:
REMARK  status: ('A' for Active; 'I' for Inactive)
REMARK    1  A    between atoms: C_5  and  O_6 
REMARK    2  A    between atoms: C_13  and  C_14 
REMARK    3  A    between atoms: C_14  and  C_15 
REMARK    4  A    between atoms: C_15  and  C_16 
REMARK    5  A    between atoms: C_16  and  C_17 
REMARK    6  A    between atoms: C_17  and  N_18 
REMARK    7  A    between atoms: N_22  and  C_26 
ROOT
HETATM    1  N   UNL     1       4.294  14.116  24.191  0.00  0.00    -0.191 NA
HETATM    2  C   UNL     1       4.983  13.188  24.099  0.00  0.00     0.102 C 
HETATM    3  C   UNL     1       5.837  12.031  24.016  0.00  0.00     0.078 A 
HETATM    4  C   UNL     1       5.242  10.742  24.046  0.00  0.00     0.039 A 
HETATM    5  C   UNL     1       7.225  12.157  23.937  0.00  0.00     0.088 A 
HETATM    6  C   UNL     1       8.038  11.021  23.911  0.00  0.00     0.068 A 
HETATM    7  C   UNL     1       7.430   9.767  23.967  0.00  0.00     0.045 A 
HETATM    8  C   UNL     1       6.043   9.572  24.023  0.00  0.00    -0.000 A 
HETATM    9  N   UNL     1       8.017   8.524  24.003  0.00  0.00    -0.365 N 
HETATM   10  H   UNL     1       9.020   8.367  24.013  0.00  0.00     0.165 HD
HETATM   11  C   UNL     1       7.060   7.548  24.086  0.00  0.00     0.096 A 
HETATM   12  C   UNL     1       5.810   8.143  24.081  0.00  0.00    -0.030 A 
ENDROOT
BRANCH   5  13
HETATM   13  O   UNL     1       7.895  13.346  23.894  0.00  0.00    -0.359 OA
HETATM   14  H   UNL     1       7.376  14.058  23.482  0.00  0.00     0.217 HD
ENDBRANCH   5  13
BRANCH  12  15
HETATM   15  C   UNL     1       4.525   7.378  24.234  0.00  0.00     0.041 C 
BRANCH  15  16
HETATM   16  C   UNL     1       4.619   6.063  25.046  0.00  0.00     0.006 C 
BRANCH  16  17
HETATM   17  C   UNL     1       3.795   6.051  26.374  0.00  0.00     0.028 C 
BRANCH  17  18
HETATM   18  C   UNL     1       2.320   6.139  26.044  0.00  0.00     0.235 C 
BRANCH  18  19
HETATM   19  N   UNL     1       1.437   7.042  26.890  0.00  0.00    -0.068 N 
HETATM   20  H   UNL     1       1.244   6.540  27.776  0.00  0.00     0.280 HD
HETATM   21  C   UNL     1       0.087   7.218  26.158  0.00  0.00     0.262 C 
HETATM   22  C   UNL     1       0.300   8.019  24.843  0.00  0.00     0.263 C 
HETATM   23  N   UNL     1       1.045   9.335  25.094  0.00  0.00    -0.057 N 
HETATM   24  C   UNL     1       2.268   9.260  26.015  0.00  0.00     0.263 C 
HETATM   25  H   UNL     1       1.417   9.566  24.158  0.00  0.00     0.281 HD
HETATM   26  C   UNL     1       1.970   8.423  27.274  0.00  0.00     0.262 C 
BRANCH  23  27
HETATM   27  C   UNL     1       0.202  10.543  25.436  0.00  0.00     0.233 C 
HETATM   28  C   UNL     1      -1.252  10.351  25.077  0.00  0.00     0.007 C 
HETATM   29  C   UNL     1      -1.899  11.131  24.206  0.00  0.00    -0.007 C 
HETATM   30  C   UNL     1      -1.262  12.371  23.687  0.00  0.00     0.123 C 
HETATM   31  C   UNL     1      -1.735  12.765  22.296  0.00  0.00    -0.008 C 
HETATM   32  C   UNL     1       0.213  12.509  23.888  0.00  0.00    -0.007 C 
HETATM   33  N   UNL     1      -2.127  13.090  21.143  0.00  0.00    -0.101 N 
HETATM   34  C   UNL     1       0.856  11.720  24.747  0.00  0.00     0.007 C 
ENDBRANCH  23  27
ENDBRANCH  18  19
ENDBRANCH  17  18
ENDBRANCH  16  17
ENDBRANCH  15  16
ENDBRANCH  12  15
TORSDOF 7
ENDMDL
MODEL 9
REMARK VINA RESULT:    -8.787      2.432      4.402
REMARK INTER + INTRA:         -13.157
REMARK INTER:                 -12.533
REMARK INTRA:                  -0.624
REMARK UNBOUND:                -1.031
REMARK  7 active torsions:
REMARK  status: ('A' for Active; 'I' for Inactive)
REMARK    1  A    between atoms: C_5  and  O_6 
REMARK    2  A    between atoms: C_13  and  C_14 
REMARK    3  A    between atoms: C_14  and  C_15 
REMARK    4  A    between atoms: C_15  and  C_16 
REMARK    5  A    between atoms: C_16  and  C_17 
REMARK    6  A    between atoms: C_17  and  N_18 
REMARK    7  A    between atoms: N_22  and  C_26 
ROOT
HETATM    1  N   UNL     1       1.674  14.122  24.331  0.00  0.00    -0.191 NA
HETATM    2  C   UNL     1       2.830  14.037  24.336  0.00  0.00     0.102 C 
HETATM    3  C   UNL     1       4.266  13.918  24.371  0.00  0.00     0.078 A 
HETATM    4  C   UNL     1       4.852  12.657  24.082  0.00  0.00     0.039 A 
HETATM    5  C   UNL     1       5.076  15.003  24.709  0.00  0.00     0.088 A 
HETATM    6  C   UNL     1       6.463  14.852  24.790  0.00  0.00     0.068 A 
HETATM    7  C   UNL     1       7.011  13.597  24.525  0.00  0.00     0.045 A 
HETATM    8  C   UNL     1       6.256  12.475  24.158  0.00  0.00    -0.000 A 
HETATM    9  N   UNL     1       8.326  13.200  24.587  0.00  0.00    -0.365 N 
HETATM   10  H   UNL     1       9.092  13.805  24.868  0.00  0.00     0.165 HD
HETATM   11  C   UNL     1       8.436  11.870  24.279  0.00  0.00     0.096 A 
HETATM   12  C   UNL     1       7.179  11.372  23.983  0.00  0.00    -0.030 A 
ENDROOT
BRANCH   5  13
HETATM   13  O   UNL     1       4.615  16.256  24.996  0.00  0.00    -0.359 OA
HETATM   14  H   UNL     1       3.731  16.427  24.631  0.00  0.00     0.217 HD
ENDBRANCH   5  13
BRANCH  12  15
HETATM   15  C   UNL     1       6.910   9.926  23.672  0.00  0.00     0.041 C 
BRANCH  15  16
HETATM   16  C   UNL     1       6.632   9.600  22.185  0.00  0.00     0.006 C 
BRANCH  16  17
HETATM   17  C   UNL     1       5.175   9.121  21.878  0.00  0.00     0.028 C 
BRANCH  17  18
HETATM   18  C   UNL     1       4.876   7.886  22.702  0.00  0.00     0.235 C 
BRANCH  18  19
HETATM   19  N   UNL     1       3.439   7.397  22.785  0.00  0.00    -0.068 N 
HETATM   20  H   UNL     1       3.023   7.506  21.842  0.00  0.00     0.280 HD
HETATM   21  C   UNL     1       2.666   8.337  23.738  0.00  0.00     0.262 C 
HETATM   22  C   UNL     1       3.204   8.178  25.188  0.00  0.00     0.263 C 
HETATM   23  N   UNL     1       3.211   6.712  25.633  0.00  0.00    -0.057 N 
HETATM   24  C   UNL     1       3.756   5.696  24.623  0.00  0.00     0.263 C 
HETATM   25  H   UNL     1       3.889   6.717  26.413  0.00  0.00     0.281 HD
HETATM   26  C   UNL     1       3.189   5.951  23.212  0.00  0.00     0.262 C 
BRANCH  23  27
HETATM   27  C   UNL     1       1.949   6.188  26.279  0.00  0.00     0.233 C 
HETATM   28  C   UNL     1       0.705   6.606  25.534  0.00  0.00     0.007 C 
HETATM   29  C   UNL     1      -0.264   7.345  26.084  0.00  0.00    -0.007 C 
HETATM   30  C   UNL     1      -0.256   7.631  27.545  0.00  0.00     0.123 C 
HETATM   31  C   UNL     1      -0.929   8.944  27.913  0.00  0.00    -0.008 C 
HETATM   32  C   UNL     1       1.023   7.377  28.276  0.00  0.00    -0.007 C 
HETATM   33  N   UNL     1      -1.485  10.033  28.218  0.00  0.00    -0.101 N 
HETATM   34  C   UNL     1       1.989   6.652  27.719  0.00  0.00     0.007 C 
ENDBRANCH  23  27
ENDBRANCH  18  19
ENDBRANCH  17  18
ENDBRANCH  16  17
ENDBRANCH  15  16
ENDBRANCH  12  15
TORSDOF 7
ENDMDL
