REMARK  7 active torsions:
REMARK  status: ('A' for Active; 'I' for Inactive)
REMARK    1  A    between atoms: C_5  and  O_6 
REMARK    2  A    between atoms: C_13  and  C_14 
REMARK    3  A    between atoms: C_14  and  C_15 
REMARK    4  A    between atoms: C_15  and  C_16 
REMARK    5  A    between atoms: C_16  and  C_17 
REMARK    6  A    between atoms: C_17  and  N_18 
REMARK    7  A    between atoms: N_22  and  C_26 
ROOT
HETATM    1  N   UNL     1      10.215   4.288   5.497  0.00  0.00    -0.191 NA
HETATM    2  C   UNL     1      10.431   4.337   4.359  0.00  0.00     0.102 C 
HETATM    3  C   UNL     1      10.685   4.371   2.941  0.00  0.00     0.078 A 
HETATM    4  C   UNL     1       9.643   4.792   2.073  0.00  0.00     0.039 A 
HETATM    5  C   UNL     1      11.914   3.973   2.414  0.00  0.00     0.088 A 
HETATM    6  C   UNL     1      12.121   3.962   1.032  0.00  0.00     0.068 A 
HETATM    7  C   UNL     1      11.073   4.357   0.200  0.00  0.00     0.045 A 
HETATM    8  C   UNL     1       9.824   4.789   0.667  0.00  0.00    -0.000 A 
HETATM    9  N   UNL     1      11.025   4.383  -1.174  0.00  0.00    -0.365 N 
HETATM   10  H   UNL     1      11.785   4.082  -1.777  0.00  0.00     0.165 HD
HETATM   11  C   UNL     1       9.795   4.809  -1.599  0.00  0.00     0.096 A 
HETATM   12  C   UNL     1       9.013   5.096  -0.494  0.00  0.00    -0.030 A 
ENDROOT
BRANCH   5  13
HETATM   13  O   UNL     1      12.981   3.560   3.159  0.00  0.00    -0.359 OA
HETATM   14  H   UNL     1      12.825   3.632   4.116  0.00  0.00     0.217 HD
ENDBRANCH   5  13
BRANCH  12  15
HETATM   15  C   UNL     1       7.573   5.520  -0.582  0.00  0.00     0.041 C 
BRANCH  15  16
HETATM   16  C   UNL     1       7.332   7.021  -0.873  0.00  0.00     0.006 C 
BRANCH  16  17
HETATM   17  C   UNL     1       5.852   7.396  -1.208  0.00  0.00     0.028 C 
BRANCH  17  18
HETATM   18  C   UNL     1       4.966   7.007  -0.043  0.00  0.00     0.235 C 
BRANCH  18  19
HETATM   19  N   UNL     1       3.467   7.230  -0.162  0.00  0.00    -0.068 N 
HETATM   20  H   UNL     1       3.308   8.254  -0.159  0.00  0.00     0.280 HD
HETATM   21  C   UNL     1       2.794   6.658   1.107  0.00  0.00     0.262 C 
HETATM   22  C   UNL     1       2.946   5.111   1.134  0.00  0.00     0.263 C 
HETATM   23  N   UNL     1       2.458   4.470  -0.170  0.00  0.00    -0.057 N 
HETATM   24  C   UNL     1       2.908   5.145  -1.471  0.00  0.00     0.263 C 
HETATM   25  H   UNL     1       2.929   3.550  -0.159  0.00  0.00     0.281 HD
HETATM   26  C   UNL     1       2.747   6.676  -1.391  0.00  0.00     0.262 C 
BRANCH  23  27
HETATM   27  C   UNL     1       0.993   4.105  -0.245  0.00  0.00     0.233 C 
HETATM   28  C   UNL     1       0.256   4.415   1.035  0.00  0.00     0.007 C 
HETATM   29  C   UNL     1      -0.362   3.483   1.767  0.00  0.00    -0.007 C 
HETATM   30  C   UNL     1      -0.525   2.099   1.244  0.00  0.00     0.123 C 
HETATM   31  C   UNL     1      -0.589   1.039   2.332  0.00  0.00    -0.008 C 
HETATM   32  C   UNL     1       0.319   1.716   0.071  0.00  0.00    -0.007 C 
HETATM   33  N   UNL     1      -0.641   0.160   3.234  0.00  0.00    -0.101 N 
HETATM   34  C   UNL     1       0.943   2.647  -0.647  0.00  0.00     0.007 C 
ENDBRANCH  23  27
ENDBRANCH  18  19
ENDBRANCH  17  18
ENDBRANCH  16  17
ENDBRANCH  15  16
ENDBRANCH  12  15
TORSDOF 7
