MODEL 1
REMARK VINA RESULT:    -8.820      0.000      0.000
REMARK INTER + INTRA:         -12.970
REMARK INTER:                 -11.924
REMARK INTRA:                  -1.046
REMARK UNBOUND:                -1.314
REMARK  6 active torsions:
REMARK  status: ('A' for Active; 'I' for Inactive)
REMARK    1  A    between atoms: N_8  and  C_9 
REMARK    2  A    between atoms: C_14  and  N_15 
REMARK       I    between atoms: N_15  and  C_17 
REMARK    3  A    between atoms: C_17  and  C_19 
REMARK    4  A    between atoms: C_21  and  O_22 
REMARK    5  A    between atoms: C_29  and  C_30 
REMARK    6  A    between atoms: C_30  and  C_31 
ROOT
HETATM    1  C   UNL     1       2.058   7.834  25.846  0.00  0.00     0.066 C 
HETATM    2  C   UNL     1       0.733   8.270  26.072  0.00  0.00     0.035 C 
HETATM    3  C   UNL     1       2.917   7.756  26.966  0.00  0.00     0.083 C 
HETATM    4  C   UNL     1       2.527   8.187  28.241  0.00  0.00     0.069 C 
HETATM    5  C   UNL     1       1.268   8.784  28.355  0.00  0.00     0.065 A 
HETATM    6  C   UNL     1       0.370   8.872  27.303  0.00  0.00     0.020 A 
HETATM    7  N   UNL     1       0.625   9.357  29.417  0.00  0.00    -0.277 N 
HETATM    8  H   UNL     1       0.958   9.418  30.374  0.00  0.00     0.189 HD
HETATM    9  N   UNL     1      -0.551   9.924  29.107  0.00  0.00    -0.178 NA
HETATM   10  C   UNL     1      -0.729   9.653  27.805  0.00  0.00     0.071 A 
ENDROOT
BRANCH   1  11
HETATM   11  C   UNL     1       2.606   7.495  24.468  0.00  0.00     0.260 C 
HETATM   12  N   UNL     1       2.839   6.143  24.066  0.00  0.00    -0.318 N 
HETATM   13  C   UNL     1       2.489   5.023  24.947  0.00  0.00     0.159 C 
HETATM   14  O   UNL     1       2.760   8.471  23.735  0.00  0.00    -0.267 OA
BRANCH  12  15
HETATM   15  C   UNL     1       3.308   5.767  22.731  0.00  0.00     0.037 C 
HETATM   16  C   UNL     1       2.715   4.695  22.050  0.00  0.00     0.032 C 
HETATM   17  C   UNL     1       2.967   4.421  20.696  0.00  0.00     0.031 C 
HETATM   18  C   UNL     1       3.862   5.173  19.934  0.00  0.00     0.030 C 
HETATM   19  C   UNL     1       4.585   6.132  20.653  0.00  0.00     0.031 C 
HETATM   20  C   UNL     1       4.311   6.429  22.018  0.00  0.00     0.032 C 
BRANCH  18  21
HETATM   21  N   UNL     1       4.019   4.907  18.576  0.00  0.00    -0.378 N 
HETATM   22  C   UNL     1       4.322   5.972  17.606  0.00  0.00     0.150 C 
HETATM   23  C   UNL     1       3.041   6.491  16.917  0.00  0.00     0.254 C 
HETATM   24  N   UNL     1       2.240   5.334  16.306  0.00  0.00    -0.072 N 
HETATM   25  H   UNL     1       2.836   4.903  15.588  0.00  0.00     0.279 HD
HETATM   26  C   UNL     1       0.988   5.811  15.634  0.00  0.00     0.269 C 
HETATM   27  C   UNL     1       1.951   4.256  17.351  0.00  0.00     0.254 C 
HETATM   28  C   UNL     1       3.264   3.769  18.000  0.00  0.00     0.150 C 
ENDBRANCH  18  21
ENDBRANCH  12  15
ENDBRANCH   1  11
BRANCH   3  29
HETATM   29  O   UNL     1       4.198   7.261  26.894  0.00  0.00    -0.360 OA
HETATM   30  H   UNL     1       4.709   7.840  26.287  0.00  0.00     0.217 HD
ENDBRANCH   3  29
BRANCH  10  31
HETATM   31  C   UNL     1      -1.967  10.188  27.118  0.00  0.00     0.100 C 
BRANCH  31  32
HETATM   32  C   UNL     1      -1.635  10.945  25.831  0.00  0.00    -0.052 A 
HETATM   33  C   UNL     1      -2.125  10.581  24.571  0.00  0.00     0.007 A 
HETATM   34  C   UNL     1      -1.783  11.297  23.422  0.00  0.00     0.001 A 
HETATM   35  C   UNL     1      -0.866  12.341  23.488  0.00  0.00     0.007 A 
HETATM   36  C   UNL     1      -0.249  12.653  24.702  0.00  0.00    -0.061 A 
HETATM   37  C   UNL     1      -0.666  11.985  25.872  0.00  0.00     0.014 A 
HETATM   38  C   UNL     1       0.851  13.683  24.710  0.00  0.00     0.048 C 
ENDBRANCH  31  32
ENDBRANCH  10  31
TORSDOF 6
ENDMDL
MODEL 2
REMARK VINA RESULT:    -8.493      3.065      9.789
REMARK INTER + INTRA:         -12.539
REMARK INTER:                 -11.581
REMARK INTRA:                  -0.957
REMARK UNBOUND:                -1.314
REMARK  6 active torsions:
REMARK  status: ('A' for Active; 'I' for Inactive)
REMARK    1  A    between atoms: N_8  and  C_9 
REMARK    2  A    between atoms: C_14  and  N_15 
REMARK       I    between atoms: N_15  and  C_17 
REMARK    3  A    between atoms: C_17  and  C_19 
REMARK    4  A    between atoms: C_21  and  O_22 
REMARK    5  A    between atoms: C_29  and  C_30 
REMARK    6  A    between atoms: C_30  and  C_31 
ROOT
HETATM    1  C   UNL     1       4.482   6.978  22.918  0.00  0.00     0.066 C 
HETATM    2  C   UNL     1       3.952   7.743  21.856  0.00  0.00     0.035 C 
HETATM    3  C   UNL     1       5.763   6.409  22.735  0.00  0.00     0.083 C 
HETATM    4  C   UNL     1       6.455   6.496  21.520  0.00  0.00     0.069 C 
HETATM    5  C   UNL     1       5.789   7.103  20.450  0.00  0.00     0.065 A 
HETATM    6  C   UNL     1       4.544   7.700  20.569  0.00  0.00     0.020 A 
HETATM    7  N   UNL     1       6.147   7.288  19.143  0.00  0.00    -0.277 N 
HETATM    8  H   UNL     1       7.026   7.033  18.706  0.00  0.00     0.189 HD
HETATM    9  N   UNL     1       5.184   7.831  18.382  0.00  0.00    -0.178 NA
HETATM   10  C   UNL     1       4.177   8.083  19.231  0.00  0.00     0.071 A 
ENDROOT
BRANCH   1  11
HETATM   11  C   UNL     1       3.730   6.706  24.213  0.00  0.00     0.260 C 
HETATM   12  N   UNL     1       3.193   7.768  25.005  0.00  0.00    -0.318 N 
HETATM   13  C   UNL     1       3.286   9.163  24.559  0.00  0.00     0.159 C 
HETATM   14  O   UNL     1       3.579   5.511  24.464  0.00  0.00    -0.267 OA
BRANCH  12  15
HETATM   15  C   UNL     1       2.412   7.551  26.224  0.00  0.00     0.037 C 
HETATM   16  C   UNL     1       3.059   7.378  27.456  0.00  0.00     0.032 C 
HETATM   17  C   UNL     1       2.373   7.381  28.682  0.00  0.00     0.031 C 
HETATM   18  C   UNL     1       0.987   7.516  28.764  0.00  0.00     0.030 C 
HETATM   19  C   UNL     1       0.322   7.513  27.533  0.00  0.00     0.031 C 
HETATM   20  C   UNL     1       1.016   7.538  26.290  0.00  0.00     0.032 C 
BRANCH  18  21
HETATM   21  N   UNL     1       0.365   7.589  30.008  0.00  0.00    -0.378 N 
HETATM   22  C   UNL     1       0.512   8.764  30.882  0.00  0.00     0.150 C 
HETATM   23  C   UNL     1       1.626   8.554  31.931  0.00  0.00     0.254 C 
HETATM   24  N   UNL     1       1.404   7.252  32.711  0.00  0.00    -0.072 N 
HETATM   25  H   UNL     1       0.511   7.348  33.209  0.00  0.00     0.279 HD
HETATM   26  C   UNL     1       2.475   7.019  33.734  0.00  0.00     0.269 C 
HETATM   27  C   UNL     1       1.257   6.062  31.761  0.00  0.00     0.254 C 
HETATM   28  C   UNL     1       0.128   6.324  30.742  0.00  0.00     0.150 C 
ENDBRANCH  18  21
ENDBRANCH  12  15
ENDBRANCH   1  11
BRANCH   3  29
HETATM   29  O   UNL     1       6.426   5.722  23.725  0.00  0.00    -0.360 OA
HETATM   30  H   UNL     1       6.698   4.853  23.357  0.00  0.00     0.217 HD
ENDBRANCH   3  29
BRANCH  10  31
HETATM   31  C   UNL     1       2.899   8.679  18.681  0.00  0.00     0.100 C 
BRANCH  31  32
HETATM   32  C   UNL     1       2.035   7.639  17.966  0.00  0.00    -0.052 A 
HETATM   33  C   UNL     1       1.733   7.690  16.601  0.00  0.00     0.007 A 
HETATM   34  C   UNL     1       0.929   6.722  15.995  0.00  0.00     0.001 A 
HETATM   35  C   UNL     1       0.327   5.727  16.759  0.00  0.00     0.007 A 
HETATM   36  C   UNL     1       0.493   5.715  18.146  0.00  0.00    -0.061 A 
HETATM   37  C   UNL     1       1.376   6.641  18.737  0.00  0.00     0.014 A 
HETATM   38  C   UNL     1      -0.295   4.720  18.960  0.00  0.00     0.048 C 
ENDBRANCH  31  32
ENDBRANCH  10  31
TORSDOF 6
ENDMDL
MODEL 3
REMARK VINA RESULT:    -8.099      2.672      9.987
REMARK INTER + INTRA:         -12.018
REMARK INTER:                 -10.891
REMARK INTRA:                  -1.126
REMARK UNBOUND:                -1.314
REMARK  6 active torsions:
REMARK  status: ('A' for Active; 'I' for Inactive)
REMARK    1  A    between atoms: N_8  and  C_9 
REMARK    2  A    between atoms: C_14  and  N_15 
REMARK       I    between atoms: N_15  and  C_17 
REMARK    3  A    between atoms: C_17  and  C_19 
REMARK    4  A    between atoms: C_21  and  O_22 
REMARK    5  A    between atoms: C_29  and  C_30 
REMARK    6  A    between atoms: C_30  and  C_31 
ROOT
HETATM    1  C   UNL     1       4.256   7.575  21.403  0.00  0.00     0.066 C 
HETATM    2  C   UNL     1       3.505   7.836  20.236  0.00  0.00     0.035 C 
HETATM    3  C   UNL     1       5.453   6.836  21.257  0.00  0.00     0.083 C 
HETATM    4  C   UNL     1       5.847   6.284  20.031  0.00  0.00     0.069 C 
HETATM    5  C   UNL     1       4.961   6.418  18.957  0.00  0.00     0.065 A 
HETATM    6  C   UNL     1       3.785   7.148  19.028  0.00  0.00     0.020 A 
HETATM    7  N   UNL     1       5.010   5.951  17.673  0.00  0.00    -0.277 N 
HETATM    8  H   UNL     1       5.762   5.425  17.241  0.00  0.00     0.189 HD
HETATM    9  N   UNL     1       3.905   6.204  16.954  0.00  0.00    -0.178 NA
HETATM   10  C   UNL     1       3.125   6.929  17.768  0.00  0.00     0.071 A 
ENDROOT
BRANCH   1  11
HETATM   11  C   UNL     1       3.818   8.006  22.796  0.00  0.00     0.260 C 
HETATM   12  N   UNL     1       3.024   7.157  23.628  0.00  0.00    -0.318 N 
HETATM   13  C   UNL     1       2.660   5.803  23.195  0.00  0.00     0.159 C 
HETATM   14  O   UNL     1       4.261   9.100  23.145  0.00  0.00    -0.267 OA
BRANCH  12  15
HETATM   15  C   UNL     1       2.631   7.505  24.994  0.00  0.00     0.037 C 
HETATM   16  C   UNL     1       3.362   7.016  26.086  0.00  0.00     0.032 C 
HETATM   17  C   UNL     1       3.172   7.480  27.398  0.00  0.00     0.031 C 
HETATM   18  C   UNL     1       2.210   8.436  27.722  0.00  0.00     0.030 C 
HETATM   19  C   UNL     1       1.362   8.798  26.668  0.00  0.00     0.031 C 
HETATM   20  C   UNL     1       1.571   8.351  25.333  0.00  0.00     0.032 C 
BRANCH  18  21
HETATM   21  N   UNL     1       2.114   8.917  29.025  0.00  0.00    -0.378 N 
HETATM   22  C   UNL     1       3.241   8.833  29.968  0.00  0.00     0.150 C 
HETATM   23  C   UNL     1       3.127   7.590  30.878  0.00  0.00     0.254 C 
HETATM   24  N   UNL     1       1.760   7.543  31.571  0.00  0.00    -0.072 N 
HETATM   25  H   UNL     1       1.695   8.379  32.166  0.00  0.00     0.279 HD
HETATM   26  C   UNL     1       1.620   6.342  32.457  0.00  0.00     0.269 C 
HETATM   27  C   UNL     1       0.624   7.633  30.551  0.00  0.00     0.254 C 
HETATM   28  C   UNL     1       0.785   8.896  29.678  0.00  0.00     0.150 C 
ENDBRANCH  18  21
ENDBRANCH  12  15
ENDBRANCH   1  11
BRANCH   3  29
HETATM   29  O   UNL     1       6.316   6.596  22.300  0.00  0.00    -0.360 OA
HETATM   30  H   UNL     1       5.903   6.948  23.118  0.00  0.00     0.217 HD
ENDBRANCH   3  29
BRANCH  10  31
HETATM   31  C   UNL     1       1.762   7.360  17.269  0.00  0.00     0.100 C 
BRANCH  31  32
HETATM   32  C   UNL     1       0.973   6.198  16.663  0.00  0.00    -0.052 A 
HETATM   33  C   UNL     1       0.597   6.138  15.316  0.00  0.00     0.007 A 
HETATM   34  C   UNL     1      -0.135   5.060  14.811  0.00  0.00     0.001 A 
HETATM   35  C   UNL     1      -0.592   4.059  15.661  0.00  0.00     0.007 A 
HETATM   36  C   UNL     1      -0.356   4.146  17.035  0.00  0.00    -0.061 A 
HETATM   37  C   UNL     1       0.459   5.189  17.523  0.00  0.00     0.014 A 
HETATM   38  C   UNL     1      -0.995   3.129  17.945  0.00  0.00     0.048 C 
ENDBRANCH  31  32
ENDBRANCH  10  31
TORSDOF 6
ENDMDL
MODEL 4
REMARK VINA RESULT:    -7.857      3.161      6.309
REMARK INTER + INTRA:         -11.698
REMARK INTER:                 -10.716
REMARK INTRA:                  -0.982
REMARK UNBOUND:                -1.314
REMARK  6 active torsions:
REMARK  status: ('A' for Active; 'I' for Inactive)
REMARK    1  A    between atoms: N_8  and  C_9 
REMARK    2  A    between atoms: C_14  and  N_15 
REMARK       I    between atoms: N_15  and  C_17 
REMARK    3  A    between atoms: C_17  and  C_19 
REMARK    4  A    between atoms: C_21  and  O_22 
REMARK    5  A    between atoms: C_29  and  C_30 
REMARK    6  A    between atoms: C_30  and  C_31 
ROOT
HETATM    1  C   UNL     1       3.806   6.567  19.874  0.00  0.00     0.066 C 
HETATM    2  C   UNL     1       3.406   6.303  21.203  0.00  0.00     0.035 C 
HETATM    3  C   UNL     1       4.607   7.710  19.649  0.00  0.00     0.083 C 
HETATM    4  C   UNL     1       4.918   8.619  20.669  0.00  0.00     0.069 C 
HETATM    5  C   UNL     1       4.331   8.399  21.919  0.00  0.00     0.065 A 
HETATM    6  C   UNL     1       3.556   7.288  22.211  0.00  0.00     0.020 A 
HETATM    7  N   UNL     1       4.375   9.116  23.083  0.00  0.00    -0.277 N 
HETATM    8  H   UNL     1       4.903   9.964  23.261  0.00  0.00     0.189 HD
HETATM    9  N   UNL     1       3.586   8.632  24.056  0.00  0.00    -0.178 NA
HETATM   10  C   UNL     1       3.057   7.512  23.542  0.00  0.00     0.071 A 
ENDROOT
BRANCH   1  11
HETATM   11  C   UNL     1       3.382   5.715  18.686  0.00  0.00     0.260 C 
HETATM   12  N   UNL     1       2.140   5.935  18.012  0.00  0.00    -0.318 N 
HETATM   13  C   UNL     1       1.257   7.042  18.398  0.00  0.00     0.159 C 
HETATM   14  O   UNL     1       4.222   4.888  18.336  0.00  0.00    -0.267 OA
BRANCH  12  15
HETATM   15  C   UNL     1       1.719   5.181  16.830  0.00  0.00     0.037 C 
HETATM   16  C   UNL     1       1.486   3.800  16.918  0.00  0.00     0.032 C 
HETATM   17  C   UNL     1       0.879   3.064  15.887  0.00  0.00     0.031 C 
HETATM   18  C   UNL     1       0.498   3.645  14.677  0.00  0.00     0.030 C 
HETATM   19  C   UNL     1       0.885   4.980  14.517  0.00  0.00     0.031 C 
HETATM   20  C   UNL     1       1.475   5.735  15.570  0.00  0.00     0.032 C 
BRANCH  18  21
HETATM   21  N   UNL     1      -0.169   2.886  13.719  0.00  0.00    -0.378 N 
HETATM   22  C   UNL     1      -0.672   3.481  12.470  0.00  0.00     0.150 C 
HETATM   23  C   UNL     1      -2.165   3.860  12.585  0.00  0.00     0.254 C 
HETATM   24  N   UNL     1      -2.999   2.663  13.057  0.00  0.00    -0.072 N 
HETATM   25  H   UNL     1      -2.911   1.933  12.339  0.00  0.00     0.279 HD
HETATM   26  C   UNL     1      -4.453   3.006  13.183  0.00  0.00     0.269 C 
HETATM   27  C   UNL     1      -2.438   2.081  14.355  0.00  0.00     0.254 C 
HETATM   28  C   UNL     1      -0.949   1.714  14.180  0.00  0.00     0.150 C 
ENDBRANCH  18  21
ENDBRANCH  12  15
ENDBRANCH   1  11
BRANCH   3  29
HETATM   29  O   UNL     1       5.135   8.023  18.419  0.00  0.00    -0.360 OA
HETATM   30  H   UNL     1       5.151   9.003  18.340  0.00  0.00     0.217 HD
ENDBRANCH   3  29
BRANCH  10  31
HETATM   31  C   UNL     1       2.076   6.724  24.384  0.00  0.00     0.100 C 
BRANCH  31  32
HETATM   32  C   UNL     1       1.285   7.617  25.341  0.00  0.00    -0.052 A 
HETATM   33  C   UNL     1       1.317   7.479  26.733  0.00  0.00     0.007 A 
HETATM   34  C   UNL     1       0.567   8.312  27.566  0.00  0.00     0.001 A 
HETATM   35  C   UNL     1      -0.310   9.246  27.024  0.00  0.00     0.007 A 
HETATM   36  C   UNL     1      -0.474   9.329  25.639  0.00  0.00    -0.061 A 
HETATM   37  C   UNL     1       0.351   8.547  24.805  0.00  0.00     0.014 A 
HETATM   38  C   UNL     1      -1.542  10.240  25.091  0.00  0.00     0.048 C 
ENDBRANCH  31  32
ENDBRANCH  10  31
TORSDOF 6
ENDMDL
MODEL 5
REMARK VINA RESULT:    -7.790      1.851      4.646
REMARK INTER + INTRA:         -11.609
REMARK INTER:                 -10.306
REMARK INTRA:                  -1.303
REMARK UNBOUND:                -1.314
REMARK  6 active torsions:
REMARK  status: ('A' for Active; 'I' for Inactive)
REMARK    1  A    between atoms: N_8  and  C_9 
REMARK    2  A    between atoms: C_14  and  N_15 
REMARK       I    between atoms: N_15  and  C_17 
REMARK    3  A    between atoms: C_17  and  C_19 
REMARK    4  A    between atoms: C_21  and  O_22 
REMARK    5  A    between atoms: C_29  and  C_30 
REMARK    6  A    between atoms: C_30  and  C_31 
ROOT
HETATM    1  C   UNL     1       1.506   8.938  26.001  0.00  0.00     0.066 C 
HETATM    2  C   UNL     1       2.039   8.741  27.295  0.00  0.00     0.035 C 
HETATM    3  C   UNL     1       0.218   9.514  25.908  0.00  0.00     0.083 C 
HETATM    4  C   UNL     1      -0.562   9.790  27.038  0.00  0.00     0.069 C 
HETATM    5  C   UNL     1      -0.051   9.394  28.278  0.00  0.00     0.065 A 
HETATM    6  C   UNL     1       1.211   8.846  28.440  0.00  0.00     0.020 A 
HETATM    7  N   UNL     1      -0.575   9.455  29.540  0.00  0.00    -0.277 N 
HETATM    8  H   UNL     1      -1.465   9.857  29.815  0.00  0.00     0.189 HD
HETATM    9  N   UNL     1       0.185   8.872  30.479  0.00  0.00    -0.178 NA
HETATM   10  C   UNL     1       1.288   8.473  29.828  0.00  0.00     0.071 A 
ENDROOT
BRANCH   1  11
HETATM   11  C   UNL     1       2.225   8.522  24.726  0.00  0.00     0.260 C 
HETATM   12  N   UNL     1       2.497   7.150  24.432  0.00  0.00    -0.318 N 
HETATM   13  C   UNL     1       2.026   6.081  25.321  0.00  0.00     0.159 C 
HETATM   14  O   UNL     1       2.480   9.456  23.966  0.00  0.00    -0.267 OA
BRANCH  12  15
HETATM   15  C   UNL     1       3.131   6.699  23.192  0.00  0.00     0.037 C 
HETATM   16  C   UNL     1       2.748   5.486  22.603  0.00  0.00     0.032 C 
HETATM   17  C   UNL     1       3.157   5.103  21.315  0.00  0.00     0.031 C 
HETATM   18  C   UNL     1       4.010   5.886  20.537  0.00  0.00     0.030 C 
HETATM   19  C   UNL     1       4.532   7.011  21.187  0.00  0.00     0.031 C 
HETATM   20  C   UNL     1       4.098   7.415  22.481  0.00  0.00     0.032 C 
BRANCH  18  21
HETATM   21  N   UNL     1       4.323   5.498  19.237  0.00  0.00    -0.378 N 
HETATM   22  C   UNL     1       4.472   6.477  18.148  0.00  0.00     0.150 C 
HETATM   23  C   UNL     1       3.169   6.619  17.332  0.00  0.00     0.254 C 
HETATM   24  N   UNL     1       2.677   5.251  16.844  0.00  0.00    -0.072 N 
HETATM   25  H   UNL     1       3.402   4.875  16.222  0.00  0.00     0.279 HD
HETATM   26  C   UNL     1       1.408   5.359  16.053  0.00  0.00     0.269 C 
HETATM   27  C   UNL     1       2.538   4.270  18.010  0.00  0.00     0.254 C 
HETATM   28  C   UNL     1       3.870   4.162  18.783  0.00  0.00     0.150 C 
ENDBRANCH  18  21
ENDBRANCH  12  15
ENDBRANCH   1  11
BRANCH   3  29
HETATM   29  O   UNL     1      -0.371   9.840  24.709  0.00  0.00    -0.360 OA
HETATM   30  H   UNL     1       0.327  10.204  24.121  0.00  0.00     0.217 HD
ENDBRANCH   3  29
BRANCH  10  31
HETATM   31  C   UNL     1       2.358   7.735  30.604  0.00  0.00     0.100 C 
BRANCH  31  32
HETATM   32  C   UNL     1       2.918   6.543  29.828  0.00  0.00    -0.052 A 
HETATM   33  C   UNL     1       4.225   6.490  29.327  0.00  0.00     0.007 A 
HETATM   34  C   UNL     1       4.687   5.383  28.612  0.00  0.00     0.001 A 
HETATM   35  C   UNL     1       3.826   4.337  28.297  0.00  0.00     0.007 A 
HETATM   36  C   UNL     1       2.479   4.407  28.660  0.00  0.00    -0.061 A 
HETATM   37  C   UNL     1       2.042   5.485  29.457  0.00  0.00     0.014 A 
HETATM   38  C   UNL     1       1.540   3.334  28.171  0.00  0.00     0.048 C 
ENDBRANCH  31  32
ENDBRANCH  10  31
TORSDOF 6
ENDMDL
MODEL 6
REMARK VINA RESULT:    -7.624      4.995      7.792
REMARK INTER + INTRA:         -11.390
REMARK INTER:                  -9.982
REMARK INTRA:                  -1.408
REMARK UNBOUND:                -1.314
REMARK  6 active torsions:
REMARK  status: ('A' for Active; 'I' for Inactive)
REMARK    1  A    between atoms: N_8  and  C_9 
REMARK    2  A    between atoms: C_14  and  N_15 
REMARK       I    between atoms: N_15  and  C_17 
REMARK    3  A    between atoms: C_17  and  C_19 
REMARK    4  A    between atoms: C_21  and  O_22 
REMARK    5  A    between atoms: C_29  and  C_30 
REMARK    6  A    between atoms: C_30  and  C_31 
ROOT
HETATM    1  C   UNL     1       4.342   6.818  20.239  0.00  0.00     0.066 C 
HETATM    2  C   UNL     1       4.970   5.933  21.143  0.00  0.00     0.035 C 
HETATM    3  C   UNL     1       4.053   8.124  20.700  0.00  0.00     0.083 C 
HETATM    4  C   UNL     1       4.275   8.516  22.026  0.00  0.00     0.069 C 
HETATM    5  C   UNL     1       4.720   7.533  22.916  0.00  0.00     0.065 A 
HETATM    6  C   UNL     1       5.043   6.243  22.524  0.00  0.00     0.020 A 
HETATM    7  N   UNL     1       4.967   7.567  24.260  0.00  0.00    -0.277 N 
HETATM    8  H   UNL     1       4.900   8.371  24.875  0.00  0.00     0.189 HD
HETATM    9  N   UNL     1       5.290   6.376  24.790  0.00  0.00    -0.178 NA
HETATM   10  C   UNL     1       5.331   5.537  23.744  0.00  0.00     0.071 A 
ENDROOT
BRANCH   1  11
HETATM   11  C   UNL     1       3.926   6.423  18.829  0.00  0.00     0.260 C 
HETATM   12  N   UNL     1       2.662   5.811  18.565  0.00  0.00    -0.318 N 
HETATM   13  C   UNL     1       1.683   5.606  19.639  0.00  0.00     0.159 C 
HETATM   14  O   UNL     1       4.739   6.735  17.960  0.00  0.00    -0.267 OA
BRANCH  12  15
HETATM   15  C   UNL     1       2.196   5.468  17.220  0.00  0.00     0.037 C 
HETATM   16  C   UNL     1       1.963   4.130  16.872  0.00  0.00     0.032 C 
HETATM   17  C   UNL     1       1.318   3.754  15.683  0.00  0.00     0.031 C 
HETATM   18  C   UNL     1       0.894   4.686  14.735  0.00  0.00     0.030 C 
HETATM   19  C   UNL     1       1.279   6.007  14.995  0.00  0.00     0.031 C 
HETATM   20  C   UNL     1       1.908   6.393  16.212  0.00  0.00     0.032 C 
BRANCH  18  21
HETATM   21  N   UNL     1       0.191   4.266  13.609  0.00  0.00    -0.378 N 
HETATM   22  C   UNL     1      -1.228   3.882  13.678  0.00  0.00     0.150 C 
HETATM   23  C   UNL     1      -1.395   2.354  13.821  0.00  0.00     0.254 C 
HETATM   24  N   UNL     1      -0.627   1.613  12.720  0.00  0.00    -0.072 N 
HETATM   25  H   UNL     1      -1.042   1.895  11.823  0.00  0.00     0.279 HD
HETATM   26  C   UNL     1      -0.768   0.126  12.839  0.00  0.00     0.269 C 
HETATM   27  C   UNL     1       0.840   2.045  12.688  0.00  0.00     0.254 C 
HETATM   28  C   UNL     1       0.945   3.578  12.535  0.00  0.00     0.150 C 
ENDBRANCH  18  21
ENDBRANCH  12  15
ENDBRANCH   1  11
BRANCH   3  29
HETATM   29  O   UNL     1       3.528   9.104  19.891  0.00  0.00    -0.360 OA
HETATM   30  H   UNL     1       2.551   9.005  19.895  0.00  0.00     0.217 HD
ENDBRANCH   3  29
BRANCH  10  31
HETATM   31  C   UNL     1       5.640   4.077  24.002  0.00  0.00     0.100 C 
BRANCH  31  32
HETATM   32  C   UNL     1       4.495   3.158  23.576  0.00  0.00    -0.052 A 
HETATM   33  C   UNL     1       3.396   2.863  24.392  0.00  0.00     0.007 A 
HETATM   34  C   UNL     1       2.379   2.007  23.963  0.00  0.00     0.001 A 
HETATM   35  C   UNL     1       2.480   1.348  22.743  0.00  0.00     0.007 A 
HETATM   36  C   UNL     1       3.623   1.507  21.955  0.00  0.00    -0.061 A 
HETATM   37  C   UNL     1       4.602   2.441  22.353  0.00  0.00     0.014 A 
HETATM   38  C   UNL     1       3.771   0.662  20.716  0.00  0.00     0.048 C 
ENDBRANCH  31  32
ENDBRANCH  10  31
TORSDOF 6
ENDMDL
MODEL 7
REMARK VINA RESULT:    -7.585      5.811      8.635
REMARK INTER + INTRA:         -11.339
REMARK INTER:                 -10.505
REMARK INTRA:                  -0.833
REMARK UNBOUND:                -1.314
REMARK  6 active torsions:
REMARK  status: ('A' for Active; 'I' for Inactive)
REMARK    1  A    between atoms: N_8  and  C_9 
REMARK    2  A    between atoms: C_14  and  N_15 
REMARK       I    between atoms: N_15  and  C_17 
REMARK    3  A    between atoms: C_17  and  C_19 
REMARK    4  A    between atoms: C_21  and  O_22 
REMARK    5  A    between atoms: C_29  and  C_30 
REMARK    6  A    between atoms: C_30  and  C_31 
ROOT
HETATM    1  C   UNL     1       2.766   8.064  29.865  0.00  0.00     0.066 C 
HETATM    2  C   UNL     1       2.253   8.156  28.552  0.00  0.00     0.035 C 
HETATM    3  C   UNL     1       1.873   8.313  30.932  0.00  0.00     0.083 C 
HETATM    4  C   UNL     1       0.555   8.738  30.722  0.00  0.00     0.069 C 
HETATM    5  C   UNL     1       0.170   8.993  29.401  0.00  0.00     0.065 A 
HETATM    6  C   UNL     1       0.989   8.749  28.310  0.00  0.00     0.020 A 
HETATM    7  N   UNL     1      -0.996   9.470  28.869  0.00  0.00    -0.277 N 
HETATM    8  H   UNL     1      -1.848   9.701  29.369  0.00  0.00     0.189 HD
HETATM    9  N   UNL     1      -0.950   9.679  27.544  0.00  0.00    -0.178 NA
HETATM   10  C   UNL     1       0.268   9.257  27.173  0.00  0.00     0.071 A 
ENDROOT
BRANCH   1  11
HETATM   11  C   UNL     1       4.224   7.759  30.176  0.00  0.00     0.260 C 
HETATM   12  N   UNL     1       4.659   6.438  30.510  0.00  0.00    -0.318 N 
HETATM   13  C   UNL     1       3.722   5.309  30.494  0.00  0.00     0.159 C 
HETATM   14  O   UNL     1       4.977   8.724  30.050  0.00  0.00    -0.267 OA
BRANCH  12  15
HETATM   15  C   UNL     1       6.058   6.088  30.758  0.00  0.00     0.037 C 
HETATM   16  C   UNL     1       6.671   5.063  30.022  0.00  0.00     0.032 C 
HETATM   17  C   UNL     1       8.055   4.824  30.057  0.00  0.00     0.031 C 
HETATM   18  C   UNL     1       8.921   5.563  30.863  0.00  0.00     0.030 C 
HETATM   19  C   UNL     1       8.294   6.467  31.728  0.00  0.00     0.031 C 
HETATM   20  C   UNL     1       6.896   6.731  31.673  0.00  0.00     0.032 C 
BRANCH  18  21
HETATM   21  N   UNL     1      10.294   5.336  30.804  0.00  0.00    -0.378 N 
HETATM   22  C   UNL     1      11.254   6.191  31.520  0.00  0.00     0.150 C 
HETATM   23  C   UNL     1      11.832   7.289  30.600  0.00  0.00     0.254 C 
HETATM   24  N   UNL     1      12.413   6.679  29.318  0.00  0.00    -0.072 N 
HETATM   25  H   UNL     1      13.185   6.063  29.602  0.00  0.00     0.279 HD
HETATM   26  C   UNL     1      12.976   7.724  28.403  0.00  0.00     0.269 C 
HETATM   27  C   UNL     1      11.379   5.801  28.611  0.00  0.00     0.254 C 
HETATM   28  C   UNL     1      10.844   4.719  29.574  0.00  0.00     0.150 C 
ENDBRANCH  18  21
ENDBRANCH  12  15
ENDBRANCH   1  11
BRANCH   3  29
HETATM   29  O   UNL     1       2.225   8.166  32.253  0.00  0.00    -0.360 OA
HETATM   30  H   UNL     1       1.865   8.935  32.747  0.00  0.00     0.217 HD
ENDBRANCH   3  29
BRANCH  10  31
HETATM   31  C   UNL     1       0.665   9.386  25.718  0.00  0.00     0.100 C 
BRANCH  31  32
HETATM   32  C   UNL     1      -0.108  10.493  25.002  0.00  0.00    -0.052 A 
HETATM   33  C   UNL     1      -1.284  10.271  24.276  0.00  0.00     0.007 A 
HETATM   34  C   UNL     1      -1.949  11.314  23.628  0.00  0.00     0.001 A 
HETATM   35  C   UNL     1      -1.404  12.594  23.610  0.00  0.00     0.007 A 
HETATM   36  C   UNL     1      -0.165  12.834  24.207  0.00  0.00    -0.061 A 
HETATM   37  C   UNL     1       0.455  11.798  24.935  0.00  0.00     0.014 A 
HETATM   38  C   UNL     1       0.470  14.191  24.037  0.00  0.00     0.048 C 
ENDBRANCH  31  32
ENDBRANCH  10  31
TORSDOF 6
ENDMDL
MODEL 8
REMARK VINA RESULT:    -7.549      3.231     10.977
REMARK INTER + INTRA:         -11.291
REMARK INTER:                  -9.976
REMARK INTRA:                  -1.314
REMARK UNBOUND:                -1.314
REMARK  6 active torsions:
REMARK  status: ('A' for Active; 'I' for Inactive)
REMARK    1  A    between atoms: N_8  and  C_9 
REMARK    2  A    between atoms: C_14  and  N_15 
REMARK       I    between atoms: N_15  and  C_17 
REMARK    3  A    between atoms: C_17  and  C_19 
REMARK    4  A    between atoms: C_21  and  O_22 
REMARK    5  A    between atoms: C_29  and  C_30 
REMARK    6  A    between atoms: C_30  and  C_31 
ROOT
HETATM    1  C   UNL     1       1.418   5.257  17.094  0.00  0.00     0.066 C 
HETATM    2  C   UNL     1       1.423   3.931  16.609  0.00  0.00     0.035 C 
HETATM    3  C   UNL     1       0.983   6.273  16.211  0.00  0.00     0.083 C 
HETATM    4  C   UNL     1       0.666   6.015  14.871  0.00  0.00     0.069 C 
HETATM    5  C   UNL     1       0.876   4.712  14.406  0.00  0.00     0.065 A 
HETATM    6  C   UNL     1       1.278   3.668  15.224  0.00  0.00     0.020 A 
HETATM    7  N   UNL     1       0.732   4.155  13.165  0.00  0.00    -0.277 N 
HETATM    8  H   UNL     1       0.392   4.611  12.325  0.00  0.00     0.189 HD
HETATM    9  N   UNL     1       1.136   2.878  13.087  0.00  0.00    -0.178 NA
HETATM   10  C   UNL     1       1.492   2.553  14.339  0.00  0.00     0.071 A 
ENDROOT
BRANCH   1  11
HETATM   11  C   UNL     1       1.895   5.643  18.487  0.00  0.00     0.260 C 
HETATM   12  N   UNL     1       3.259   5.982  18.745  0.00  0.00    -0.318 N 
HETATM   13  C   UNL     1       4.240   6.041  17.655  0.00  0.00     0.159 C 
HETATM   14  O   UNL     1       0.998   5.695  19.329  0.00  0.00    -0.267 OA
BRANCH  12  15
HETATM   15  C   UNL     1       3.750   6.416  20.054  0.00  0.00     0.037 C 
HETATM   16  C   UNL     1       3.988   7.775  20.304  0.00  0.00     0.032 C 
HETATM   17  C   UNL     1       4.250   8.278  21.590  0.00  0.00     0.031 C 
HETATM   18  C   UNL     1       4.333   7.454  22.712  0.00  0.00     0.030 C 
HETATM   19  C   UNL     1       4.270   6.082  22.442  0.00  0.00     0.031 C 
HETATM   20  C   UNL     1       3.977   5.573  21.145  0.00  0.00     0.032 C 
BRANCH  18  21
HETATM   21  N   UNL     1       4.519   8.011  23.975  0.00  0.00    -0.378 N 
HETATM   22  C   UNL     1       4.668   7.177  25.178  0.00  0.00     0.150 C 
HETATM   23  C   UNL     1       3.325   7.011  25.922  0.00  0.00     0.254 C 
HETATM   24  N   UNL     1       2.689   8.376  26.215  0.00  0.00    -0.072 N 
HETATM   25  H   UNL     1       3.335   8.882  26.833  0.00  0.00     0.279 HD
HETATM   26  C   UNL     1       1.380   8.244  26.932  0.00  0.00     0.269 C 
HETATM   27  C   UNL     1       2.556   9.204  24.936  0.00  0.00     0.254 C 
HETATM   28  C   UNL     1       3.927   9.343  24.240  0.00  0.00     0.150 C 
ENDBRANCH  18  21
ENDBRANCH  12  15
ENDBRANCH   1  11
BRANCH   3  29
HETATM   29  O   UNL     1       0.845   7.587  16.592  0.00  0.00    -0.360 OA
HETATM   30  H   UNL     1       1.746   7.960  16.715  0.00  0.00     0.217 HD
ENDBRANCH   3  29
BRANCH  10  31
HETATM   31  C   UNL     1       2.036   1.165  14.599  0.00  0.00     0.100 C 
BRANCH  31  32
HETATM   32  C   UNL     1       2.393   0.948  16.070  0.00  0.00    -0.052 A 
HETATM   33  C   UNL     1       1.461   0.577  17.046  0.00  0.00     0.007 A 
HETATM   34  C   UNL     1       1.833   0.403  18.381  0.00  0.00     0.001 A 
HETATM   35  C   UNL     1       3.131   0.687  18.794  0.00  0.00     0.007 A 
HETATM   36  C   UNL     1       4.061   1.189  17.879  0.00  0.00    -0.061 A 
HETATM   37  C   UNL     1       3.703   1.276  16.519  0.00  0.00     0.014 A 
HETATM   38  C   UNL     1       5.409   1.632  18.388  0.00  0.00     0.048 C 
ENDBRANCH  31  32
ENDBRANCH  10  31
TORSDOF 6
ENDMDL
MODEL 9
REMARK VINA RESULT:    -7.535      5.239      8.945
REMARK INTER + INTRA:         -11.272
REMARK INTER:                 -10.282
REMARK INTRA:                  -0.990
REMARK UNBOUND:                -1.314
REMARK  6 active torsions:
REMARK  status: ('A' for Active; 'I' for Inactive)
REMARK    1  A    between atoms: N_8  and  C_9 
REMARK    2  A    between atoms: C_14  and  N_15 
REMARK       I    between atoms: N_15  and  C_17 
REMARK    3  A    between atoms: C_17  and  C_19 
REMARK    4  A    between atoms: C_21  and  O_22 
REMARK    5  A    between atoms: C_29  and  C_30 
REMARK    6  A    between atoms: C_30  and  C_31 
ROOT
HETATM    1  C   UNL     1       1.804   5.775  18.898  0.00  0.00     0.066 C 
HETATM    2  C   UNL     1       3.094   5.488  19.399  0.00  0.00     0.035 C 
HETATM    3  C   UNL     1       1.651   6.951  18.129  0.00  0.00     0.083 C 
HETATM    4  C   UNL     1       2.695   7.867  17.944  0.00  0.00     0.069 C 
HETATM    5  C   UNL     1       3.890   7.617  18.627  0.00  0.00     0.065 A 
HETATM    6  C   UNL     1       4.112   6.474  19.377  0.00  0.00     0.020 A 
HETATM    7  N   UNL     1       5.055   8.329  18.713  0.00  0.00    -0.277 N 
HETATM    8  H   UNL     1       5.278   9.197  18.238  0.00  0.00     0.189 HD
HETATM    9  N   UNL     1       5.955   7.808  19.561  0.00  0.00    -0.178 NA
HETATM   10  C   UNL     1       5.396   6.670  19.997  0.00  0.00     0.071 A 
ENDROOT
BRANCH   1  11
HETATM   11  C   UNL     1       0.583   4.913  19.183  0.00  0.00     0.260 C 
HETATM   12  N   UNL     1       0.421   3.623  18.588  0.00  0.00    -0.318 N 
HETATM   13  C   UNL     1       1.467   3.050  17.732  0.00  0.00     0.159 C 
HETATM   14  O   UNL     1      -0.194   5.398  20.005  0.00  0.00    -0.267 OA
BRANCH  12  15
HETATM   15  C   UNL     1      -0.706   2.735  18.879  0.00  0.00     0.037 C 
HETATM   16  C   UNL     1      -0.481   1.464  19.426  0.00  0.00     0.032 C 
HETATM   17  C   UNL     1      -1.516   0.656  19.925  0.00  0.00     0.031 C 
HETATM   18  C   UNL     1      -2.856   1.042  19.875  0.00  0.00     0.030 C 
HETATM   19  C   UNL     1      -3.101   2.228  19.174  0.00  0.00     0.031 C 
HETATM   20  C   UNL     1      -2.052   3.061  18.693  0.00  0.00     0.032 C 
BRANCH  18  21
HETATM   21  N   UNL     1      -3.836   0.237  20.452  0.00  0.00    -0.378 N 
HETATM   22  C   UNL     1      -4.561  -0.781  19.675  0.00  0.00     0.150 C 
HETATM   23  C   UNL     1      -5.915  -0.244  19.161  0.00  0.00     0.254 C 
HETATM   24  N   UNL     1      -6.746   0.336  20.313  0.00  0.00    -0.072 N 
HETATM   25  H   UNL     1      -6.936  -0.435  20.964  0.00  0.00     0.279 HD
HETATM   26  C   UNL     1      -8.064   0.871  19.840  0.00  0.00     0.269 C 
HETATM   27  C   UNL     1      -5.951   1.388  21.088  0.00  0.00     0.254 C 
HETATM   28  C   UNL     1      -4.614   0.794  21.583  0.00  0.00     0.150 C 
ENDBRANCH  18  21
ENDBRANCH  12  15
ENDBRANCH   1  11
BRANCH   3  29
HETATM   29  O   UNL     1       0.471   7.293  17.510  0.00  0.00    -0.360 OA
HETATM   30  H   UNL     1       0.694   7.709  16.649  0.00  0.00     0.217 HD
ENDBRANCH   3  29
BRANCH  10  31
HETATM   31  C   UNL     1       6.149   5.838  21.014  0.00  0.00     0.100 C 
BRANCH  31  32
HETATM   32  C   UNL     1       5.712   6.139  22.448  0.00  0.00    -0.052 A 
HETATM   33  C   UNL     1       5.922   5.264  23.520  0.00  0.00     0.007 A 
HETATM   34  C   UNL     1       5.493   5.578  24.812  0.00  0.00     0.001 A 
HETATM   35  C   UNL     1       4.758   6.735  25.049  0.00  0.00     0.007 A 
HETATM   36  C   UNL     1       4.409   7.571  23.985  0.00  0.00    -0.061 A 
HETATM   37  C   UNL     1       4.921   7.294  22.701  0.00  0.00     0.014 A 
HETATM   38  C   UNL     1       3.484   8.731  24.250  0.00  0.00     0.048 C 
ENDBRANCH  31  32
ENDBRANCH  10  31
TORSDOF 6
ENDMDL
