REMARK  6 active torsions:
REMARK  status: ('A' for Active; 'I' for Inactive)
REMARK    1  A    between atoms: N_8  and  C_9 
REMARK    2  A    between atoms: C_14  and  N_15 
REMARK       I    between atoms: N_15  and  C_17 
REMARK    3  A    between atoms: C_17  and  C_19 
REMARK    4  A    between atoms: C_21  and  O_22 
REMARK    5  A    between atoms: C_29  and  C_30 
REMARK    6  A    between atoms: C_30  and  C_31 
ROOT
HETATM    1  C   UNL     1      -8.306   1.405   4.155  0.00  0.00     0.066 C 
HETATM    2  C   UNL     1      -9.004   0.213   4.449  0.00  0.00     0.035 C 
HETATM    3  C   UNL     1      -9.020   2.621   4.260  0.00  0.00     0.083 C 
HETATM    4  C   UNL     1     -10.392   2.662   4.540  0.00  0.00     0.069 C 
HETATM    5  C   UNL     1     -11.061   1.437   4.631  0.00  0.00     0.065 A 
HETATM    6  C   UNL     1     -10.417   0.212   4.560  0.00  0.00     0.020 A 
HETATM    7  N   UNL     1     -12.380   1.133   4.825  0.00  0.00    -0.277 N 
HETATM    8  H   UNL     1     -13.142   1.784   4.982  0.00  0.00     0.189 HD
HETATM    9  N   UNL     1     -12.658  -0.178   4.750  0.00  0.00    -0.178 NA
HETATM   10  C   UNL     1     -11.468  -0.771   4.573  0.00  0.00     0.071 A 
ENDROOT
BRANCH   1  11
HETATM   11  C   UNL     1      -6.856   1.436   3.693  0.00  0.00     0.260 C 
HETATM   12  N   UNL     1      -6.289   0.366   2.933  0.00  0.00    -0.318 N 
HETATM   13  C   UNL     1      -7.109  -0.774   2.507  0.00  0.00     0.159 C 
HETATM   14  O   UNL     1      -6.261   2.475   3.976  0.00  0.00    -0.267 OA
BRANCH  12  15
HETATM   15  C   UNL     1      -4.919   0.380   2.417  0.00  0.00     0.037 C 
HETATM   16  C   UNL     1      -4.404  -0.741   1.750  0.00  0.00     0.032 C 
HETATM   17  C   UNL     1      -3.187  -0.716   1.049  0.00  0.00     0.031 C 
HETATM   18  C   UNL     1      -2.376   0.418   0.998  0.00  0.00     0.030 C 
HETATM   19  C   UNL     1      -2.799   1.481   1.804  0.00  0.00     0.031 C 
HETATM   20  C   UNL     1      -4.045   1.468   2.492  0.00  0.00     0.032 C 
BRANCH  18  21
HETATM   21  N   UNL     1      -1.217   0.413   0.226  0.00  0.00    -0.378 N 
HETATM   22  C   UNL     1      -0.180   1.447   0.375  0.00  0.00     0.150 C 
HETATM   23  C   UNL     1      -0.352   2.576  -0.665  0.00  0.00     0.254 C 
HETATM   24  N   UNL     1      -0.428   2.004  -2.086  0.00  0.00    -0.072 N 
HETATM   25  H   UNL     1       0.468   1.536  -2.270  0.00  0.00     0.279 HD
HETATM   26  C   UNL     1      -0.601   3.079  -3.116  0.00  0.00     0.269 C 
HETATM   27  C   UNL     1      -1.518   0.936  -2.190  0.00  0.00     0.254 C 
HETATM   28  C   UNL     1      -1.291  -0.168  -1.135  0.00  0.00     0.150 C 
ENDBRANCH  18  21
ENDBRANCH  12  15
ENDBRANCH   1  11
BRANCH   3  29
HETATM   29  O   UNL     1      -8.431   3.852   4.090  0.00  0.00    -0.360 OA
HETATM   30  H   UNL     1      -7.458   3.718   4.065  0.00  0.00     0.217 HD
ENDBRANCH   3  29
BRANCH  10  31
HETATM   31  C   UNL     1     -11.427  -2.276   4.413  0.00  0.00     0.100 C 
BRANCH  31  32
HETATM   32  C   UNL     1     -11.115  -2.698   2.977  0.00  0.00    -0.052 A 
HETATM   33  C   UNL     1     -11.357  -1.887   1.862  0.00  0.00     0.007 A 
HETATM   34  C   UNL     1     -11.066  -2.322   0.567  0.00  0.00     0.001 A 
HETATM   35  C   UNL     1     -10.612  -3.618   0.344  0.00  0.00     0.007 A 
HETATM   36  C   UNL     1     -10.483  -4.507   1.414  0.00  0.00    -0.061 A 
HETATM   37  C   UNL     1     -10.693  -4.033   2.725  0.00  0.00     0.014 A 
HETATM   38  C   UNL     1     -10.139  -5.945   1.122  0.00  0.00     0.048 C 
ENDBRANCH  31  32
ENDBRANCH  10  31
TORSDOF 6
