MODEL 1
REMARK VINA RESULT:   -10.650      0.000      0.000
REMARK INTER + INTRA:         -15.825
REMARK INTER:                 -13.430
REMARK INTRA:                  -2.395
REMARK UNBOUND:                -1.750
REMARK  6 active torsions:
REMARK  status: ('A' for Active; 'I' for Inactive)
REMARK    1  A    between atoms: C_6  and  C_7 
REMARK    2  A    between atoms: C_7  and  C_8 
REMARK    3  A    between atoms: C_8  and  C_9 
REMARK    4  A    between atoms: C_16  and  C_17 
REMARK    5  A    between atoms: C_24  and  N_25 
REMARK    6  A    between atoms: C_27  and  C_28 
REMARK       I    between atoms: C_28  and  N_30 
ROOT
HETATM    1  C   UNL     1       6.674  15.165  23.064  0.00  0.00    -0.024 A 
HETATM    2  C   UNL     1       6.070  14.128  22.310  0.00  0.00     0.028 A 
HETATM    3  C   UNL     1       5.802  15.873  23.895  0.00  0.00     0.014 A 
HETATM    4  C   UNL     1       4.438  15.561  23.973  0.00  0.00     0.033 A 
HETATM    5  C   UNL     1       3.889  14.476  23.312  0.00  0.00     0.073 A 
HETATM    6  C   UNL     1       4.703  13.713  22.477  0.00  0.00     0.028 A 
HETATM    7  N   UNL     1       2.607  14.194  23.564  0.00  0.00    -0.218 NA
HETATM    8  C   UNL     1       2.102  13.084  23.043  0.00  0.00     0.200 A 
HETATM    9  N   UNL     1       2.757  12.273  22.233  0.00  0.00    -0.212 NA
HETATM   10  C   UNL     1       4.040  12.584  21.941  0.00  0.00     0.140 A 
ENDROOT
BRANCH   1  11
HETATM   11  C   UNL     1       8.167  15.359  23.092  0.00  0.00    -0.017 A 
HETATM   12  C   UNL     1       9.093  14.687  23.954  0.00  0.00    -0.043 A 
HETATM   13  C   UNL     1      10.483  14.802  23.697  0.00  0.00     0.053 A 
HETATM   14  C   UNL     1      10.974  15.661  22.730  0.00  0.00     0.155 A 
HETATM   15  F   UNL     1      12.300  15.776  22.566  0.00  0.00    -0.203 F 
HETATM   16  C   UNL     1      10.103  16.389  21.954  0.00  0.00     0.155 A 
HETATM   17  F   UNL     1      10.564  17.232  21.024  0.00  0.00    -0.203 F 
HETATM   18  C   UNL     1       8.729  16.220  22.110  0.00  0.00     0.058 A 
BRANCH  12  19
HETATM   19  C   UNL     1       8.669  13.826  25.141  0.00  0.00     0.047 C 
BRANCH  19  20
HETATM   20  C   UNL     1       8.113  12.417  24.836  0.00  0.00     0.085 C 
BRANCH  20  21
HETATM   21  C   UNL     1       9.049  11.596  24.032  0.00  0.00     0.134 A 
HETATM   22  N   UNL     1       8.978  11.315  22.748  0.00  0.00    -0.148 NA
HETATM   23  N   UNL     1      10.060  10.515  22.472  0.00  0.00     0.017 NA
HETATM   24  N   UNL     1      10.792  10.314  23.560  0.00  0.00    -0.005 NA
HETATM   25  N   UNL     1      10.164  10.986  24.532  0.00  0.00    -0.272 N 
HETATM   26  H   UNL     1      10.542  10.968  25.471  0.00  0.00     0.185 HD
ENDBRANCH  20  21
ENDBRANCH  19  20
ENDBRANCH  12  19
ENDBRANCH   1  11
BRANCH  10  27
HETATM   27  C   UNL     1       4.764  11.521  21.139  0.00  0.00     0.273 C 
HETATM   28  O   UNL     1       4.901  11.682  19.923  0.00  0.00    -0.266 OA
HETATM   29  N   UNL     1       5.325  10.397  21.753  0.00  0.00    -0.342 N 
HETATM   30  C   UNL     1       5.165   9.880  23.117  0.00  0.00     0.139 C 
HETATM   31  C   UNL     1       6.070   9.456  20.930  0.00  0.00     0.161 C 
HETATM   32  C   UNL     1       6.380   8.980  23.331  0.00  0.00     0.056 C 
HETATM   33  C   UNL     1       6.701   8.533  21.928  0.00  0.00    -0.056 C 
HETATM   34  C   UNL     1       6.266   7.820  24.284  0.00  0.00    -0.020 C 
HETATM   35  C   UNL     1       7.390   7.405  21.687  0.00  0.00    -0.018 C 
HETATM   36  C   UNL     1       7.802   6.491  22.814  0.00  0.00     0.054 C 
HETATM   37  C   UNL     1       6.961   6.687  24.056  0.00  0.00    -0.026 C 
ENDBRANCH  10  27
BRANCH   8  38
HETATM   38  N   UNL     1       0.807  12.748  23.363  0.00  0.00    -0.271 NA
HETATM   39  H   UNL     1       0.652  12.804  24.359  0.00  0.00     0.127 HD
HETATM   40  H   UNL     1       0.147  13.204  22.752  0.00  0.00     0.127 HD
ENDBRANCH   8  38
TORSDOF 6
ENDMDL
MODEL 2
REMARK VINA RESULT:   -10.546      1.764      2.839
REMARK INTER + INTRA:         -15.687
REMARK INTER:                 -13.527
REMARK INTRA:                  -2.160
REMARK UNBOUND:                -1.750
REMARK  6 active torsions:
REMARK  status: ('A' for Active; 'I' for Inactive)
REMARK    1  A    between atoms: C_6  and  C_7 
REMARK    2  A    between atoms: C_7  and  C_8 
REMARK    3  A    between atoms: C_8  and  C_9 
REMARK    4  A    between atoms: C_16  and  C_17 
REMARK    5  A    between atoms: C_24  and  N_25 
REMARK    6  A    between atoms: C_27  and  C_28 
REMARK       I    between atoms: C_28  and  N_30 
ROOT
HETATM    1  C   UNL     1       6.799  15.119  23.002  0.00  0.00    -0.024 A 
HETATM    2  C   UNL     1       6.268  13.927  22.449  0.00  0.00     0.028 A 
HETATM    3  C   UNL     1       5.852  15.987  23.550  0.00  0.00     0.014 A 
HETATM    4  C   UNL     1       4.484  15.681  23.553  0.00  0.00     0.033 A 
HETATM    5  C   UNL     1       3.996  14.465  23.108  0.00  0.00     0.073 A 
HETATM    6  C   UNL     1       4.887  13.542  22.563  0.00  0.00     0.028 A 
HETATM    7  N   UNL     1       2.693  14.231  23.281  0.00  0.00    -0.218 NA
HETATM    8  C   UNL     1       2.234  13.023  22.982  0.00  0.00     0.200 A 
HETATM    9  N   UNL     1       2.963  12.056  22.454  0.00  0.00    -0.212 NA
HETATM   10  C   UNL     1       4.273  12.310  22.235  0.00  0.00     0.140 A 
ENDROOT
BRANCH   1  11
HETATM   11  C   UNL     1       8.283  15.335  23.141  0.00  0.00    -0.017 A 
HETATM   12  C   UNL     1       9.131  14.769  24.147  0.00  0.00    -0.043 A 
HETATM   13  C   UNL     1      10.538  14.877  24.003  0.00  0.00     0.053 A 
HETATM   14  C   UNL     1      11.109  15.638  23.000  0.00  0.00     0.155 A 
HETATM   15  F   UNL     1      12.445  15.754  22.943  0.00  0.00    -0.203 F 
HETATM   16  C   UNL     1      10.308  16.270  22.079  0.00  0.00     0.155 A 
HETATM   17  F   UNL     1      10.846  17.019  21.110  0.00  0.00    -0.203 F 
HETATM   18  C   UNL     1       8.926  16.099  22.129  0.00  0.00     0.058 A 
BRANCH  12  19
HETATM   19  C   UNL     1       8.607  14.029  25.375  0.00  0.00     0.047 C 
BRANCH  19  20
HETATM   20  C   UNL     1       8.101  12.583  25.173  0.00  0.00     0.085 C 
BRANCH  20  21
HETATM   21  C   UNL     1       9.011  11.773  24.329  0.00  0.00     0.134 A 
HETATM   22  N   UNL     1      10.213  11.328  24.632  0.00  0.00    -0.148 NA
HETATM   23  N   UNL     1      10.658  10.646  23.526  0.00  0.00     0.017 NA
HETATM   24  N   UNL     1       9.746  10.657  22.562  0.00  0.00    -0.005 NA
HETATM   25  N   UNL     1       8.721  11.358  23.060  0.00  0.00    -0.272 N 
HETATM   26  H   UNL     1       7.901  11.510  22.487  0.00  0.00     0.185 HD
ENDBRANCH  20  21
ENDBRANCH  19  20
ENDBRANCH  12  19
ENDBRANCH   1  11
BRANCH  10  27
HETATM   27  C   UNL     1       5.067  11.100  21.782  0.00  0.00     0.273 C 
HETATM   28  O   UNL     1       5.768  10.507  22.605  0.00  0.00    -0.266 OA
HETATM   29  N   UNL     1       4.976  10.614  20.474  0.00  0.00    -0.342 N 
HETATM   30  C   UNL     1       4.373  11.213  19.278  0.00  0.00     0.139 C 
HETATM   31  C   UNL     1       5.709   9.405  20.131  0.00  0.00     0.161 C 
HETATM   32  C   UNL     1       4.136  10.033  18.337  0.00  0.00     0.056 C 
HETATM   33  C   UNL     1       5.209   9.063  18.761  0.00  0.00    -0.056 C 
HETATM   34  C   UNL     1       4.145  10.275  16.852  0.00  0.00    -0.020 C 
HETATM   35  C   UNL     1       5.661   8.105  17.934  0.00  0.00    -0.018 C 
HETATM   36  C   UNL     1       5.169   8.012  16.511  0.00  0.00     0.054 C 
HETATM   37  C   UNL     1       4.587   9.316  16.013  0.00  0.00    -0.026 C 
ENDBRANCH  10  27
BRANCH   8  38
HETATM   38  N   UNL     1       0.909  12.752  23.232  0.00  0.00    -0.271 NA
HETATM   39  H   UNL     1       0.396  13.597  23.436  0.00  0.00     0.127 HD
HETATM   40  H   UNL     1       0.527  12.116  22.548  0.00  0.00     0.127 HD
ENDBRANCH   8  38
TORSDOF 6
ENDMDL
MODEL 3
REMARK VINA RESULT:   -10.485      2.229      3.393
REMARK INTER + INTRA:         -15.607
REMARK INTER:                 -14.038
REMARK INTRA:                  -1.569
REMARK UNBOUND:                -1.750
REMARK  6 active torsions:
REMARK  status: ('A' for Active; 'I' for Inactive)
REMARK    1  A    between atoms: C_6  and  C_7 
REMARK    2  A    between atoms: C_7  and  C_8 
REMARK    3  A    between atoms: C_8  and  C_9 
REMARK    4  A    between atoms: C_16  and  C_17 
REMARK    5  A    between atoms: C_24  and  N_25 
REMARK    6  A    between atoms: C_27  and  C_28 
REMARK       I    between atoms: C_28  and  N_30 
ROOT
HETATM    1  C   UNL     1       6.787  15.045  23.470  0.00  0.00    -0.024 A 
HETATM    2  C   UNL     1       6.275  13.907  22.798  0.00  0.00     0.028 A 
HETATM    3  C   UNL     1       5.822  15.959  23.899  0.00  0.00     0.014 A 
HETATM    4  C   UNL     1       4.454  15.746  23.683  0.00  0.00     0.033 A 
HETATM    5  C   UNL     1       3.966  14.578  23.123  0.00  0.00     0.073 A 
HETATM    6  C   UNL     1       4.871  13.612  22.686  0.00  0.00     0.028 A 
HETATM    7  N   UNL     1       2.640  14.427  23.087  0.00  0.00    -0.218 NA
HETATM    8  C   UNL     1       2.159  13.261  22.676  0.00  0.00     0.200 A 
HETATM    9  N   UNL     1       2.899  12.263  22.230  0.00  0.00    -0.212 NA
HETATM   10  C   UNL     1       4.240  12.434  22.222  0.00  0.00     0.140 A 
ENDROOT
BRANCH   1  11
HETATM   11  C   UNL     1       8.242  15.158  23.841  0.00  0.00    -0.017 A 
HETATM   12  C   UNL     1       9.325  15.441  22.947  0.00  0.00    -0.043 A 
HETATM   13  C   UNL     1      10.601  15.748  23.486  0.00  0.00     0.053 A 
HETATM   14  C   UNL     1      10.864  15.637  24.839  0.00  0.00     0.155 A 
HETATM   15  F   UNL     1      12.103  15.883  25.290  0.00  0.00    -0.203 F 
HETATM   16  C   UNL     1       9.860  15.272  25.704  0.00  0.00     0.155 A 
HETATM   17  F   UNL     1      10.103  15.149  27.014  0.00  0.00    -0.203 F 
HETATM   18  C   UNL     1       8.570  15.066  25.222  0.00  0.00     0.058 A 
BRANCH  12  19
HETATM   19  C   UNL     1       9.185  15.452  21.427  0.00  0.00     0.047 C 
BRANCH  19  20
HETATM   20  C   UNL     1       8.870  14.109  20.731  0.00  0.00     0.085 C 
BRANCH  20  21
HETATM   21  C   UNL     1       9.770  13.016  21.166  0.00  0.00     0.134 A 
HETATM   22  N   UNL     1      11.001  12.776  20.767  0.00  0.00    -0.148 NA
HETATM   23  N   UNL     1      11.409  11.652  21.442  0.00  0.00     0.017 NA
HETATM   24  N   UNL     1      10.455  11.211  22.253  0.00  0.00    -0.005 NA
HETATM   25  N   UNL     1       9.433  12.059  22.082  0.00  0.00    -0.272 N 
HETATM   26  H   UNL     1       8.576  11.912  22.598  0.00  0.00     0.185 HD
ENDBRANCH  20  21
ENDBRANCH  19  20
ENDBRANCH  12  19
ENDBRANCH   1  11
BRANCH  10  27
HETATM   27  C   UNL     1       5.018  11.187  21.850  0.00  0.00     0.273 C 
HETATM   28  O   UNL     1       5.671  10.610  22.724  0.00  0.00    -0.266 OA
HETATM   29  N   UNL     1       4.965  10.650  20.560  0.00  0.00    -0.342 N 
HETATM   30  C   UNL     1       4.425  11.213  19.318  0.00  0.00     0.139 C 
HETATM   31  C   UNL     1       5.677   9.409  20.296  0.00  0.00     0.161 C 
HETATM   32  C   UNL     1       4.193  10.002  18.417  0.00  0.00     0.056 C 
HETATM   33  C   UNL     1       5.222   9.024  18.921  0.00  0.00    -0.056 C 
HETATM   34  C   UNL     1       4.266  10.183  16.924  0.00  0.00    -0.020 C 
HETATM   35  C   UNL     1       5.680   8.021  18.153  0.00  0.00    -0.018 C 
HETATM   36  C   UNL     1       5.240   7.882  16.716  0.00  0.00     0.054 C 
HETATM   37  C   UNL     1       4.714   9.179  16.143  0.00  0.00    -0.026 C 
ENDBRANCH  10  27
BRANCH   8  38
HETATM   38  N   UNL     1       0.797  13.072  22.712  0.00  0.00    -0.271 NA
HETATM   39  H   UNL     1       0.536  12.210  22.256  0.00  0.00     0.127 HD
HETATM   40  H   UNL     1       0.423  13.256  23.630  0.00  0.00     0.127 HD
ENDBRANCH   8  38
TORSDOF 6
ENDMDL
MODEL 4
REMARK VINA RESULT:   -10.340      1.409      2.049
REMARK INTER + INTRA:         -15.415
REMARK INTER:                 -13.623
REMARK INTRA:                  -1.792
REMARK UNBOUND:                -1.750
REMARK  6 active torsions:
REMARK  status: ('A' for Active; 'I' for Inactive)
REMARK    1  A    between atoms: C_6  and  C_7 
REMARK    2  A    between atoms: C_7  and  C_8 
REMARK    3  A    between atoms: C_8  and  C_9 
REMARK    4  A    between atoms: C_16  and  C_17 
REMARK    5  A    between atoms: C_24  and  N_25 
REMARK    6  A    between atoms: C_27  and  C_28 
REMARK       I    between atoms: C_28  and  N_30 
ROOT
HETATM    1  C   UNL     1       6.756  15.039  23.560  0.00  0.00    -0.024 A 
HETATM    2  C   UNL     1       6.243  14.092  22.639  0.00  0.00     0.028 A 
HETATM    3  C   UNL     1       5.789  15.752  24.272  0.00  0.00     0.014 A 
HETATM    4  C   UNL     1       4.419  15.529  24.084  0.00  0.00     0.033 A 
HETATM    5  C   UNL     1       3.938  14.525  23.261  0.00  0.00     0.073 A 
HETATM    6  C   UNL     1       4.847  13.761  22.531  0.00  0.00     0.028 A 
HETATM    7  N   UNL     1       2.619  14.317  23.261  0.00  0.00    -0.218 NA
HETATM    8  C   UNL     1       2.156  13.276  22.581  0.00  0.00     0.200 A 
HETATM    9  N   UNL     1       2.900  12.474  21.843  0.00  0.00    -0.212 NA
HETATM   10  C   UNL     1       4.230  12.714  21.806  0.00  0.00     0.140 A 
ENDROOT
BRANCH   1  11
HETATM   11  C   UNL     1       8.228  15.129  23.866  0.00  0.00    -0.017 A 
HETATM   12  C   UNL     1       9.270  15.435  22.932  0.00  0.00    -0.043 A 
HETATM   13  C   UNL     1      10.573  15.715  23.419  0.00  0.00     0.053 A 
HETATM   14  C   UNL     1      10.898  15.556  24.753  0.00  0.00     0.155 A 
HETATM   15  F   UNL     1      12.160  15.778  25.153  0.00  0.00    -0.203 F 
HETATM   16  C   UNL     1       9.933  15.169  25.653  0.00  0.00     0.155 A 
HETATM   17  F   UNL     1      10.236  15.000  26.944  0.00  0.00    -0.203 F 
HETATM   18  C   UNL     1       8.620  14.988  25.225  0.00  0.00     0.058 A 
BRANCH  12  19
HETATM   19  C   UNL     1       9.059  15.498  21.421  0.00  0.00     0.047 C 
BRANCH  19  20
HETATM   20  C   UNL     1       8.826  14.163  20.678  0.00  0.00     0.085 C 
BRANCH  20  21
HETATM   21  C   UNL     1       9.660  13.061  21.210  0.00  0.00     0.134 A 
HETATM   22  N   UNL     1      10.958  12.892  21.074  0.00  0.00    -0.148 NA
HETATM   23  N   UNL     1      11.262  11.723  21.729  0.00  0.00     0.017 NA
HETATM   24  N   UNL     1      10.177  11.186  22.271  0.00  0.00    -0.005 NA
HETATM   25  N   UNL     1       9.178  12.017  21.948  0.00  0.00    -0.272 N 
HETATM   26  H   UNL     1       8.237  11.801  22.250  0.00  0.00     0.185 HD
ENDBRANCH  20  21
ENDBRANCH  19  20
ENDBRANCH  12  19
ENDBRANCH   1  11
BRANCH  10  27
HETATM   27  C   UNL     1       5.027  11.654  21.071  0.00  0.00     0.273 C 
HETATM   28  O   UNL     1       5.291  11.828  19.878  0.00  0.00    -0.266 OA
HETATM   29  N   UNL     1       5.514  10.519  21.727  0.00  0.00    -0.342 N 
HETATM   30  C   UNL     1       5.209   9.989  23.060  0.00  0.00     0.139 C 
HETATM   31  C   UNL     1       6.335   9.583  20.975  0.00  0.00     0.161 C 
HETATM   32  C   UNL     1       6.388   9.077  23.389  0.00  0.00     0.056 C 
HETATM   33  C   UNL     1       6.852   8.644  22.022  0.00  0.00    -0.056 C 
HETATM   34  C   UNL     1       6.168   7.907  24.310  0.00  0.00    -0.020 C 
HETATM   35  C   UNL     1       7.555   7.513  21.840  0.00  0.00    -0.018 C 
HETATM   36  C   UNL     1       7.842   6.583  22.993  0.00  0.00     0.054 C 
HETATM   37  C   UNL     1       6.877   6.771  24.142  0.00  0.00    -0.026 C 
ENDBRANCH  10  27
BRANCH   8  38
HETATM   38  N   UNL     1       0.807  13.011  22.641  0.00  0.00    -0.271 NA
HETATM   39  H   UNL     1       0.590  12.404  23.419  0.00  0.00     0.127 HD
HETATM   40  H   UNL     1       0.260  13.850  22.525  0.00  0.00     0.127 HD
ENDBRANCH   8  38
TORSDOF 6
ENDMDL
MODEL 5
REMARK VINA RESULT:   -10.318      1.224      1.548
REMARK INTER + INTRA:         -15.386
REMARK INTER:                 -13.893
REMARK INTRA:                  -1.494
REMARK UNBOUND:                -1.750
REMARK  6 active torsions:
REMARK  status: ('A' for Active; 'I' for Inactive)
REMARK    1  A    between atoms: C_6  and  C_7 
REMARK    2  A    between atoms: C_7  and  C_8 
REMARK    3  A    between atoms: C_8  and  C_9 
REMARK    4  A    between atoms: C_16  and  C_17 
REMARK    5  A    between atoms: C_24  and  N_25 
REMARK    6  A    between atoms: C_27  and  C_28 
REMARK       I    between atoms: C_28  and  N_30 
ROOT
HETATM    1  C   UNL     1       6.482  15.194  23.024  0.00  0.00    -0.024 A 
HETATM    2  C   UNL     1       5.819  14.181  22.286  0.00  0.00     0.028 A 
HETATM    3  C   UNL     1       5.669  15.907  23.907  0.00  0.00     0.014 A 
HETATM    4  C   UNL     1       4.304  15.624  24.048  0.00  0.00     0.033 A 
HETATM    5  C   UNL     1       3.698  14.561  23.401  0.00  0.00     0.073 A 
HETATM    6  C   UNL     1       4.453  13.793  22.515  0.00  0.00     0.028 A 
HETATM    7  N   UNL     1       2.425  14.304  23.712  0.00  0.00    -0.218 NA
HETATM    8  C   UNL     1       1.870  13.213  23.201  0.00  0.00     0.200 A 
HETATM    9  N   UNL     1       2.465  12.401  22.347  0.00  0.00    -0.212 NA
HETATM   10  C   UNL     1       3.739  12.688  21.996  0.00  0.00     0.140 A 
ENDROOT
BRANCH   1  11
HETATM   11  C   UNL     1       7.979  15.354  22.980  0.00  0.00    -0.017 A 
HETATM   12  C   UNL     1       8.938  14.555  23.683  0.00  0.00    -0.043 A 
HETATM   13  C   UNL     1      10.313  14.678  23.354  0.00  0.00     0.053 A 
HETATM   14  C   UNL     1      10.765  15.651  22.481  0.00  0.00     0.155 A 
HETATM   15  F   UNL     1      12.082  15.762  22.248  0.00  0.00    -0.203 F 
HETATM   16  C   UNL     1       9.868  16.493  21.868  0.00  0.00     0.155 A 
HETATM   17  F   UNL     1      10.293  17.446  21.031  0.00  0.00    -0.203 F 
HETATM   18  C   UNL     1       8.502  16.330  22.088  0.00  0.00     0.058 A 
BRANCH  12  19
HETATM   19  C   UNL     1       8.566  13.548  24.769  0.00  0.00     0.047 C 
BRANCH  19  20
HETATM   20  C   UNL     1       9.439  12.280  24.894  0.00  0.00     0.085 C 
BRANCH  20  21
HETATM   21  C   UNL     1      10.668  12.510  25.690  0.00  0.00     0.134 A 
HETATM   22  N   UNL     1      11.915  12.517  25.267  0.00  0.00    -0.148 NA
HETATM   23  N   UNL     1      12.691  12.758  26.374  0.00  0.00     0.017 NA
HETATM   24  N   UNL     1      11.941  12.910  27.458  0.00  0.00    -0.005 NA
HETATM   25  N   UNL     1      10.681  12.755  27.034  0.00  0.00    -0.272 N 
HETATM   26  H   UNL     1       9.922  12.819  27.700  0.00  0.00     0.185 HD
ENDBRANCH  20  21
ENDBRANCH  19  20
ENDBRANCH  12  19
ENDBRANCH   1  11
BRANCH  10  27
HETATM   27  C   UNL     1       4.398  11.621  21.144  0.00  0.00     0.273 C 
HETATM   28  O   UNL     1       4.320  11.709  19.915  0.00  0.00    -0.266 OA
HETATM   29  N   UNL     1       5.136  10.581  21.716  0.00  0.00    -0.342 N 
HETATM   30  C   UNL     1       5.241  10.148  23.114  0.00  0.00     0.139 C 
HETATM   31  C   UNL     1       5.803   9.637  20.833  0.00  0.00     0.161 C 
HETATM   32  C   UNL     1       6.539   9.345  23.170  0.00  0.00     0.056 C 
HETATM   33  C   UNL     1       6.657   8.826  21.760  0.00  0.00    -0.056 C 
HETATM   34  C   UNL     1       6.671   8.247  24.191  0.00  0.00    -0.020 C 
HETATM   35  C   UNL     1       7.379   7.731  21.469  0.00  0.00    -0.018 C 
HETATM   36  C   UNL     1       8.039   6.924  22.559  0.00  0.00     0.054 C 
HETATM   37  C   UNL     1       7.402   7.149  23.913  0.00  0.00    -0.026 C 
ENDBRANCH  10  27
BRANCH   8  38
HETATM   38  N   UNL     1       0.585  12.901  23.580  0.00  0.00    -0.271 NA
HETATM   39  H   UNL     1       0.507  12.832  24.584  0.00  0.00     0.127 HD
HETATM   40  H   UNL     1      -0.092  13.464  23.088  0.00  0.00     0.127 HD
ENDBRANCH   8  38
TORSDOF 6
ENDMDL
MODEL 6
REMARK VINA RESULT:    -9.712      3.180      5.995
REMARK INTER + INTRA:         -14.584
REMARK INTER:                 -12.271
REMARK INTRA:                  -2.314
REMARK UNBOUND:                -1.750
REMARK  6 active torsions:
REMARK  status: ('A' for Active; 'I' for Inactive)
REMARK    1  A    between atoms: C_6  and  C_7 
REMARK    2  A    between atoms: C_7  and  C_8 
REMARK    3  A    between atoms: C_8  and  C_9 
REMARK    4  A    between atoms: C_16  and  C_17 
REMARK    5  A    between atoms: C_24  and  N_25 
REMARK    6  A    between atoms: C_27  and  C_28 
REMARK       I    between atoms: C_28  and  N_30 
ROOT
HETATM    1  C   UNL     1       6.963  14.201  23.085  0.00  0.00    -0.024 A 
HETATM    2  C   UNL     1       7.779  13.096  23.436  0.00  0.00     0.028 A 
HETATM    3  C   UNL     1       7.547  15.106  22.198  0.00  0.00     0.014 A 
HETATM    4  C   UNL     1       8.840  14.917  21.692  0.00  0.00     0.033 A 
HETATM    5  C   UNL     1       9.580  13.778  21.960  0.00  0.00     0.073 A 
HETATM    6  C   UNL     1       9.053  12.821  22.826  0.00  0.00     0.028 A 
HETATM    7  N   UNL     1      10.744  13.643  21.319  0.00  0.00    -0.218 NA
HETATM    8  C   UNL     1      11.402  12.500  21.462  0.00  0.00     0.200 A 
HETATM    9  N   UNL     1      11.022  11.513  22.253  0.00  0.00    -0.212 NA
HETATM   10  C   UNL     1       9.867  11.670  22.938  0.00  0.00     0.140 A 
ENDROOT
BRANCH   1  11
HETATM   11  C   UNL     1       5.518  14.282  23.504  0.00  0.00    -0.017 A 
HETATM   12  C   UNL     1       4.498  13.319  23.218  0.00  0.00    -0.043 A 
HETATM   13  C   UNL     1       3.247  13.422  23.881  0.00  0.00     0.053 A 
HETATM   14  C   UNL     1       2.937  14.506  24.681  0.00  0.00     0.155 A 
HETATM   15  F   UNL     1       1.719  14.584  25.239  0.00  0.00    -0.203 F 
HETATM   16  C   UNL     1       3.871  15.492  24.892  0.00  0.00     0.155 A 
HETATM   17  F   UNL     1       3.580  16.553  25.653  0.00  0.00    -0.203 F 
HETATM   18  C   UNL     1       5.145  15.370  24.341  0.00  0.00     0.058 A 
BRANCH  12  19
HETATM   19  C   UNL     1       4.680  12.159  22.243  0.00  0.00     0.047 C 
BRANCH  19  20
HETATM   20  C   UNL     1       3.994  12.275  20.863  0.00  0.00     0.085 C 
BRANCH  20  21
HETATM   21  C   UNL     1       4.781  11.637  19.781  0.00  0.00     0.134 A 
HETATM   22  N   UNL     1       4.329  11.020  18.709  0.00  0.00    -0.148 NA
HETATM   23  N   UNL     1       5.437  10.590  18.021  0.00  0.00     0.017 NA
HETATM   24  N   UNL     1       6.552  10.945  18.645  0.00  0.00    -0.005 NA
HETATM   25  N   UNL     1       6.146  11.597  19.741  0.00  0.00    -0.272 N 
HETATM   26  H   UNL     1       6.836  11.957  20.388  0.00  0.00     0.185 HD
ENDBRANCH  20  21
ENDBRANCH  19  20
ENDBRANCH  12  19
ENDBRANCH   1  11
BRANCH  10  27
HETATM   27  C   UNL     1       9.425  10.431  23.692  0.00  0.00     0.273 C 
HETATM   28  O   UNL     1       9.985  10.148  24.754  0.00  0.00    -0.266 OA
HETATM   29  N   UNL     1       8.364   9.639  23.239  0.00  0.00    -0.342 N 
HETATM   30  C   UNL     1       7.657   9.643  21.954  0.00  0.00     0.139 C 
HETATM   31  C   UNL     1       7.946   8.509  24.053  0.00  0.00     0.161 C 
HETATM   32  C   UNL     1       6.327   8.952  22.246  0.00  0.00     0.056 C 
HETATM   33  C   UNL     1       6.681   8.047  23.397  0.00  0.00    -0.056 C 
HETATM   34  C   UNL     1       5.634   8.211  21.134  0.00  0.00    -0.020 C 
HETATM   35  C   UNL     1       5.960   6.949  23.680  0.00  0.00    -0.018 C 
HETATM   36  C   UNL     1       4.808   6.530  22.801  0.00  0.00     0.054 C 
HETATM   37  C   UNL     1       4.899   7.114  21.408  0.00  0.00    -0.026 C 
ENDBRANCH  10  27
BRANCH   8  38
HETATM   38  N   UNL     1      12.561  12.324  20.743  0.00  0.00    -0.271 NA
HETATM   39  H   UNL     1      12.572  12.910  19.921  0.00  0.00     0.127 HD
HETATM   40  H   UNL     1      13.372  12.331  21.344  0.00  0.00     0.127 HD
ENDBRANCH   8  38
TORSDOF 6
ENDMDL
MODEL 7
REMARK VINA RESULT:    -9.530      3.544      6.674
REMARK INTER + INTRA:         -14.345
REMARK INTER:                 -12.708
REMARK INTRA:                  -1.636
REMARK UNBOUND:                -1.750
REMARK  6 active torsions:
REMARK  status: ('A' for Active; 'I' for Inactive)
REMARK    1  A    between atoms: C_6  and  C_7 
REMARK    2  A    between atoms: C_7  and  C_8 
REMARK    3  A    between atoms: C_8  and  C_9 
REMARK    4  A    between atoms: C_16  and  C_17 
REMARK    5  A    between atoms: C_24  and  N_25 
REMARK    6  A    between atoms: C_27  and  C_28 
REMARK       I    between atoms: C_28  and  N_30 
ROOT
HETATM    1  C   UNL     1       6.640  10.829  24.176  0.00  0.00    -0.024 A 
HETATM    2  C   UNL     1       7.304  12.068  23.996  0.00  0.00     0.028 A 
HETATM    3  C   UNL     1       5.272  10.926  24.440  0.00  0.00     0.014 A 
HETATM    4  C   UNL     1       4.618  12.164  24.507  0.00  0.00     0.033 A 
HETATM    5  C   UNL     1       5.260  13.356  24.220  0.00  0.00     0.073 A 
HETATM    6  C   UNL     1       6.624  13.334  23.932  0.00  0.00     0.028 A 
HETATM    7  N   UNL     1       4.508  14.459  24.185  0.00  0.00    -0.218 NA
HETATM    8  C   UNL     1       5.080  15.587  23.784  0.00  0.00     0.200 A 
HETATM    9  N   UNL     1       6.360  15.711  23.486  0.00  0.00    -0.212 NA
HETATM   10  C   UNL     1       7.131  14.604  23.567  0.00  0.00     0.140 A 
ENDROOT
BRANCH   1  11
HETATM   11  C   UNL     1       7.333   9.515  23.923  0.00  0.00    -0.017 A 
HETATM   12  C   UNL     1       8.743   9.275  23.987  0.00  0.00    -0.043 A 
HETATM   13  C   UNL     1       9.218   7.938  23.957  0.00  0.00     0.053 A 
HETATM   14  C   UNL     1       8.369   6.873  23.719  0.00  0.00     0.155 A 
HETATM   15  F   UNL     1       8.877   5.633  23.642  0.00  0.00    -0.203 F 
HETATM   16  C   UNL     1       7.021   7.092  23.558  0.00  0.00     0.155 A 
HETATM   17  F   UNL     1       6.191   6.072  23.315  0.00  0.00    -0.203 F 
HETATM   18  C   UNL     1       6.508   8.381  23.687  0.00  0.00     0.058 A 
BRANCH  12  19
HETATM   19  C   UNL     1       9.785  10.385  24.108  0.00  0.00     0.047 C 
BRANCH  19  20
HETATM   20  C   UNL     1      10.934  10.399  23.074  0.00  0.00     0.085 C 
BRANCH  20  21
HETATM   21  C   UNL     1      10.649  11.279  21.917  0.00  0.00     0.134 A 
HETATM   22  N   UNL     1      11.480  12.089  21.294  0.00  0.00    -0.148 NA
HETATM   23  N   UNL     1      10.748  12.697  20.304  0.00  0.00     0.017 NA
HETATM   24  N   UNL     1       9.494  12.265  20.305  0.00  0.00    -0.005 NA
HETATM   25  N   UNL     1       9.430  11.383  21.309  0.00  0.00    -0.272 N 
HETATM   26  H   UNL     1       8.551  10.924  21.510  0.00  0.00     0.185 HD
ENDBRANCH  20  21
ENDBRANCH  19  20
ENDBRANCH  12  19
ENDBRANCH   1  11
BRANCH  10  27
HETATM   27  C   UNL     1       8.544  14.798  23.054  0.00  0.00     0.273 C 
HETATM   28  O   UNL     1       8.716  15.017  21.852  0.00  0.00    -0.266 OA
HETATM   29  N   UNL     1       9.643  14.790  23.918  0.00  0.00    -0.342 N 
HETATM   30  C   UNL     1       9.742  14.388  25.326  0.00  0.00     0.139 C 
HETATM   31  C   UNL     1      10.962  15.058  23.365  0.00  0.00     0.161 C 
HETATM   32  C   UNL     1      11.010  15.073  25.832  0.00  0.00     0.056 C 
HETATM   33  C   UNL     1      11.834  15.192  24.576  0.00  0.00    -0.056 C 
HETATM   34  C   UNL     1      11.780  14.437  26.957  0.00  0.00    -0.020 C 
HETATM   35  C   UNL     1      13.172  15.315  24.619  0.00  0.00    -0.018 C 
HETATM   36  C   UNL     1      13.915  15.255  25.930  0.00  0.00     0.054 C 
HETATM   37  C   UNL     1      13.121  14.562  27.015  0.00  0.00    -0.026 C 
ENDBRANCH  10  27
BRANCH   8  38
HETATM   38  N   UNL     1       4.292  16.709  23.670  0.00  0.00    -0.271 NA
HETATM   39  H   UNL     1       4.324  17.084  22.733  0.00  0.00     0.127 HD
HETATM   40  H   UNL     1       3.388  16.569  24.096  0.00  0.00     0.127 HD
ENDBRANCH   8  38
TORSDOF 6
ENDMDL
MODEL 8
REMARK VINA RESULT:    -9.384      2.894      4.927
REMARK INTER + INTRA:         -14.152
REMARK INTER:                 -12.402
REMARK INTRA:                  -1.750
REMARK UNBOUND:                -1.750
REMARK  6 active torsions:
REMARK  status: ('A' for Active; 'I' for Inactive)
REMARK    1  A    between atoms: C_6  and  C_7 
REMARK    2  A    between atoms: C_7  and  C_8 
REMARK    3  A    between atoms: C_8  and  C_9 
REMARK    4  A    between atoms: C_16  and  C_17 
REMARK    5  A    between atoms: C_24  and  N_25 
REMARK    6  A    between atoms: C_27  and  C_28 
REMARK       I    between atoms: C_28  and  N_30 
ROOT
HETATM    1  C   UNL     1       8.213  12.952  22.363  0.00  0.00    -0.024 A 
HETATM    2  C   UNL     1       6.996  12.227  22.347  0.00  0.00     0.028 A 
HETATM    3  C   UNL     1       8.910  12.960  21.153  0.00  0.00     0.014 A 
HETATM    4  C   UNL     1       8.423  12.304  20.015  0.00  0.00     0.033 A 
HETATM    5  C   UNL     1       7.180  11.694  19.987  0.00  0.00     0.073 A 
HETATM    6  C   UNL     1       6.421  11.661  21.155  0.00  0.00     0.028 A 
HETATM    7  N   UNL     1       6.762  11.216  18.812  0.00  0.00    -0.218 NA
HETATM    8  C   UNL     1       5.523  10.748  18.738  0.00  0.00     0.200 A 
HETATM    9  N   UNL     1       4.698  10.653  19.765  0.00  0.00    -0.212 NA
HETATM   10  C   UNL     1       5.139  11.093  20.964  0.00  0.00     0.140 A 
ENDROOT
BRANCH   1  11
HETATM   11  C   UNL     1       8.620  13.791  23.546  0.00  0.00    -0.017 A 
HETATM   12  C   UNL     1       7.808  14.764  24.214  0.00  0.00    -0.043 A 
HETATM   13  C   UNL     1       8.249  15.297  25.453  0.00  0.00     0.053 A 
HETATM   14  C   UNL     1       9.505  15.014  25.959  0.00  0.00     0.155 A 
HETATM   15  F   UNL     1       9.895  15.590  27.106  0.00  0.00    -0.203 F 
HETATM   16  C   UNL     1      10.339  14.155  25.282  0.00  0.00     0.155 A 
HETATM   17  F   UNL     1      11.560  13.882  25.754  0.00  0.00    -0.203 F 
HETATM   18  C   UNL     1       9.896  13.533  24.118  0.00  0.00     0.058 A 
BRANCH  12  19
HETATM   19  C   UNL     1       6.468  15.258  23.676  0.00  0.00     0.047 C 
BRANCH  19  20
HETATM   20  C   UNL     1       5.404  15.696  24.708  0.00  0.00     0.085 C 
BRANCH  20  21
HETATM   21  C   UNL     1       4.045  15.219  24.363  0.00  0.00     0.134 A 
HETATM   22  N   UNL     1       3.341  15.495  23.285  0.00  0.00    -0.148 NA
HETATM   23  N   UNL     1       2.146  14.834  23.430  0.00  0.00     0.017 NA
HETATM   24  N   UNL     1       2.114  14.152  24.567  0.00  0.00    -0.005 NA
HETATM   25  N   UNL     1       3.295  14.390  25.150  0.00  0.00    -0.272 N 
HETATM   26  H   UNL     1       3.496  13.975  26.050  0.00  0.00     0.185 HD
ENDBRANCH  20  21
ENDBRANCH  19  20
ENDBRANCH  12  19
ENDBRANCH   1  11
BRANCH  10  27
HETATM   27  C   UNL     1       4.078  11.098  22.047  0.00  0.00     0.273 C 
HETATM   28  O   UNL     1       3.191  11.955  22.007  0.00  0.00    -0.266 OA
HETATM   29  N   UNL     1       4.052  10.124  23.050  0.00  0.00    -0.342 N 
HETATM   30  C   UNL     1       5.055   9.123  23.428  0.00  0.00     0.139 C 
HETATM   31  C   UNL     1       2.960  10.148  24.011  0.00  0.00     0.161 C 
HETATM   32  C   UNL     1       4.270   8.066  24.201  0.00  0.00     0.056 C 
HETATM   33  C   UNL     1       3.126   8.866  24.769  0.00  0.00    -0.056 C 
HETATM   34  C   UNL     1       4.979   7.261  25.257  0.00  0.00    -0.020 C 
HETATM   35  C   UNL     1       2.452   8.459  25.858  0.00  0.00    -0.018 C 
HETATM   36  C   UNL     1       2.868   7.220  26.610  0.00  0.00     0.054 C 
HETATM   37  C   UNL     1       4.309   6.840  26.349  0.00  0.00    -0.026 C 
ENDBRANCH  10  27
BRANCH   8  38
HETATM   38  N   UNL     1       5.060  10.328  17.513  0.00  0.00    -0.271 NA
HETATM   39  H   UNL     1       5.823  10.058  16.908  0.00  0.00     0.127 HD
HETATM   40  H   UNL     1       4.283   9.693  17.610  0.00  0.00     0.127 HD
ENDBRANCH   8  38
TORSDOF 6
ENDMDL
MODEL 9
REMARK VINA RESULT:    -9.367      3.282      6.435
REMARK INTER + INTRA:         -14.128
REMARK INTER:                 -11.724
REMARK INTRA:                  -2.405
REMARK UNBOUND:                -1.750
REMARK  6 active torsions:
REMARK  status: ('A' for Active; 'I' for Inactive)
REMARK    1  A    between atoms: C_6  and  C_7 
REMARK    2  A    between atoms: C_7  and  C_8 
REMARK    3  A    between atoms: C_8  and  C_9 
REMARK    4  A    between atoms: C_16  and  C_17 
REMARK    5  A    between atoms: C_24  and  N_25 
REMARK    6  A    between atoms: C_27  and  C_28 
REMARK       I    between atoms: C_28  and  N_30 
ROOT
HETATM    1  C   UNL     1       5.713  11.925  23.653  0.00  0.00    -0.024 A 
HETATM    2  C   UNL     1       7.011  11.573  23.206  0.00  0.00     0.028 A 
HETATM    3  C   UNL     1       4.932  10.856  24.097  0.00  0.00     0.014 A 
HETATM    4  C   UNL     1       5.416   9.541  24.103  0.00  0.00     0.033 A 
HETATM    5  C   UNL     1       6.722   9.231  23.767  0.00  0.00     0.073 A 
HETATM    6  C   UNL     1       7.564  10.251  23.329  0.00  0.00     0.028 A 
HETATM    7  N   UNL     1       7.111   7.964  23.936  0.00  0.00    -0.218 NA
HETATM    8  C   UNL     1       8.391   7.677  23.744  0.00  0.00     0.200 A 
HETATM    9  N   UNL     1       9.296   8.543  23.325  0.00  0.00    -0.212 NA
HETATM   10  C   UNL     1       8.892   9.814  23.108  0.00  0.00     0.140 A 
ENDROOT
BRANCH   1  11
HETATM   11  C   UNL     1       5.288  13.363  23.800  0.00  0.00    -0.017 A 
HETATM   12  C   UNL     1       6.107  14.445  24.260  0.00  0.00    -0.043 A 
HETATM   13  C   UNL     1       5.635  15.776  24.116  0.00  0.00     0.053 A 
HETATM   14  C   UNL     1       4.351  16.048  23.683  0.00  0.00     0.155 A 
HETATM   15  F   UNL     1       3.935  17.322  23.620  0.00  0.00    -0.203 F 
HETATM   16  C   UNL     1       3.515  15.016  23.327  0.00  0.00     0.155 A 
HETATM   17  F   UNL     1       2.266  15.264  22.917  0.00  0.00    -0.203 F 
HETATM   18  C   UNL     1       3.981  13.704  23.355  0.00  0.00     0.058 A 
BRANCH  12  19
HETATM   19  C   UNL     1       7.485  14.255  24.887  0.00  0.00     0.047 C 
BRANCH  19  20
HETATM   20  C   UNL     1       8.521  15.384  24.687  0.00  0.00     0.085 C 
BRANCH  20  21
HETATM   21  C   UNL     1       9.158  15.343  23.350  0.00  0.00     0.134 A 
HETATM   22  N   UNL     1       8.866  14.551  22.340  0.00  0.00    -0.148 NA
HETATM   23  N   UNL     1       9.737  14.882  21.331  0.00  0.00     0.017 NA
HETATM   24  N   UNL     1      10.544  15.867  21.703  0.00  0.00    -0.005 NA
HETATM   25  N   UNL     1      10.185  16.155  22.960  0.00  0.00    -0.272 N 
HETATM   26  H   UNL     1      10.680  16.882  23.462  0.00  0.00     0.185 HD
ENDBRANCH  20  21
ENDBRANCH  19  20
ENDBRANCH  12  19
ENDBRANCH   1  11
BRANCH  10  27
HETATM   27  C   UNL     1      10.021  10.774  22.787  0.00  0.00     0.273 C 
HETATM   28  O   UNL     1      10.408  10.869  21.619  0.00  0.00    -0.266 OA
HETATM   29  N   UNL     1      10.591  11.588  23.772  0.00  0.00    -0.342 N 
HETATM   30  C   UNL     1      10.449  11.554  25.231  0.00  0.00     0.139 C 
HETATM   31  C   UNL     1      11.619  12.538  23.376  0.00  0.00     0.161 C 
HETATM   32  C   UNL     1      10.868  12.949  25.689  0.00  0.00     0.056 C 
HETATM   33  C   UNL     1      11.825  13.370  24.604  0.00  0.00    -0.056 C 
HETATM   34  C   UNL     1      11.459  13.116  27.063  0.00  0.00    -0.020 C 
HETATM   35  C   UNL     1      12.762  14.311  24.815  0.00  0.00    -0.018 C 
HETATM   36  C   UNL     1      12.948  14.929  26.178  0.00  0.00     0.054 C 
HETATM   37  C   UNL     1      12.392  14.064  27.287  0.00  0.00    -0.026 C 
ENDBRANCH  10  27
BRANCH   8  38
HETATM   38  N   UNL     1       8.813   6.392  23.993  0.00  0.00    -0.271 NA
HETATM   39  H   UNL     1       8.791   5.832  23.154  0.00  0.00     0.127 HD
HETATM   40  H   UNL     1       9.653   6.381  24.550  0.00  0.00     0.127 HD
ENDBRANCH   8  38
TORSDOF 6
ENDMDL
