MODEL 1
REMARK VINA RESULT:    -7.917      0.000      0.000
REMARK INTER + INTRA:         -11.015
REMARK INTER:                 -10.009
REMARK INTRA:                  -1.006
REMARK UNBOUND:                -1.015
REMARK  5 active torsions:
REMARK  status: ('A' for Active; 'I' for Inactive)
REMARK    1  A    between atoms: N_6  and  C_7 
REMARK    2  A    between atoms: C_12  and  N_13 
REMARK       I    between atoms: N_13  and  C_15 
REMARK    3  A    between atoms: C_15  and  C_17 
REMARK    4  A    between atoms: C_18  and  O_20 
REMARK    5  A    between atoms: C_24  and  C_28 
REMARK       I    between atoms: C_28  and  N_30 
ROOT
HETATM    1  C   UNL     1       4.475   6.806  22.873  0.00  0.00     0.066 C 
HETATM    2  C   UNL     1       5.809   6.368  22.740  0.00  0.00     0.083 C 
HETATM    3  C   UNL     1       6.508   6.438  21.526  0.00  0.00     0.069 C 
HETATM    4  C   UNL     1       3.863   7.397  21.747  0.00  0.00     0.036 C 
HETATM    5  C   UNL     1       4.488   7.340  20.475  0.00  0.00     0.029 C 
HETATM    6  C   UNL     1       5.803   6.901  20.413  0.00  0.00     0.065 C 
HETATM    7  C   UNL     1       4.105   7.561  19.103  0.00  0.00     0.157 C 
HETATM    8  N   UNL     1       5.178   7.431  18.294  0.00  0.00    -0.168 NA
HETATM    9  N   UNL     1       6.173   7.047  19.105  0.00  0.00    -0.277 N 
HETATM   10  H   UNL     1       7.080   6.867  18.703  0.00  0.00     0.189 HD
ENDROOT
BRANCH   1  11
HETATM   11  C   UNL     1       3.773   6.606  24.210  0.00  0.00     0.260 C 
HETATM   12  N   UNL     1       3.356   7.713  25.008  0.00  0.00    -0.318 N 
HETATM   13  C   UNL     1       3.573   9.088  24.544  0.00  0.00     0.159 C 
HETATM   14  O   UNL     1       3.549   5.421  24.482  0.00  0.00    -0.267 OA
BRANCH  12  15
HETATM   15  C   UNL     1       2.602   7.576  26.257  0.00  0.00     0.037 A 
HETATM   16  C   UNL     1       3.248   7.196  27.445  0.00  0.00     0.032 A 
HETATM   17  C   UNL     1       2.613   7.214  28.701  0.00  0.00     0.031 A 
HETATM   18  C   UNL     1       1.273   7.565  28.855  0.00  0.00     0.030 A 
HETATM   19  C   UNL     1       0.592   7.837  27.664  0.00  0.00     0.031 A 
HETATM   20  C   UNL     1       1.237   7.847  26.396  0.00  0.00     0.032 A 
BRANCH  18  21
HETATM   21  N   UNL     1       0.690   7.602  30.106  0.00  0.00    -0.377 N 
HETATM   22  C   UNL     1       0.609   8.807  30.946  0.00  0.00     0.149 C 
HETATM   23  C   UNL     1       1.430   8.618  32.232  0.00  0.00     0.187 C 
HETATM   24  O   UNL     1       1.015   7.445  32.954  0.00  0.00    -0.388 OA
HETATM   25  C   UNL     1       1.178   6.275  32.134  0.00  0.00     0.187 C 
HETATM   26  C   UNL     1       0.349   6.364  30.840  0.00  0.00     0.149 C 
ENDBRANCH  18  21
ENDBRANCH  12  15
ENDBRANCH   1  11
BRANCH   2  27
HETATM   27  O   UNL     1       6.531   5.836  23.780  0.00  0.00    -0.360 OA
HETATM   28  H   UNL     1       6.350   4.868  23.804  0.00  0.00     0.217 HD
ENDBRANCH   2  27
BRANCH   7  29
HETATM   29  C   UNL     1       2.747   7.876  18.593  0.00  0.00     0.275 C 
HETATM   30  O   UNL     1       2.362   9.043  18.571  0.00  0.00    -0.266 OA
HETATM   31  N   UNL     1       1.907   6.834  18.150  0.00  0.00    -0.343 N 
HETATM   32  C   UNL     1       0.597   7.187  17.598  0.00  0.00     0.152 C 
HETATM   33  C   UNL     1       1.944   5.470  18.703  0.00  0.00     0.152 C 
HETATM   34  C   UNL     1       0.064   6.095  16.658  0.00  0.00     0.187 C 
HETATM   35  O   UNL     1       0.057   4.811  17.299  0.00  0.00    -0.388 OA
HETATM   36  C   UNL     1       1.385   4.450  17.705  0.00  0.00     0.187 C 
ENDBRANCH   7  29
TORSDOF 5
ENDMDL
MODEL 2
REMARK VINA RESULT:    -7.613      3.339     11.125
REMARK INTER + INTRA:         -10.631
REMARK INTER:                  -9.704
REMARK INTRA:                  -0.927
REMARK UNBOUND:                -1.015
REMARK  5 active torsions:
REMARK  status: ('A' for Active; 'I' for Inactive)
REMARK    1  A    between atoms: N_6  and  C_7 
REMARK    2  A    between atoms: C_12  and  N_13 
REMARK       I    between atoms: N_13  and  C_15 
REMARK    3  A    between atoms: C_15  and  C_17 
REMARK    4  A    between atoms: C_18  and  O_20 
REMARK    5  A    between atoms: C_24  and  C_28 
REMARK       I    between atoms: C_28  and  N_30 
ROOT
HETATM    1  C   UNL     1       3.580   5.139  19.105  0.00  0.00     0.066 C 
HETATM    2  C   UNL     1       4.632   5.921  18.583  0.00  0.00     0.083 C 
HETATM    3  C   UNL     1       5.539   6.608  19.403  0.00  0.00     0.069 C 
HETATM    4  C   UNL     1       3.497   5.003  20.507  0.00  0.00     0.036 C 
HETATM    5  C   UNL     1       4.301   5.805  21.357  0.00  0.00     0.029 C 
HETATM    6  C   UNL     1       5.320   6.549  20.782  0.00  0.00     0.065 C 
HETATM    7  C   UNL     1       4.329   6.155  22.755  0.00  0.00     0.157 C 
HETATM    8  N   UNL     1       5.409   6.922  23.021  0.00  0.00    -0.168 NA
HETATM    9  N   UNL     1       5.981   7.130  21.827  0.00  0.00    -0.277 N 
HETATM   10  H   UNL     1       6.808   7.707  21.784  0.00  0.00     0.189 HD
ENDROOT
BRANCH   1  11
HETATM   11  C   UNL     1       2.595   4.504  18.133  0.00  0.00     0.260 C 
HETATM   12  N   UNL     1       1.361   5.138  17.800  0.00  0.00    -0.318 N 
HETATM   13  C   UNL     1       1.019   6.445  18.370  0.00  0.00     0.159 C 
HETATM   14  O   UNL     1       3.001   3.450  17.630  0.00  0.00    -0.267 OA
BRANCH  12  15
HETATM   15  C   UNL     1       0.420   4.612  16.806  0.00  0.00     0.037 A 
HETATM   16  C   UNL     1       0.138   5.334  15.635  0.00  0.00     0.032 A 
HETATM   17  C   UNL     1      -0.619   4.806  14.574  0.00  0.00     0.031 A 
HETATM   18  C   UNL     1      -1.192   3.535  14.624  0.00  0.00     0.030 A 
HETATM   19  C   UNL     1      -1.010   2.853  15.832  0.00  0.00     0.031 A 
HETATM   20  C   UNL     1      -0.222   3.373  16.896  0.00  0.00     0.032 A 
BRANCH  18  21
HETATM   21  N   UNL     1      -1.903   3.036  13.552  0.00  0.00    -0.377 N 
HETATM   22  C   UNL     1      -1.737   3.492  12.164  0.00  0.00     0.149 C 
HETATM   23  C   UNL     1      -3.028   4.160  11.662  0.00  0.00     0.187 C 
HETATM   24  O   UNL     1      -4.160   3.282  11.795  0.00  0.00    -0.388 OA
HETATM   25  C   UNL     1      -4.344   2.915  13.173  0.00  0.00     0.187 C 
HETATM   26  C   UNL     1      -3.107   2.197  13.743  0.00  0.00     0.149 C 
ENDBRANCH  18  21
ENDBRANCH  12  15
ENDBRANCH   1  11
BRANCH   2  27
HETATM   27  O   UNL     1       4.854   6.077  17.237  0.00  0.00    -0.360 OA
HETATM   28  H   UNL     1       4.320   6.846  16.934  0.00  0.00     0.217 HD
ENDBRANCH   2  27
BRANCH   7  29
HETATM   29  C   UNL     1       3.342   5.770  23.795  0.00  0.00     0.275 C 
HETATM   30  O   UNL     1       3.031   4.589  23.931  0.00  0.00    -0.266 OA
HETATM   31  N   UNL     1       2.760   6.764  24.609  0.00  0.00    -0.343 N 
HETATM   32  C   UNL     1       1.835   6.342  25.664  0.00  0.00     0.152 C 
HETATM   33  C   UNL     1       2.521   8.145  24.159  0.00  0.00     0.152 C 
HETATM   34  C   UNL     1       1.747   7.382  26.791  0.00  0.00     0.187 C 
HETATM   35  O   UNL     1       1.431   8.685  26.278  0.00  0.00    -0.388 OA
HETATM   36  C   UNL     1       2.436   9.110  25.347  0.00  0.00     0.187 C 
ENDBRANCH   7  29
TORSDOF 5
ENDMDL
MODEL 3
REMARK VINA RESULT:    -7.516      3.209     11.183
REMARK INTER + INTRA:         -10.507
REMARK INTER:                  -9.703
REMARK INTRA:                  -0.804
REMARK UNBOUND:                -1.015
REMARK  5 active torsions:
REMARK  status: ('A' for Active; 'I' for Inactive)
REMARK    1  A    between atoms: N_6  and  C_7 
REMARK    2  A    between atoms: C_12  and  N_13 
REMARK       I    between atoms: N_13  and  C_15 
REMARK    3  A    between atoms: C_15  and  C_17 
REMARK    4  A    between atoms: C_18  and  O_20 
REMARK    5  A    between atoms: C_24  and  C_28 
REMARK       I    between atoms: C_28  and  N_30 
ROOT
HETATM    1  C   UNL     1       3.718   6.557  19.934  0.00  0.00     0.066 C 
HETATM    2  C   UNL     1       4.242   7.835  19.646  0.00  0.00     0.083 C 
HETATM    3  C   UNL     1       4.500   8.786  20.643  0.00  0.00     0.069 C 
HETATM    4  C   UNL     1       3.518   6.220  21.290  0.00  0.00     0.036 C 
HETATM    5  C   UNL     1       3.625   7.210  22.301  0.00  0.00     0.029 C 
HETATM    6  C   UNL     1       4.150   8.446  21.952  0.00  0.00     0.065 C 
HETATM    7  C   UNL     1       3.255   7.342  23.688  0.00  0.00     0.157 C 
HETATM    8  N   UNL     1       3.696   8.521  24.177  0.00  0.00    -0.168 NA
HETATM    9  N   UNL     1       4.230   9.150  23.121  0.00  0.00    -0.277 N 
HETATM   10  H   UNL     1       4.609  10.075  23.253  0.00  0.00     0.189 HD
ENDROOT
BRANCH   1  11
HETATM   11  C   UNL     1       3.387   5.627  18.774  0.00  0.00     0.260 C 
HETATM   12  N   UNL     1       2.076   5.567  18.216  0.00  0.00    -0.318 N 
HETATM   13  C   UNL     1       1.007   6.427  18.734  0.00  0.00     0.159 C 
HETATM   14  O   UNL     1       4.365   5.006  18.340  0.00  0.00    -0.267 OA
BRANCH  12  15
HETATM   15  C   UNL     1       1.728   4.755  17.046  0.00  0.00     0.037 A 
HETATM   16  C   UNL     1       1.307   5.365  15.852  0.00  0.00     0.032 A 
HETATM   17  C   UNL     1       1.125   4.652  14.652  0.00  0.00     0.031 A 
HETATM   18  C   UNL     1       1.303   3.272  14.568  0.00  0.00     0.030 A 
HETATM   19  C   UNL     1       1.614   2.642  15.778  0.00  0.00     0.031 A 
HETATM   20  C   UNL     1       1.826   3.361  16.986  0.00  0.00     0.032 A 
BRANCH  18  21
HETATM   21  N   UNL     1       1.147   2.610  13.368  0.00  0.00    -0.377 N 
HETATM   22  C   UNL     1       0.556   3.211  12.161  0.00  0.00     0.149 C 
HETATM   23  C   UNL     1      -0.753   2.494  11.793  0.00  0.00     0.187 C 
HETATM   24  O   UNL     1      -0.551   1.079  11.630  0.00  0.00    -0.388 OA
HETATM   25  C   UNL     1      -0.046   0.507  12.849  0.00  0.00     0.187 C 
HETATM   26  C   UNL     1       1.292   1.141  13.267  0.00  0.00     0.149 C 
ENDBRANCH  18  21
ENDBRANCH  12  15
ENDBRANCH   1  11
BRANCH   2  27
HETATM   27  O   UNL     1       4.537   8.254  18.372  0.00  0.00    -0.360 OA
HETATM   28  H   UNL     1       5.334   7.758  18.072  0.00  0.00     0.217 HD
ENDBRANCH   2  27
BRANCH   7  29
HETATM   29  C   UNL     1       2.495   6.366  24.508  0.00  0.00     0.275 C 
HETATM   30  O   UNL     1       2.753   5.167  24.421  0.00  0.00    -0.266 OA
HETATM   31  N   UNL     1       1.475   6.820  25.369  0.00  0.00    -0.343 N 
HETATM   32  C   UNL     1       0.786   5.836  26.208  0.00  0.00     0.152 C 
HETATM   33  C   UNL     1       0.657   8.014  25.101  0.00  0.00     0.152 C 
HETATM   34  C   UNL     1       0.164   6.487  27.453  0.00  0.00     0.187 C 
HETATM   35  O   UNL     1      -0.683   7.590  27.099  0.00  0.00    -0.388 OA
HETATM   36  C   UNL     1       0.069   8.588  26.394  0.00  0.00     0.187 C 
ENDBRANCH   7  29
TORSDOF 5
ENDMDL
MODEL 4
REMARK VINA RESULT:    -7.482      4.281      9.124
REMARK INTER + INTRA:         -10.464
REMARK INTER:                  -9.814
REMARK INTRA:                  -0.650
REMARK UNBOUND:                -1.015
REMARK  5 active torsions:
REMARK  status: ('A' for Active; 'I' for Inactive)
REMARK    1  A    between atoms: N_6  and  C_7 
REMARK    2  A    between atoms: C_12  and  N_13 
REMARK       I    between atoms: N_13  and  C_15 
REMARK    3  A    between atoms: C_15  and  C_17 
REMARK    4  A    between atoms: C_18  and  O_20 
REMARK    5  A    between atoms: C_24  and  C_28 
REMARK       I    between atoms: C_28  and  N_30 
ROOT
HETATM    1  C   UNL     1       2.288   5.578  18.909  0.00  0.00     0.066 C 
HETATM    2  C   UNL     1       3.037   5.664  17.717  0.00  0.00     0.083 C 
HETATM    3  C   UNL     1       4.261   6.344  17.643  0.00  0.00     0.069 C 
HETATM    4  C   UNL     1       2.843   6.147  20.076  0.00  0.00     0.036 C 
HETATM    5  C   UNL     1       3.997   6.968  19.997  0.00  0.00     0.029 C 
HETATM    6  C   UNL     1       4.691   7.007  18.796  0.00  0.00     0.065 C 
HETATM    7  C   UNL     1       4.683   7.904  20.852  0.00  0.00     0.157 C 
HETATM    8  N   UNL     1       5.814   8.338  20.255  0.00  0.00    -0.168 NA
HETATM    9  N   UNL     1       5.792   7.779  19.037  0.00  0.00    -0.277 N 
HETATM   10  H   UNL     1       6.546   7.986  18.399  0.00  0.00     0.189 HD
ENDROOT
BRANCH   1  11
HETATM   11  C   UNL     1       0.928   4.895  18.867  0.00  0.00     0.260 C 
HETATM   12  N   UNL     1       0.796   3.483  19.027  0.00  0.00    -0.318 N 
HETATM   13  C   UNL     1       1.978   2.649  19.267  0.00  0.00     0.159 C 
HETATM   14  O   UNL     1      -0.021   5.680  18.753  0.00  0.00    -0.267 OA
BRANCH  12  15
HETATM   15  C   UNL     1      -0.494   2.789  19.081  0.00  0.00     0.037 A 
HETATM   16  C   UNL     1      -0.578   1.471  19.561  0.00  0.00     0.032 A 
HETATM   17  C   UNL     1      -1.802   0.818  19.795  0.00  0.00     0.031 A 
HETATM   18  C   UNL     1      -3.032   1.416  19.520  0.00  0.00     0.030 A 
HETATM   19  C   UNL     1      -2.955   2.685  18.937  0.00  0.00     0.031 A 
HETATM   20  C   UNL     1      -1.721   3.359  18.725  0.00  0.00     0.032 A 
BRANCH  18  21
HETATM   21  N   UNL     1      -4.215   0.758  19.791  0.00  0.00    -0.377 N 
HETATM   22  C   UNL     1      -5.069   0.137  18.767  0.00  0.00     0.149 C 
HETATM   23  C   UNL     1      -6.429   0.850  18.701  0.00  0.00     0.187 C 
HETATM   24  O   UNL     1      -7.077   0.869  19.986  0.00  0.00    -0.388 OA
HETATM   25  C   UNL     1      -6.253   1.549  20.947  0.00  0.00     0.187 C 
HETATM   26  C   UNL     1      -4.881   0.869  21.107  0.00  0.00     0.149 C 
ENDBRANCH  18  21
ENDBRANCH  12  15
ENDBRANCH   1  11
BRANCH   2  27
HETATM   27  O   UNL     1       2.632   5.095  16.534  0.00  0.00    -0.360 OA
HETATM   28  H   UNL     1       3.268   4.376  16.316  0.00  0.00     0.217 HD
ENDBRANCH   2  27
BRANCH   7  29
HETATM   29  C   UNL     1       4.253   8.371  22.194  0.00  0.00     0.275 C 
HETATM   30  O   UNL     1       3.825   9.515  22.332  0.00  0.00    -0.266 OA
HETATM   31  N   UNL     1       4.351   7.502  23.300  0.00  0.00    -0.343 N 
HETATM   32  C   UNL     1       3.861   7.975  24.598  0.00  0.00     0.152 C 
HETATM   33  C   UNL     1       5.380   6.458  23.425  0.00  0.00     0.152 C 
HETATM   34  C   UNL     1       3.489   6.807  25.524  0.00  0.00     0.187 C 
HETATM   35  O   UNL     1       4.573   5.876  25.656  0.00  0.00    -0.388 OA
HETATM   36  C   UNL     1       4.929   5.342  24.373  0.00  0.00     0.187 C 
ENDBRANCH   7  29
TORSDOF 5
ENDMDL
MODEL 5
REMARK VINA RESULT:    -7.414      3.686     11.017
REMARK INTER + INTRA:         -10.379
REMARK INTER:                  -9.350
REMARK INTRA:                  -1.029
REMARK UNBOUND:                -1.015
REMARK  5 active torsions:
REMARK  status: ('A' for Active; 'I' for Inactive)
REMARK    1  A    between atoms: N_6  and  C_7 
REMARK    2  A    between atoms: C_12  and  N_13 
REMARK       I    between atoms: N_13  and  C_15 
REMARK    3  A    between atoms: C_15  and  C_17 
REMARK    4  A    between atoms: C_18  and  O_20 
REMARK    5  A    between atoms: C_24  and  C_28 
REMARK       I    between atoms: C_28  and  N_30 
ROOT
HETATM    1  C   UNL     1       4.135   6.797  20.282  0.00  0.00     0.066 C 
HETATM    2  C   UNL     1       3.985   8.160  20.617  0.00  0.00     0.083 C 
HETATM    3  C   UNL     1       4.233   8.650  21.907  0.00  0.00     0.069 C 
HETATM    4  C   UNL     1       4.619   5.925  21.281  0.00  0.00     0.036 C 
HETATM    5  C   UNL     1       4.729   6.362  22.625  0.00  0.00     0.029 C 
HETATM    6  C   UNL     1       4.574   7.715  22.888  0.00  0.00     0.065 C 
HETATM    7  C   UNL     1       4.906   5.750  23.919  0.00  0.00     0.157 C 
HETATM    8  N   UNL     1       5.025   6.701  24.871  0.00  0.00    -0.168 NA
HETATM    9  N   UNL     1       4.830   7.858  24.223  0.00  0.00    -0.277 N 
HETATM   10  H   UNL     1       4.854   8.716  24.753  0.00  0.00     0.189 HD
ENDROOT
BRANCH   1  11
HETATM   11  C   UNL     1       3.755   6.348  18.877  0.00  0.00     0.260 C 
HETATM   12  N   UNL     1       2.503   5.720  18.607  0.00  0.00    -0.318 N 
HETATM   13  C   UNL     1       1.528   5.512  19.683  0.00  0.00     0.159 C 
HETATM   14  O   UNL     1       4.593   6.642  18.017  0.00  0.00    -0.267 OA
BRANCH  12  15
HETATM   15  C   UNL     1       2.054   5.348  17.262  0.00  0.00     0.037 A 
HETATM   16  C   UNL     1       1.884   3.998  16.912  0.00  0.00     0.032 A 
HETATM   17  C   UNL     1       1.296   3.590  15.700  0.00  0.00     0.031 A 
HETATM   18  C   UNL     1       0.880   4.499  14.729  0.00  0.00     0.030 A 
HETATM   19  C   UNL     1       1.148   5.841  15.021  0.00  0.00     0.031 A 
HETATM   20  C   UNL     1       1.716   6.259  16.256  0.00  0.00     0.032 A 
BRANCH  18  21
HETATM   21  N   UNL     1       0.278   4.065  13.565  0.00  0.00    -0.377 N 
HETATM   22  C   UNL     1      -1.163   3.808  13.424  0.00  0.00     0.149 C 
HETATM   23  C   UNL     1      -1.416   2.318  13.146  0.00  0.00     0.187 C 
HETATM   24  O   UNL     1      -0.687   1.866  11.991  0.00  0.00    -0.388 OA
HETATM   25  C   UNL     1       0.724   2.060  12.189  0.00  0.00     0.187 C 
HETATM   26  C   UNL     1       1.070   3.540  12.431  0.00  0.00     0.149 C 
ENDBRANCH  18  21
ENDBRANCH  12  15
ENDBRANCH   1  11
BRANCH   2  27
HETATM   27  O   UNL     1       3.584   9.114  19.715  0.00  0.00    -0.360 OA
HETATM   28  H   UNL     1       4.237   9.122  18.978  0.00  0.00     0.217 HD
ENDBRANCH   2  27
BRANCH   7  29
HETATM   29  C   UNL     1       4.949   4.299  24.224  0.00  0.00     0.275 C 
HETATM   30  O   UNL     1       5.764   3.580  23.650  0.00  0.00    -0.266 OA
HETATM   31  N   UNL     1       4.046   3.754  25.160  0.00  0.00    -0.343 N 
HETATM   32  C   UNL     1       4.156   2.328  25.482  0.00  0.00     0.152 C 
HETATM   33  C   UNL     1       2.694   4.287  25.391  0.00  0.00     0.152 C 
HETATM   34  C   UNL     1       3.562   2.010  26.862  0.00  0.00     0.187 C 
HETATM   35  O   UNL     1       2.215   2.492  26.976  0.00  0.00    -0.388 OA
HETATM   36  C   UNL     1       2.178   3.913  26.784  0.00  0.00     0.187 C 
ENDBRANCH   7  29
TORSDOF 5
ENDMDL
MODEL 6
REMARK VINA RESULT:    -7.396      1.987      2.636
REMARK INTER + INTRA:         -10.356
REMARK INTER:                  -9.187
REMARK INTRA:                  -1.169
REMARK UNBOUND:                -1.015
REMARK  5 active torsions:
REMARK  status: ('A' for Active; 'I' for Inactive)
REMARK    1  A    between atoms: N_6  and  C_7 
REMARK    2  A    between atoms: C_12  and  N_13 
REMARK       I    between atoms: N_13  and  C_15 
REMARK    3  A    between atoms: C_15  and  C_17 
REMARK    4  A    between atoms: C_18  and  O_20 
REMARK    5  A    between atoms: C_24  and  C_28 
REMARK       I    between atoms: C_28  and  N_30 
ROOT
HETATM    1  C   UNL     1       4.169   6.941  21.633  0.00  0.00     0.066 C 
HETATM    2  C   UNL     1       5.469   6.685  21.149  0.00  0.00     0.083 C 
HETATM    3  C   UNL     1       5.716   6.287  19.827  0.00  0.00     0.069 C 
HETATM    4  C   UNL     1       3.098   6.854  20.717  0.00  0.00     0.036 C 
HETATM    5  C   UNL     1       3.301   6.308  19.424  0.00  0.00     0.029 C 
HETATM    6  C   UNL     1       4.604   6.081  19.007  0.00  0.00     0.065 C 
HETATM    7  C   UNL     1       2.475   5.816  18.349  0.00  0.00     0.157 C 
HETATM    8  N   UNL     1       3.243   5.482  17.289  0.00  0.00    -0.168 NA
HETATM    9  N   UNL     1       4.502   5.659  17.711  0.00  0.00    -0.277 N 
HETATM   10  H   UNL     1       5.257   5.446  17.076  0.00  0.00     0.189 HD
ENDROOT
BRANCH   1  11
HETATM   11  C   UNL     1       3.995   7.281  23.108  0.00  0.00     0.260 C 
HETATM   12  N   UNL     1       3.491   6.326  24.040  0.00  0.00    -0.318 N 
HETATM   13  C   UNL     1       3.148   4.969  23.602  0.00  0.00     0.159 C 
HETATM   14  O   UNL     1       4.393   8.413  23.408  0.00  0.00    -0.267 OA
BRANCH  12  15
HETATM   15  C   UNL     1       3.387   6.574  25.481  0.00  0.00     0.037 A 
HETATM   16  C   UNL     1       4.340   6.045  26.368  0.00  0.00     0.032 A 
HETATM   17  C   UNL     1       4.388   6.389  27.732  0.00  0.00     0.031 A 
HETATM   18  C   UNL     1       3.461   7.248  28.320  0.00  0.00     0.030 A 
HETATM   19  C   UNL     1       2.443   7.690  27.468  0.00  0.00     0.031 A 
HETATM   20  C   UNL     1       2.406   7.368  26.083  0.00  0.00     0.032 A 
BRANCH  18  21
HETATM   21  N   UNL     1       3.557   7.588  29.654  0.00  0.00    -0.377 N 
HETATM   22  C   UNL     1       3.870   6.635  30.730  0.00  0.00     0.149 C 
HETATM   23  C   UNL     1       2.677   6.502  31.691  0.00  0.00     0.187 C 
HETATM   24  O   UNL     1       2.281   7.781  32.219  0.00  0.00    -0.388 OA
HETATM   25  C   UNL     1       1.908   8.665  31.149  0.00  0.00     0.187 C 
HETATM   26  C   UNL     1       3.067   8.888  30.160  0.00  0.00     0.149 C 
ENDBRANCH  18  21
ENDBRANCH  12  15
ENDBRANCH   1  11
BRANCH   2  27
HETATM   27  O   UNL     1       6.595   6.799  21.926  0.00  0.00    -0.360 OA
HETATM   28  H   UNL     1       6.998   5.904  22.001  0.00  0.00     0.217 HD
ENDBRANCH   2  27
BRANCH   7  29
HETATM   29  C   UNL     1       0.999   5.665  18.351  0.00  0.00     0.275 C 
HETATM   30  O   UNL     1       0.290   6.615  18.028  0.00  0.00    -0.266 OA
HETATM   31  N   UNL     1       0.422   4.437  18.736  0.00  0.00    -0.343 N 
HETATM   32  C   UNL     1      -1.036   4.305  18.669  0.00  0.00     0.152 C 
HETATM   33  C   UNL     1       1.033   3.524  19.715  0.00  0.00     0.152 C 
HETATM   34  C   UNL     1      -1.467   2.836  18.540  0.00  0.00     0.187 C 
HETATM   35  O   UNL     1      -0.894   2.028  19.578  0.00  0.00    -0.388 OA
HETATM   36  C   UNL     1       0.539   2.087  19.520  0.00  0.00     0.187 C 
ENDBRANCH   7  29
TORSDOF 5
ENDMDL
MODEL 7
REMARK VINA RESULT:    -7.387      3.086     10.293
REMARK INTER + INTRA:         -10.345
REMARK INTER:                  -9.435
REMARK INTRA:                  -0.909
REMARK UNBOUND:                -1.015
REMARK  5 active torsions:
REMARK  status: ('A' for Active; 'I' for Inactive)
REMARK    1  A    between atoms: N_6  and  C_7 
REMARK    2  A    between atoms: C_12  and  N_13 
REMARK       I    between atoms: N_13  and  C_15 
REMARK    3  A    between atoms: C_15  and  C_17 
REMARK    4  A    between atoms: C_18  and  O_20 
REMARK    5  A    between atoms: C_24  and  C_28 
REMARK       I    between atoms: C_28  and  N_30 
ROOT
HETATM    1  C   UNL     1       3.613   6.301  22.502  0.00  0.00     0.066 C 
HETATM    2  C   UNL     1       5.001   6.332  22.749  0.00  0.00     0.083 C 
HETATM    3  C   UNL     1       5.534   6.473  24.039  0.00  0.00     0.069 C 
HETATM    4  C   UNL     1       2.747   6.347  23.616  0.00  0.00     0.036 C 
HETATM    5  C   UNL     1       3.251   6.643  24.908  0.00  0.00     0.029 C 
HETATM    6  C   UNL     1       4.627   6.656  25.086  0.00  0.00     0.065 C 
HETATM    7  C   UNL     1       2.708   7.031  26.186  0.00  0.00     0.157 C 
HETATM    8  N   UNL     1       3.692   7.098  27.108  0.00  0.00    -0.168 NA
HETATM    9  N   UNL     1       4.819   6.861  26.423  0.00  0.00    -0.277 N 
HETATM   10  H   UNL     1       5.698   6.884  26.918  0.00  0.00     0.189 HD
ENDROOT
BRANCH   1  11
HETATM   11  C   UNL     1       3.132   6.235  21.059  0.00  0.00     0.260 C 
HETATM   12  N   UNL     1       2.488   5.074  20.538  0.00  0.00    -0.318 N 
HETATM   13  C   UNL     1       2.246   3.910  21.398  0.00  0.00     0.159 C 
HETATM   14  O   UNL     1       3.293   7.289  20.432  0.00  0.00    -0.267 OA
BRANCH  12  15
HETATM   15  C   UNL     1       1.930   4.991  19.185  0.00  0.00     0.037 A 
HETATM   16  C   UNL     1       2.518   4.159  18.218  0.00  0.00     0.032 A 
HETATM   17  C   UNL     1       1.931   3.910  16.964  0.00  0.00     0.031 A 
HETATM   18  C   UNL     1       0.738   4.511  16.565  0.00  0.00     0.030 A 
HETATM   19  C   UNL     1       0.204   5.427  17.477  0.00  0.00     0.031 A 
HETATM   20  C   UNL     1       0.779   5.660  18.757  0.00  0.00     0.032 A 
BRANCH  18  21
HETATM   21  N   UNL     1       0.174   4.220  15.339  0.00  0.00    -0.377 N 
HETATM   22  C   UNL     1      -0.948   3.289  15.145  0.00  0.00     0.149 C 
HETATM   23  C   UNL     1      -0.500   2.078  14.311  0.00  0.00     0.187 C 
HETATM   24  O   UNL     1       0.068   2.485  13.053  0.00  0.00    -0.388 OA
HETATM   25  C   UNL     1       1.209   3.332  13.276  0.00  0.00     0.187 C 
HETATM   26  C   UNL     1       0.836   4.596  14.071  0.00  0.00     0.149 C 
ENDBRANCH  18  21
ENDBRANCH  12  15
ENDBRANCH   1  11
BRANCH   2  27
HETATM   27  O   UNL     1       5.943   6.231  21.755  0.00  0.00    -0.360 OA
HETATM   28  H   UNL     1       6.150   7.143  21.447  0.00  0.00     0.217 HD
ENDBRANCH   2  27
BRANCH   7  29
HETATM   29  C   UNL     1       1.290   7.337  26.500  0.00  0.00     0.275 C 
HETATM   30  O   UNL     1       0.602   6.501  27.081  0.00  0.00    -0.266 OA
HETATM   31  N   UNL     1       0.741   8.578  26.118  0.00  0.00    -0.343 N 
HETATM   32  C   UNL     1      -0.644   8.870  26.497  0.00  0.00     0.152 C 
HETATM   33  C   UNL     1       1.177   9.328  24.929  0.00  0.00     0.152 C 
HETATM   34  C   UNL     1      -0.911  10.382  26.553  0.00  0.00     0.187 C 
HETATM   35  O   UNL     1      -0.535  11.026  25.327  0.00  0.00    -0.388 OA
HETATM   36  C   UNL     1       0.862  10.822  25.066  0.00  0.00     0.187 C 
ENDBRANCH   7  29
TORSDOF 5
ENDMDL
MODEL 8
REMARK VINA RESULT:    -7.342      1.977      2.478
REMARK INTER + INTRA:         -10.288
REMARK INTER:                  -9.273
REMARK INTRA:                  -1.015
REMARK UNBOUND:                -1.015
REMARK  5 active torsions:
REMARK  status: ('A' for Active; 'I' for Inactive)
REMARK    1  A    between atoms: N_6  and  C_7 
REMARK    2  A    between atoms: C_12  and  N_13 
REMARK       I    between atoms: N_13  and  C_15 
REMARK    3  A    between atoms: C_15  and  C_17 
REMARK    4  A    between atoms: C_18  and  O_20 
REMARK    5  A    between atoms: C_24  and  C_28 
REMARK       I    between atoms: C_28  and  N_30 
ROOT
HETATM    1  C   UNL     1       3.517   7.941  22.766  0.00  0.00     0.066 C 
HETATM    2  C   UNL     1       4.149   9.172  22.485  0.00  0.00     0.083 C 
HETATM    3  C   UNL     1       4.824   9.415  21.280  0.00  0.00     0.069 C 
HETATM    4  C   UNL     1       3.520   6.957  21.754  0.00  0.00     0.036 C 
HETATM    5  C   UNL     1       4.321   7.119  20.594  0.00  0.00     0.029 C 
HETATM    6  C   UNL     1       4.912   8.354  20.375  0.00  0.00     0.065 C 
HETATM    7  C   UNL     1       4.795   6.284  19.519  0.00  0.00     0.157 C 
HETATM    8  N   UNL     1       5.481   7.026  18.622  0.00  0.00    -0.168 NA
HETATM    9  N   UNL     1       5.525   8.253  19.158  0.00  0.00    -0.277 N 
HETATM   10  H   UNL     1       6.017   8.979  18.659  0.00  0.00     0.189 HD
ENDROOT
BRANCH   1  11
HETATM   11  C   UNL     1       2.888   7.743  24.138  0.00  0.00     0.260 C 
HETATM   12  N   UNL     1       3.507   6.930  25.133  0.00  0.00    -0.318 N 
HETATM   13  C   UNL     1       4.794   6.279  24.866  0.00  0.00     0.159 C 
HETATM   14  O   UNL     1       1.854   8.399  24.310  0.00  0.00    -0.267 OA
BRANCH  12  15
HETATM   15  C   UNL     1       2.988   6.777  26.496  0.00  0.00     0.037 A 
HETATM   16  C   UNL     1       3.743   7.204  27.601  0.00  0.00     0.032 A 
HETATM   17  C   UNL     1       3.229   7.239  28.910  0.00  0.00     0.031 A 
HETATM   18  C   UNL     1       1.940   6.806  29.219  0.00  0.00     0.030 A 
HETATM   19  C   UNL     1       1.221   6.276  28.143  0.00  0.00     0.031 A 
HETATM   20  C   UNL     1       1.726   6.264  26.814  0.00  0.00     0.032 A 
BRANCH  18  21
HETATM   21  N   UNL     1       1.457   6.884  30.510  0.00  0.00    -0.377 N 
HETATM   22  C   UNL     1       0.701   8.028  31.043  0.00  0.00     0.149 C 
HETATM   23  C   UNL     1       1.492   8.715  32.167  0.00  0.00     0.187 C 
HETATM   24  O   UNL     1       1.843   7.786  33.208  0.00  0.00    -0.388 OA
HETATM   25  C   UNL     1       2.646   6.721  32.672  0.00  0.00     0.187 C 
HETATM   26  C   UNL     1       1.906   5.949  31.564  0.00  0.00     0.149 C 
ENDBRANCH  18  21
ENDBRANCH  12  15
ENDBRANCH   1  11
BRANCH   2  27
HETATM   27  O   UNL     1       4.158  10.227  23.364  0.00  0.00    -0.360 OA
HETATM   28  H   UNL     1       4.575   9.915  24.200  0.00  0.00     0.217 HD
ENDBRANCH   2  27
BRANCH   7  29
HETATM   29  C   UNL     1       4.599   4.821  19.369  0.00  0.00     0.275 C 
HETATM   30  O   UNL     1       5.445   4.045  19.809  0.00  0.00    -0.266 OA
HETATM   31  N   UNL     1       3.450   4.332  18.712  0.00  0.00    -0.343 N 
HETATM   32  C   UNL     1       3.260   2.881  18.636  0.00  0.00     0.152 C 
HETATM   33  C   UNL     1       2.764   5.055  17.630  0.00  0.00     0.152 C 
HETATM   34  C   UNL     1       1.781   2.512  18.448  0.00  0.00     0.187 C 
HETATM   35  O   UNL     1       1.208   3.197  17.325  0.00  0.00    -0.388 OA
HETATM   36  C   UNL     1       1.301   4.617  17.508  0.00  0.00     0.187 C 
ENDBRANCH   7  29
TORSDOF 5
ENDMDL
MODEL 9
REMARK VINA RESULT:    -7.243      3.305     10.632
REMARK INTER + INTRA:         -10.164
REMARK INTER:                  -9.361
REMARK INTRA:                  -0.802
REMARK UNBOUND:                -1.015
REMARK  5 active torsions:
REMARK  status: ('A' for Active; 'I' for Inactive)
REMARK    1  A    between atoms: N_6  and  C_7 
REMARK    2  A    between atoms: C_12  and  N_13 
REMARK       I    between atoms: N_13  and  C_15 
REMARK    3  A    between atoms: C_15  and  C_17 
REMARK    4  A    between atoms: C_18  and  O_20 
REMARK    5  A    between atoms: C_24  and  C_28 
REMARK       I    between atoms: C_28  and  N_30 
ROOT
HETATM    1  C   UNL     1       3.319   5.163  21.215  0.00  0.00     0.066 C 
HETATM    2  C   UNL     1       4.452   4.384  21.532  0.00  0.00     0.083 C 
HETATM    3  C   UNL     1       5.215   4.598  22.689  0.00  0.00     0.069 C 
HETATM    4  C   UNL     1       2.917   6.145  22.146  0.00  0.00     0.036 C 
HETATM    5  C   UNL     1       3.753   6.484  23.241  0.00  0.00     0.029 C 
HETATM    6  C   UNL     1       4.850   5.676  23.500  0.00  0.00     0.065 C 
HETATM    7  C   UNL     1       3.841   7.552  24.206  0.00  0.00     0.157 C 
HETATM    8  N   UNL     1       4.827   7.296  25.093  0.00  0.00    -0.168 NA
HETATM    9  N   UNL     1       5.401   6.170  24.649  0.00  0.00    -0.277 N 
HETATM   10  H   UNL     1       6.191   5.800  25.157  0.00  0.00     0.189 HD
ENDROOT
BRANCH   1  11
HETATM   11  C   UNL     1       2.610   4.911  19.892  0.00  0.00     0.260 C 
HETATM   12  N   UNL     1       3.003   5.579  18.694  0.00  0.00    -0.318 N 
HETATM   13  C   UNL     1       4.131   6.518  18.703  0.00  0.00     0.159 C 
HETATM   14  O   UNL     1       1.734   4.040  19.954  0.00  0.00    -0.267 OA
BRANCH  12  15
HETATM   15  C   UNL     1       2.412   5.308  17.380  0.00  0.00     0.037 A 
HETATM   16  C   UNL     1       2.161   3.989  16.968  0.00  0.00     0.032 A 
HETATM   17  C   UNL     1       1.444   3.677  15.798  0.00  0.00     0.031 A 
HETATM   18  C   UNL     1       0.966   4.658  14.930  0.00  0.00     0.030 A 
HETATM   19  C   UNL     1       1.309   5.970  15.276  0.00  0.00     0.031 A 
HETATM   20  C   UNL     1       2.009   6.291  16.471  0.00  0.00     0.032 A 
BRANCH  18  21
HETATM   21  N   UNL     1       0.239   4.318  13.808  0.00  0.00    -0.377 N 
HETATM   22  C   UNL     1      -1.227   4.202  13.775  0.00  0.00     0.149 C 
HETATM   23  C   UNL     1      -1.642   2.751  13.484  0.00  0.00     0.187 C 
HETATM   24  O   UNL     1      -1.050   2.267  12.265  0.00  0.00    -0.388 OA
HETATM   25  C   UNL     1       0.384   2.321  12.356  0.00  0.00     0.187 C 
HETATM   26  C   UNL     1       0.888   3.754  12.604  0.00  0.00     0.149 C 
ENDBRANCH  18  21
ENDBRANCH  12  15
ENDBRANCH   1  11
BRANCH   2  27
HETATM   27  O   UNL     1       4.903   3.358  20.738  0.00  0.00    -0.360 OA
HETATM   28  H   UNL     1       4.237   3.216  20.028  0.00  0.00     0.217 HD
ENDBRANCH   2  27
BRANCH   7  29
HETATM   29  C   UNL     1       3.008   8.779  24.261  0.00  0.00     0.275 C 
HETATM   30  O   UNL     1       3.419   9.817  23.747  0.00  0.00    -0.266 OA
HETATM   31  N   UNL     1       1.758   8.746  24.913  0.00  0.00    -0.343 N 
HETATM   32  C   UNL     1       0.936   9.959  24.896  0.00  0.00     0.152 C 
HETATM   33  C   UNL     1       1.462   7.873  26.060  0.00  0.00     0.152 C 
HETATM   34  C   UNL     1      -0.553   9.638  25.097  0.00  0.00     0.187 C 
HETATM   35  O   UNL     1      -0.765   8.853  26.279  0.00  0.00    -0.388 OA
HETATM   36  C   UNL     1      -0.043   7.616  26.190  0.00  0.00     0.187 C 
ENDBRANCH   7  29
TORSDOF 5
ENDMDL
