REMARK  5 active torsions:
REMARK  status: ('A' for Active; 'I' for Inactive)
REMARK    1  A    between atoms: N_6  and  C_7 
REMARK    2  A    between atoms: C_12  and  N_13 
REMARK       I    between atoms: N_13  and  C_15 
REMARK    3  A    between atoms: C_15  and  C_17 
REMARK    4  A    between atoms: C_18  and  O_20 
REMARK    5  A    between atoms: C_24  and  C_28 
REMARK       I    between atoms: C_28  and  N_30 
ROOT
HETATM    1  C   UNL     1       8.444  -1.169   3.987  0.00  0.00     0.066 C 
HETATM    2  C   UNL     1       9.319  -2.243   3.720  0.00  0.00     0.083 C 
HETATM    3  C   UNL     1      10.674  -2.219   4.081  0.00  0.00     0.069 C 
HETATM    4  C   UNL     1       8.957  -0.068   4.706  0.00  0.00     0.036 C 
HETATM    5  C   UNL     1      10.350   0.049   4.946  0.00  0.00     0.029 C 
HETATM    6  C   UNL     1      11.156  -1.044   4.664  0.00  0.00     0.065 C 
HETATM    7  C   UNL     1      11.261   1.082   5.372  0.00  0.00     0.157 C 
HETATM    8  N   UNL     1      12.507   0.578   5.503  0.00  0.00    -0.168 NA
HETATM    9  N   UNL     1      12.408  -0.690   5.082  0.00  0.00    -0.277 N 
HETATM   10  H   UNL     1      13.240  -1.261   5.073  0.00  0.00     0.189 HD
ENDROOT
BRANCH   1  11
HETATM   11  C   UNL     1       7.012  -1.253   3.476  0.00  0.00     0.260 C 
HETATM   12  N   UNL     1       6.320  -0.100   3.000  0.00  0.00    -0.318 N 
HETATM   13  C   UNL     1       6.987   1.206   2.966  0.00  0.00     0.159 C 
HETATM   14  O   UNL     1       6.558  -2.403   3.454  0.00  0.00    -0.267 OA
BRANCH  12  15
HETATM   15  C   UNL     1       4.975  -0.142   2.418  0.00  0.00     0.037 A 
HETATM   16  C   UNL     1       4.296   1.046   2.100  0.00  0.00     0.032 A 
HETATM   17  C   UNL     1       3.083   1.066   1.387  0.00  0.00     0.031 A 
HETATM   18  C   UNL     1       2.435  -0.100   0.982  0.00  0.00     0.030 A 
HETATM   19  C   UNL     1       3.047  -1.289   1.392  0.00  0.00     0.031 A 
HETATM   20  C   UNL     1       4.287  -1.314   2.088  0.00  0.00     0.032 A 
BRANCH  18  21
HETATM   21  N   UNL     1       1.262  -0.043   0.257  0.00  0.00    -0.377 N 
HETATM   22  C   UNL     1       0.271  -1.129   0.199  0.00  0.00     0.149 C 
HETATM   23  C   UNL     1       0.171  -1.686  -1.230  0.00  0.00     0.187 C 
HETATM   24  O   UNL     1      -0.131  -0.648  -2.180  0.00  0.00    -0.388 OA
HETATM   25  C   UNL     1       0.894   0.360  -2.155  0.00  0.00     0.187 C 
HETATM   26  C   UNL     1       1.030   1.003  -0.763  0.00  0.00     0.149 C 
ENDBRANCH  18  21
ENDBRANCH  12  15
ENDBRANCH   1  11
BRANCH   2  27
HETATM   27  O   UNL     1       8.922  -3.394   3.085  0.00  0.00    -0.360 OA
HETATM   28  H   UNL     1       7.938  -3.392   3.052  0.00  0.00     0.217 HD
ENDBRANCH   2  27
BRANCH   7  29
HETATM   29  C   UNL     1      10.939   2.507   5.633  0.00  0.00     0.275 C 
HETATM   30  O   UNL     1       9.799   2.822   5.968  0.00  0.00    -0.266 OA
HETATM   31  N   UNL     1      11.940   3.489   5.483  0.00  0.00    -0.343 N 
HETATM   32  C   UNL     1      11.603   4.878   5.807  0.00  0.00     0.152 C 
HETATM   33  C   UNL     1      13.046   3.381   4.518  0.00  0.00     0.152 C 
HETATM   34  C   UNL     1      12.853   5.697   6.162  0.00  0.00     0.187 C 
HETATM   35  O   UNL     1      13.850   5.604   5.134  0.00  0.00    -0.388 OA
HETATM   36  C   UNL     1      14.243   4.237   4.945  0.00  0.00     0.187 C 
ENDBRANCH   7  29
TORSDOF 5
