MODEL 1
REMARK VINA RESULT:    -8.063      0.000      0.000
REMARK INTER + INTRA:         -12.056
REMARK INTER:                 -11.054
REMARK INTRA:                  -1.002
REMARK UNBOUND:                -1.401
REMARK  6 active torsions:
REMARK  status: ('A' for Active; 'I' for Inactive)
REMARK    1  A    between atoms: C_5  and  C_6 
REMARK    2  A    between atoms: C_6  and  C_7 
REMARK    3  A    between atoms: C_14  and  C_18 
REMARK    4  A    between atoms: C_15  and  O_17 
REMARK       I    between atoms: C_18  and  N_20 
REMARK    5  A    between atoms: N_20  and  C_22 
REMARK    6  A    between atoms: C_25  and  N_28 
ROOT
HETATM    1  C   UNL     1       5.815  14.943  23.275  0.00  0.00     0.067 A 
HETATM    2  N   UNL     1       6.645  15.556  24.139  0.00  0.00    -0.178 NA
HETATM    3  N   UNL     1       7.830  14.964  23.928  0.00  0.00    -0.277 N 
HETATM    4  H   UNL     1       8.616  15.250  24.500  0.00  0.00     0.189 HD
HETATM    5  C   UNL     1       6.510  13.993  22.471  0.00  0.00     0.019 A 
HETATM    6  C   UNL     1       7.799  13.977  22.981  0.00  0.00     0.065 A 
HETATM    7  C   UNL     1       6.194  13.101  21.427  0.00  0.00     0.035 C 
HETATM    8  C   UNL     1       7.120  12.105  21.018  0.00  0.00     0.066 C 
HETATM    9  C   UNL     1       8.364  12.065  21.660  0.00  0.00     0.083 C 
HETATM   10  C   UNL     1       8.767  13.053  22.572  0.00  0.00     0.069 C 
ENDROOT
BRANCH   8  11
HETATM   11  C   UNL     1       6.553  11.075  20.084  0.00  0.00     0.260 C 
HETATM   12  O   UNL     1       6.937  11.232  18.918  0.00  0.00    -0.267 OA
HETATM   13  N   UNL     1       5.654  10.041  20.458  0.00  0.00    -0.318 N 
HETATM   14  C   UNL     1       5.050   9.912  21.783  0.00  0.00     0.159 C 
BRANCH  13  15
HETATM   15  C   UNL     1       5.251   9.049  19.471  0.00  0.00     0.037 A 
HETATM   16  C   UNL     1       4.309   9.348  18.484  0.00  0.00     0.032 A 
HETATM   17  C   UNL     1       3.850   8.378  17.580  0.00  0.00     0.031 A 
HETATM   18  C   UNL     1       4.305   7.058  17.601  0.00  0.00     0.030 A 
HETATM   19  C   UNL     1       5.318   6.779  18.526  0.00  0.00     0.031 A 
HETATM   20  C   UNL     1       5.784   7.753  19.442  0.00  0.00     0.032 A 
BRANCH  18  21
HETATM   21  N   UNL     1       3.758   6.111  16.757  0.00  0.00    -0.377 N 
HETATM   22  C   UNL     1       3.347   4.760  17.164  0.00  0.00     0.149 C 
HETATM   23  C   UNL     1       1.855   4.544  16.866  0.00  0.00     0.187 C 
HETATM   24  O   UNL     1       1.546   4.807  15.486  0.00  0.00    -0.388 OA
HETATM   25  C   UNL     1       1.878   6.167  15.159  0.00  0.00     0.187 C 
HETATM   26  C   UNL     1       3.372   6.458  15.375  0.00  0.00     0.149 C 
ENDBRANCH  18  21
ENDBRANCH  13  15
ENDBRANCH   8  11
BRANCH   9  27
HETATM   27  O   UNL     1       9.245  11.024  21.549  0.00  0.00    -0.360 OA
HETATM   28  H   UNL     1      10.140  11.403  21.626  0.00  0.00     0.217 HD
ENDBRANCH   9  27
BRANCH   1  29
HETATM   29  C   UNL     1       4.356  15.291  23.307  0.00  0.00     0.066 C 
BRANCH  29  30
HETATM   30  C   UNL     1       3.423  14.162  23.784  0.00  0.00    -0.009 C 
HETATM   31  C   UNL     1       2.700  13.495  22.598  0.00  0.00     0.005 C 
HETATM   32  C   UNL     1       1.351  13.070  23.157  0.00  0.00     0.000 C 
HETATM   33  C   UNL     1       0.986  14.226  24.071  0.00  0.00     0.000 C 
HETATM   34  C   UNL     1       2.300  14.602  24.746  0.00  0.00     0.005 C 
ENDBRANCH  29  30
ENDBRANCH   1  29
TORSDOF 6
ENDMDL
MODEL 2
REMARK VINA RESULT:    -7.809      1.811      3.979
REMARK INTER + INTRA:         -11.721
REMARK INTER:                 -10.295
REMARK INTRA:                  -1.426
REMARK UNBOUND:                -1.401
REMARK  6 active torsions:
REMARK  status: ('A' for Active; 'I' for Inactive)
REMARK    1  A    between atoms: C_5  and  C_6 
REMARK    2  A    between atoms: C_6  and  C_7 
REMARK    3  A    between atoms: C_14  and  C_18 
REMARK    4  A    between atoms: C_15  and  O_17 
REMARK       I    between atoms: C_18  and  N_20 
REMARK    5  A    between atoms: N_20  and  C_22 
REMARK    6  A    between atoms: C_25  and  N_28 
ROOT
HETATM    1  C   UNL     1       8.020  14.787  22.040  0.00  0.00     0.067 A 
HETATM    2  N   UNL     1       7.829  15.848  22.844  0.00  0.00    -0.178 NA
HETATM    3  N   UNL     1       6.574  15.695  23.293  0.00  0.00    -0.277 N 
HETATM    4  H   UNL     1       6.194  16.408  23.904  0.00  0.00     0.189 HD
HETATM    5  C   UNL     1       6.883  13.927  22.034  0.00  0.00     0.019 A 
HETATM    6  C   UNL     1       5.934  14.592  22.795  0.00  0.00     0.065 A 
HETATM    7  C   UNL     1       6.518  12.708  21.427  0.00  0.00     0.035 C 
HETATM    8  C   UNL     1       5.171  12.256  21.461  0.00  0.00     0.066 C 
HETATM    9  C   UNL     1       4.235  13.040  22.146  0.00  0.00     0.083 C 
HETATM   10  C   UNL     1       4.609  14.158  22.907  0.00  0.00     0.069 C 
ENDROOT
BRANCH   8  11
HETATM   11  C   UNL     1       4.885  11.087  20.563  0.00  0.00     0.260 C 
HETATM   12  O   UNL     1       4.096  11.372  19.654  0.00  0.00    -0.267 OA
HETATM   13  N   UNL     1       5.420   9.782  20.727  0.00  0.00    -0.318 N 
HETATM   14  C   UNL     1       6.224   9.357  21.872  0.00  0.00     0.159 C 
BRANCH  13  15
HETATM   15  C   UNL     1       5.135   8.759  19.731  0.00  0.00     0.037 A 
HETATM   16  C   UNL     1       5.654   8.840  18.437  0.00  0.00     0.032 A 
HETATM   17  C   UNL     1       5.320   7.906  17.445  0.00  0.00     0.031 A 
HETATM   18  C   UNL     1       4.457   6.835  17.682  0.00  0.00     0.030 A 
HETATM   19  C   UNL     1       4.011   6.696  19.001  0.00  0.00     0.031 A 
HETATM   20  C   UNL     1       4.342   7.635  20.008  0.00  0.00     0.032 A 
BRANCH  18  21
HETATM   21  N   UNL     1       4.078   5.994  16.654  0.00  0.00    -0.377 N 
HETATM   22  C   UNL     1       3.920   4.539  16.773  0.00  0.00     0.149 C 
HETATM   23  C   UNL     1       2.488   4.124  16.402  0.00  0.00     0.187 C 
HETATM   24  O   UNL     1       2.120   4.600  15.095  0.00  0.00    -0.388 OA
HETATM   25  C   UNL     1       2.199   6.034  15.053  0.00  0.00     0.187 C 
HETATM   26  C   UNL     1       3.620   6.537  15.360  0.00  0.00     0.149 C 
ENDBRANCH  18  21
ENDBRANCH  13  15
ENDBRANCH   8  11
BRANCH   9  27
HETATM   27  O   UNL     1       2.881  12.864  22.052  0.00  0.00    -0.360 OA
HETATM   28  H   UNL     1       2.467  13.632  22.487  0.00  0.00     0.217 HD
ENDBRANCH   9  27
BRANCH   1  29
HETATM   29  C   UNL     1       9.306  14.686  21.274  0.00  0.00     0.066 C 
BRANCH  29  30
HETATM   30  C   UNL     1      10.291  13.618  21.785  0.00  0.00    -0.009 C 
HETATM   31  C   UNL     1      10.218  12.335  20.933  0.00  0.00     0.005 C 
HETATM   32  C   UNL     1      10.526  11.207  21.905  0.00  0.00     0.000 C 
HETATM   33  C   UNL     1       9.811  11.647  23.169  0.00  0.00     0.000 C 
HETATM   34  C   UNL     1      10.056  13.151  23.236  0.00  0.00     0.005 C 
ENDBRANCH  29  30
ENDBRANCH   1  29
TORSDOF 6
ENDMDL
MODEL 3
REMARK VINA RESULT:    -7.686      2.968      5.433
REMARK INTER + INTRA:         -11.558
REMARK INTER:                 -10.440
REMARK INTRA:                  -1.118
REMARK UNBOUND:                -1.401
REMARK  6 active torsions:
REMARK  status: ('A' for Active; 'I' for Inactive)
REMARK    1  A    between atoms: C_5  and  C_6 
REMARK    2  A    between atoms: C_6  and  C_7 
REMARK    3  A    between atoms: C_14  and  C_18 
REMARK    4  A    between atoms: C_15  and  O_17 
REMARK       I    between atoms: C_18  and  N_20 
REMARK    5  A    between atoms: N_20  and  C_22 
REMARK    6  A    between atoms: C_25  and  N_28 
ROOT
HETATM    1  C   UNL     1      10.273  13.639  25.942  0.00  0.00     0.067 A 
HETATM    2  N   UNL     1      10.279  14.664  26.814  0.00  0.00    -0.178 NA
HETATM    3  N   UNL     1       9.148  15.332  26.540  0.00  0.00    -0.277 N 
HETATM    4  H   UNL     1       8.952  16.176  27.064  0.00  0.00     0.189 HD
HETATM    5  C   UNL     1       9.087  13.636  25.151  0.00  0.00     0.019 A 
HETATM    6  C   UNL     1       8.420  14.796  25.512  0.00  0.00     0.065 A 
HETATM    7  C   UNL     1       8.532  12.836  24.132  0.00  0.00     0.035 C 
HETATM    8  C   UNL     1       7.410  13.286  23.387  0.00  0.00     0.066 C 
HETATM    9  C   UNL     1       6.856  14.527  23.722  0.00  0.00     0.083 C 
HETATM   10  C   UNL     1       7.278  15.255  24.846  0.00  0.00     0.069 C 
ENDROOT
BRANCH   8  11
HETATM   11  C   UNL     1       7.093  12.454  22.177  0.00  0.00     0.260 C 
HETATM   12  O   UNL     1       7.991  12.495  21.327  0.00  0.00    -0.267 OA
HETATM   13  N   UNL     1       5.895  11.716  21.986  0.00  0.00    -0.318 N 
HETATM   14  C   UNL     1       4.742  11.765  22.883  0.00  0.00     0.159 C 
BRANCH  13  15
HETATM   15  C   UNL     1       5.751  10.875  20.806  0.00  0.00     0.037 A 
HETATM   16  C   UNL     1       5.306  11.399  19.590  0.00  0.00     0.032 A 
HETATM   17  C   UNL     1       5.084  10.585  18.469  0.00  0.00     0.031 A 
HETATM   18  C   UNL     1       5.296   9.205  18.490  0.00  0.00     0.030 A 
HETATM   19  C   UNL     1       5.832   8.691  19.676  0.00  0.00     0.031 A 
HETATM   20  C   UNL     1       6.057   9.507  20.812  0.00  0.00     0.032 A 
BRANCH  18  21
HETATM   21  N   UNL     1       4.973   8.426  17.396  0.00  0.00    -0.377 N 
HETATM   22  C   UNL     1       5.435   7.048  17.179  0.00  0.00     0.149 C 
HETATM   23  C   UNL     1       4.236   6.097  17.047  0.00  0.00     0.187 C 
HETATM   24  O   UNL     1       3.328   6.528  16.018  0.00  0.00    -0.388 OA
HETATM   25  C   UNL     1       2.830   7.843  16.319  0.00  0.00     0.187 C 
HETATM   26  C   UNL     1       3.965   8.875  16.415  0.00  0.00     0.149 C 
ENDBRANCH  18  21
ENDBRANCH  13  15
ENDBRANCH   8  11
BRANCH   9  27
HETATM   27  O   UNL     1       5.948  15.192  22.944  0.00  0.00    -0.360 OA
HETATM   28  H   UNL     1       6.398  15.404  22.105  0.00  0.00     0.217 HD
ENDBRANCH   9  27
BRANCH   1  29
HETATM   29  C   UNL     1      11.462  12.726  25.896  0.00  0.00     0.066 C 
BRANCH  29  30
HETATM   30  C   UNL     1      12.636  13.221  25.032  0.00  0.00    -0.009 C 
HETATM   31  C   UNL     1      13.470  14.284  25.774  0.00  0.00     0.005 C 
HETATM   32  C   UNL     1      13.982  15.207  24.681  0.00  0.00     0.000 C 
HETATM   33  C   UNL     1      12.797  15.300  23.736  0.00  0.00     0.000 C 
HETATM   34  C   UNL     1      12.235  13.884  23.698  0.00  0.00     0.005 C 
ENDBRANCH  29  30
ENDBRANCH   1  29
TORSDOF 6
ENDMDL
MODEL 4
REMARK VINA RESULT:    -7.664      1.687      2.263
REMARK INTER + INTRA:         -11.529
REMARK INTER:                 -10.356
REMARK INTRA:                  -1.173
REMARK UNBOUND:                -1.401
REMARK  6 active torsions:
REMARK  status: ('A' for Active; 'I' for Inactive)
REMARK    1  A    between atoms: C_5  and  C_6 
REMARK    2  A    between atoms: C_6  and  C_7 
REMARK    3  A    between atoms: C_14  and  C_18 
REMARK    4  A    between atoms: C_15  and  O_17 
REMARK       I    between atoms: C_18  and  N_20 
REMARK    5  A    between atoms: N_20  and  C_22 
REMARK    6  A    between atoms: C_25  and  N_28 
ROOT
HETATM    1  C   UNL     1       4.435  12.820  23.461  0.00  0.00     0.067 A 
HETATM    2  N   UNL     1       5.177  13.735  24.111  0.00  0.00    -0.178 NA
HETATM    3  N   UNL     1       6.241  13.918  23.314  0.00  0.00    -0.277 N 
HETATM    4  H   UNL     1       6.965  14.556  23.622  0.00  0.00     0.189 HD
HETATM    5  C   UNL     1       5.021  12.469  22.210  0.00  0.00     0.019 A 
HETATM    6  C   UNL     1       6.233  13.141  22.187  0.00  0.00     0.065 A 
HETATM    7  C   UNL     1       4.709  11.619  21.130  0.00  0.00     0.035 C 
HETATM    8  C   UNL     1       5.675  11.334  20.128  0.00  0.00     0.066 C 
HETATM    9  C   UNL     1       6.926  11.953  20.231  0.00  0.00     0.083 C 
HETATM   10  C   UNL     1       7.196  12.939  21.193  0.00  0.00     0.069 C 
ENDROOT
BRANCH   8  11
HETATM   11  C   UNL     1       5.292  10.223  19.193  0.00  0.00     0.260 C 
HETATM   12  O   UNL     1       5.880   9.165  19.451  0.00  0.00    -0.267 OA
HETATM   13  N   UNL     1       4.386  10.346  18.108  0.00  0.00    -0.318 N 
HETATM   14  C   UNL     1       3.793  11.607  17.665  0.00  0.00     0.159 C 
BRANCH  13  15
HETATM   15  C   UNL     1       4.030   9.166  17.332  0.00  0.00     0.037 A 
HETATM   16  C   UNL     1       2.782   8.554  17.472  0.00  0.00     0.032 A 
HETATM   17  C   UNL     1       2.458   7.370  16.793  0.00  0.00     0.031 A 
HETATM   18  C   UNL     1       3.351   6.729  15.932  0.00  0.00     0.030 A 
HETATM   19  C   UNL     1       4.565   7.390  15.715  0.00  0.00     0.031 A 
HETATM   20  C   UNL     1       4.900   8.585  16.399  0.00  0.00     0.032 A 
BRANCH  18  21
HETATM   21  N   UNL     1       3.029   5.515  15.358  0.00  0.00    -0.377 N 
HETATM   22  C   UNL     1       2.512   4.351  16.089  0.00  0.00     0.149 C 
HETATM   23  C   UNL     1       1.145   3.931  15.528  0.00  0.00     0.187 C 
HETATM   24  O   UNL     1       1.204   3.692  14.110  0.00  0.00    -0.388 OA
HETATM   25  C   UNL     1       1.625   4.885  13.428  0.00  0.00     0.187 C 
HETATM   26  C   UNL     1       3.016   5.348  13.891  0.00  0.00     0.149 C 
ENDBRANCH  18  21
ENDBRANCH  13  15
ENDBRANCH   8  11
BRANCH   9  27
HETATM   27  O   UNL     1       8.020  11.587  19.494  0.00  0.00    -0.360 OA
HETATM   28  H   UNL     1       8.481  10.892  19.999  0.00  0.00     0.217 HD
ENDBRANCH   9  27
BRANCH   1  29
HETATM   29  C   UNL     1       3.196  12.295  24.123  0.00  0.00     0.066 C 
BRANCH  29  30
HETATM   30  C   UNL     1       1.893  13.024  23.746  0.00  0.00    -0.009 C 
HETATM   31  C   UNL     1       1.576  12.867  22.246  0.00  0.00     0.005 C 
HETATM   32  C   UNL     1       0.871  14.158  21.862  0.00  0.00     0.000 C 
HETATM   33  C   UNL     1       1.635  15.206  22.651  0.00  0.00     0.000 C 
HETATM   34  C   UNL     1       1.895  14.545  24.000  0.00  0.00     0.005 C 
ENDBRANCH  29  30
ENDBRANCH   1  29
TORSDOF 6
ENDMDL
MODEL 5
REMARK VINA RESULT:    -7.528      2.846      9.577
REMARK INTER + INTRA:         -11.349
REMARK INTER:                  -9.826
REMARK INTRA:                  -1.523
REMARK UNBOUND:                -1.401
REMARK  6 active torsions:
REMARK  status: ('A' for Active; 'I' for Inactive)
REMARK    1  A    between atoms: C_5  and  C_6 
REMARK    2  A    between atoms: C_6  and  C_7 
REMARK    3  A    between atoms: C_14  and  C_18 
REMARK    4  A    between atoms: C_15  and  O_17 
REMARK       I    between atoms: C_18  and  N_20 
REMARK    5  A    between atoms: N_20  and  C_22 
REMARK    6  A    between atoms: C_25  and  N_28 
ROOT
HETATM    1  C   UNL     1       4.920   6.594  17.497  0.00  0.00     0.067 A 
HETATM    2  N   UNL     1       3.946   6.254  16.634  0.00  0.00    -0.178 NA
HETATM    3  N   UNL     1       3.406   7.428  16.273  0.00  0.00    -0.277 N 
HETATM    4  H   UNL     1       2.617   7.416  15.638  0.00  0.00     0.189 HD
HETATM    5  C   UNL     1       5.027   8.009  17.630  0.00  0.00     0.019 A 
HETATM    6  C   UNL     1       3.973   8.513  16.884  0.00  0.00     0.065 A 
HETATM    7  C   UNL     1       5.837   8.917  18.340  0.00  0.00     0.035 C 
HETATM    8  C   UNL     1       5.488  10.293  18.418  0.00  0.00     0.066 C 
HETATM    9  C   UNL     1       4.340  10.716  17.739  0.00  0.00     0.083 C 
HETATM   10  C   UNL     1       3.623   9.867  16.881  0.00  0.00     0.069 C 
ENDROOT
BRANCH   8  11
HETATM   11  C   UNL     1       6.293  11.082  19.411  0.00  0.00     0.260 C 
HETATM   12  O   UNL     1       7.348  11.511  18.929  0.00  0.00    -0.267 OA
HETATM   13  N   UNL     1       5.926  11.306  20.764  0.00  0.00    -0.318 N 
HETATM   14  C   UNL     1       4.775  10.689  21.421  0.00  0.00     0.159 C 
BRANCH  13  15
HETATM   15  C   UNL     1       6.751  12.168  21.599  0.00  0.00     0.037 A 
HETATM   16  C   UNL     1       6.448  13.521  21.768  0.00  0.00     0.032 A 
HETATM   17  C   UNL     1       7.280  14.381  22.500  0.00  0.00     0.031 A 
HETATM   18  C   UNL     1       8.457  13.945  23.112  0.00  0.00     0.030 A 
HETATM   19  C   UNL     1       8.714  12.572  23.025  0.00  0.00     0.031 A 
HETATM   20  C   UNL     1       7.880  11.699  22.286  0.00  0.00     0.032 A 
BRANCH  18  21
HETATM   21  N   UNL     1       9.298  14.842  23.742  0.00  0.00    -0.377 N 
HETATM   22  C   UNL     1       9.427  14.993  25.198  0.00  0.00     0.149 C 
HETATM   23  C   UNL     1      10.879  14.745  25.633  0.00  0.00     0.187 C 
HETATM   24  O   UNL     1      11.799  15.592  24.921  0.00  0.00    -0.388 OA
HETATM   25  C   UNL     1      11.703  15.343  23.509  0.00  0.00     0.187 C 
HETATM   26  C   UNL     1      10.289  15.621  22.974  0.00  0.00     0.149 C 
ENDBRANCH  18  21
ENDBRANCH  13  15
ENDBRANCH   8  11
BRANCH   9  27
HETATM   27  O   UNL     1       3.752  11.938  17.926  0.00  0.00    -0.360 OA
HETATM   28  H   UNL     1       4.347  12.600  17.530  0.00  0.00     0.217 HD
ENDBRANCH   9  27
BRANCH   1  29
HETATM   29  C   UNL     1       5.682   5.503  18.189  0.00  0.00     0.066 C 
BRANCH  29  30
HETATM   30  C   UNL     1       5.412   5.371  19.700  0.00  0.00    -0.009 C 
HETATM   31  C   UNL     1       4.083   6.047  20.092  0.00  0.00     0.005 C 
HETATM   32  C   UNL     1       4.312   6.560  21.505  0.00  0.00     0.000 C 
HETATM   33  C   UNL     1       5.746   7.055  21.455  0.00  0.00     0.000 C 
HETATM   34  C   UNL     1       6.475   6.013  20.615  0.00  0.00     0.005 C 
ENDBRANCH  29  30
ENDBRANCH   1  29
TORSDOF 6
ENDMDL
MODEL 6
REMARK VINA RESULT:    -7.500      1.439      2.124
REMARK INTER + INTRA:         -11.312
REMARK INTER:                 -10.995
REMARK INTRA:                  -0.317
REMARK UNBOUND:                -1.401
REMARK  6 active torsions:
REMARK  status: ('A' for Active; 'I' for Inactive)
REMARK    1  A    between atoms: C_5  and  C_6 
REMARK    2  A    between atoms: C_6  and  C_7 
REMARK    3  A    between atoms: C_14  and  C_18 
REMARK    4  A    between atoms: C_15  and  O_17 
REMARK       I    between atoms: C_18  and  N_20 
REMARK    5  A    between atoms: N_20  and  C_22 
REMARK    6  A    between atoms: C_25  and  N_28 
ROOT
HETATM    1  C   UNL     1       8.219  14.981  24.029  0.00  0.00     0.067 A 
HETATM    2  N   UNL     1       9.348  15.440  24.599  0.00  0.00    -0.178 NA
HETATM    3  N   UNL     1      10.330  14.866  23.886  0.00  0.00    -0.277 N 
HETATM    4  H   UNL     1      11.288  15.047  24.159  0.00  0.00     0.189 HD
HETATM    5  C   UNL     1       8.503  14.153  22.904  0.00  0.00     0.019 A 
HETATM    6  C   UNL     1       9.884  14.036  22.893  0.00  0.00     0.065 A 
HETATM    7  C   UNL     1       7.764  13.436  21.941  0.00  0.00     0.035 C 
HETATM    8  C   UNL     1       8.404  12.498  21.087  0.00  0.00     0.066 C 
HETATM    9  C   UNL     1       9.789  12.339  21.211  0.00  0.00     0.083 C 
HETATM   10  C   UNL     1      10.567  13.168  22.034  0.00  0.00     0.069 C 
ENDROOT
BRANCH   8  11
HETATM   11  C   UNL     1       7.462  11.633  20.299  0.00  0.00     0.260 C 
HETATM   12  O   UNL     1       7.670  11.696  19.081  0.00  0.00    -0.267 OA
HETATM   13  N   UNL     1       6.422  10.842  20.855  0.00  0.00    -0.318 N 
HETATM   14  C   UNL     1       6.035  10.859  22.265  0.00  0.00     0.159 C 
BRANCH  13  15
HETATM   15  C   UNL     1       5.637   9.975  19.987  0.00  0.00     0.037 A 
HETATM   16  C   UNL     1       5.064  10.455  18.807  0.00  0.00     0.032 A 
HETATM   17  C   UNL     1       4.237   9.653  18.006  0.00  0.00     0.031 A 
HETATM   18  C   UNL     1       3.938   8.328  18.327  0.00  0.00     0.030 A 
HETATM   19  C   UNL     1       4.586   7.815  19.456  0.00  0.00     0.031 A 
HETATM   20  C   UNL     1       5.421   8.619  20.271  0.00  0.00     0.032 A 
BRANCH  18  21
HETATM   21  N   UNL     1       3.044   7.603  17.564  0.00  0.00    -0.377 N 
HETATM   22  C   UNL     1       2.901   7.712  16.106  0.00  0.00     0.149 C 
HETATM   23  C   UNL     1       3.150   6.350  15.441  0.00  0.00     0.187 C 
HETATM   24  O   UNL     1       2.298   5.329  15.989  0.00  0.00    -0.388 OA
HETATM   25  C   UNL     1       2.538   5.193  17.400  0.00  0.00     0.187 C 
HETATM   26  C   UNL     1       2.259   6.502  18.156  0.00  0.00     0.149 C 
ENDBRANCH  18  21
ENDBRANCH  13  15
ENDBRANCH   8  11
BRANCH   9  27
HETATM   27  O   UNL     1      10.491  11.311  20.641  0.00  0.00    -0.360 OA
HETATM   28  H   UNL     1      10.157  11.212  19.731  0.00  0.00     0.217 HD
ENDBRANCH   9  27
BRANCH   1  29
HETATM   29  C   UNL     1       6.902  15.346  24.646  0.00  0.00     0.066 C 
BRANCH  29  30
HETATM   30  C   UNL     1       5.660  14.930  23.834  0.00  0.00    -0.009 C 
HETATM   31  C   UNL     1       4.646  16.086  23.731  0.00  0.00     0.005 C 
HETATM   32  C   UNL     1       3.287  15.405  23.687  0.00  0.00     0.000 C 
HETATM   33  C   UNL     1       3.451  14.262  24.672  0.00  0.00     0.000 C 
HETATM   34  C   UNL     1       4.863  13.745  24.416  0.00  0.00     0.005 C 
ENDBRANCH  29  30
ENDBRANCH   1  29
TORSDOF 6
ENDMDL
MODEL 7
REMARK VINA RESULT:    -7.483      2.566      4.235
REMARK INTER + INTRA:         -11.290
REMARK INTER:                 -10.205
REMARK INTRA:                  -1.085
REMARK UNBOUND:                -1.401
REMARK  6 active torsions:
REMARK  status: ('A' for Active; 'I' for Inactive)
REMARK    1  A    between atoms: C_5  and  C_6 
REMARK    2  A    between atoms: C_6  and  C_7 
REMARK    3  A    between atoms: C_14  and  C_18 
REMARK    4  A    between atoms: C_15  and  O_17 
REMARK       I    between atoms: C_18  and  N_20 
REMARK    5  A    between atoms: N_20  and  C_22 
REMARK    6  A    between atoms: C_25  and  N_28 
ROOT
HETATM    1  C   UNL     1       9.656  14.020  24.851  0.00  0.00     0.067 A 
HETATM    2  N   UNL     1       9.458  14.875  25.870  0.00  0.00    -0.178 NA
HETATM    3  N   UNL     1       8.227  14.577  26.311  0.00  0.00    -0.277 N 
HETATM    4  H   UNL     1       7.846  15.126  27.073  0.00  0.00     0.189 HD
HETATM    5  C   UNL     1       8.551  13.133  24.693  0.00  0.00     0.019 A 
HETATM    6  C   UNL     1       7.608  13.580  25.606  0.00  0.00     0.065 A 
HETATM    7  C   UNL     1       8.206  12.059  23.849  0.00  0.00     0.035 C 
HETATM    8  C   UNL     1       6.878  11.553  23.825  0.00  0.00     0.066 C 
HETATM    9  C   UNL     1       5.941  12.132  24.688  0.00  0.00     0.083 C 
HETATM   10  C   UNL     1       6.304  13.077  25.661  0.00  0.00     0.069 C 
ENDROOT
BRANCH   8  11
HETATM   11  C   UNL     1       6.600  10.592  22.704  0.00  0.00     0.260 C 
HETATM   12  O   UNL     1       6.994   9.447  22.956  0.00  0.00    -0.267 OA
HETATM   13  N   UNL     1       5.982  10.933  21.472  0.00  0.00    -0.318 N 
HETATM   14  C   UNL     1       5.646  12.296  21.065  0.00  0.00     0.159 C 
BRANCH  13  15
HETATM   15  C   UNL     1       5.686   9.885  20.504  0.00  0.00     0.037 A 
HETATM   16  C   UNL     1       6.117   9.979  19.179  0.00  0.00     0.032 A 
HETATM   17  C   UNL     1       5.768   9.019  18.217  0.00  0.00     0.031 A 
HETATM   18  C   UNL     1       4.977   7.908  18.518  0.00  0.00     0.030 A 
HETATM   19  C   UNL     1       4.624   7.761  19.864  0.00  0.00     0.031 A 
HETATM   20  C   UNL     1       4.971   8.727  20.840  0.00  0.00     0.032 A 
BRANCH  18  21
HETATM   21  N   UNL     1       4.576   7.038  17.523  0.00  0.00    -0.377 N 
HETATM   22  C   UNL     1       4.279   5.613  17.721  0.00  0.00     0.149 C 
HETATM   23  C   UNL     1       2.836   5.304  17.294  0.00  0.00     0.187 C 
HETATM   24  O   UNL     1       2.581   5.723  15.942  0.00  0.00    -0.388 OA
HETATM   25  C   UNL     1       2.794   7.139  15.817  0.00  0.00     0.187 C 
HETATM   26  C   UNL     1       4.237   7.533  16.174  0.00  0.00     0.149 C 
ENDBRANCH  18  21
ENDBRANCH  13  15
ENDBRANCH   8  11
BRANCH   9  27
HETATM   27  O   UNL     1       4.591  11.923  24.598  0.00  0.00    -0.360 OA
HETATM   28  H   UNL     1       4.238  11.968  25.506  0.00  0.00     0.217 HD
ENDBRANCH   9  27
BRANCH   1  29
HETATM   29  C   UNL     1      10.915  14.139  24.044  0.00  0.00     0.066 C 
BRANCH  29  30
HETATM   30  C   UNL     1      10.749  14.806  22.665  0.00  0.00    -0.009 C 
HETATM   31  C   UNL     1       9.922  16.102  22.765  0.00  0.00     0.005 C 
HETATM   32  C   UNL     1       9.177  16.190  21.443  0.00  0.00     0.000 C 
HETATM   33  C   UNL     1       8.801  14.744  21.172  0.00  0.00     0.000 C 
HETATM   34  C   UNL     1      10.028  13.949  21.605  0.00  0.00     0.005 C 
ENDBRANCH  29  30
ENDBRANCH   1  29
TORSDOF 6
ENDMDL
MODEL 8
REMARK VINA RESULT:    -7.443      5.446      7.797
REMARK INTER + INTRA:         -11.237
REMARK INTER:                  -9.836
REMARK INTRA:                  -1.401
REMARK UNBOUND:                -1.401
REMARK  6 active torsions:
REMARK  status: ('A' for Active; 'I' for Inactive)
REMARK    1  A    between atoms: C_5  and  C_6 
REMARK    2  A    between atoms: C_6  and  C_7 
REMARK    3  A    between atoms: C_14  and  C_18 
REMARK    4  A    between atoms: C_15  and  O_17 
REMARK       I    between atoms: C_18  and  N_20 
REMARK    5  A    between atoms: N_20  and  C_22 
REMARK    6  A    between atoms: C_25  and  N_28 
ROOT
HETATM    1  C   UNL     1       8.273  12.492  21.936  0.00  0.00     0.067 A 
HETATM    2  N   UNL     1       8.871  12.604  20.736  0.00  0.00    -0.178 NA
HETATM    3  N   UNL     1       8.071  11.914  19.908  0.00  0.00    -0.277 N 
HETATM    4  H   UNL     1       8.344  11.834  18.936  0.00  0.00     0.189 HD
HETATM    5  C   UNL     1       7.049  11.768  21.843  0.00  0.00     0.019 A 
HETATM    6  C   UNL     1       6.993  11.339  20.526  0.00  0.00     0.065 A 
HETATM    7  C   UNL     1       6.021  11.367  22.720  0.00  0.00     0.035 C 
HETATM    8  C   UNL     1       5.044  10.421  22.308  0.00  0.00     0.066 C 
HETATM    9  C   UNL     1       5.117   9.934  20.998  0.00  0.00     0.083 C 
HETATM   10  C   UNL     1       6.019  10.452  20.056  0.00  0.00     0.069 C 
ENDROOT
BRANCH   8  11
HETATM   11  C   UNL     1       4.176   9.901  23.418  0.00  0.00     0.260 C 
HETATM   12  O   UNL     1       3.208  10.637  23.644  0.00  0.00    -0.267 OA
HETATM   13  N   UNL     1       4.425   8.718  24.162  0.00  0.00    -0.318 N 
HETATM   14  C   UNL     1       5.634   7.905  24.041  0.00  0.00     0.159 C 
BRANCH  13  15
HETATM   15  C   UNL     1       3.453   8.275  25.153  0.00  0.00     0.037 A 
HETATM   16  C   UNL     1       3.687   8.435  26.520  0.00  0.00     0.032 A 
HETATM   17  C   UNL     1       2.798   7.938  27.486  0.00  0.00     0.031 A 
HETATM   18  C   UNL     1       1.624   7.261  27.148  0.00  0.00     0.030 A 
HETATM   19  C   UNL     1       1.340   7.184  25.780  0.00  0.00     0.031 A 
HETATM   20  C   UNL     1       2.233   7.681  24.800  0.00  0.00     0.032 A 
BRANCH  18  21
HETATM   21  N   UNL     1       0.826   6.704  28.128  0.00  0.00    -0.377 N 
HETATM   22  C   UNL     1       0.670   5.262  28.366  0.00  0.00     0.149 C 
HETATM   23  C   UNL     1       1.084   4.910  29.803  0.00  0.00     0.187 C 
HETATM   24  O   UNL     1       0.365   5.696  30.770  0.00  0.00    -0.388 OA
HETATM   25  C   UNL     1       0.621   7.094  30.557  0.00  0.00     0.187 C 
HETATM   26  C   UNL     1       0.183   7.548  29.154  0.00  0.00     0.149 C 
ENDBRANCH  18  21
ENDBRANCH  13  15
ENDBRANCH   8  11
BRANCH   9  27
HETATM   27  O   UNL     1       4.410   8.851  20.548  0.00  0.00    -0.360 OA
HETATM   28  H   UNL     1       3.731   9.193  19.937  0.00  0.00     0.217 HD
ENDBRANCH   9  27
BRANCH   1  29
HETATM   29  C   UNL     1       8.959  13.070  23.139  0.00  0.00     0.066 C 
BRANCH  29  30
HETATM   30  C   UNL     1       8.415  14.431  23.612  0.00  0.00    -0.009 C 
HETATM   31  C   UNL     1       7.382  14.260  24.743  0.00  0.00     0.005 C 
HETATM   32  C   UNL     1       6.404  15.408  24.553  0.00  0.00     0.000 C 
HETATM   33  C   UNL     1       6.276  15.493  23.042  0.00  0.00     0.000 C 
HETATM   34  C   UNL     1       7.693  15.260  22.530  0.00  0.00     0.005 C 
ENDBRANCH  29  30
ENDBRANCH   1  29
TORSDOF 6
ENDMDL
MODEL 9
REMARK VINA RESULT:    -7.442      5.386      7.493
REMARK INTER + INTRA:         -11.236
REMARK INTER:                  -9.915
REMARK INTRA:                  -1.321
REMARK UNBOUND:                -1.401
REMARK  6 active torsions:
REMARK  status: ('A' for Active; 'I' for Inactive)
REMARK    1  A    between atoms: C_5  and  C_6 
REMARK    2  A    between atoms: C_6  and  C_7 
REMARK    3  A    between atoms: C_14  and  C_18 
REMARK    4  A    between atoms: C_15  and  O_17 
REMARK       I    between atoms: C_18  and  N_20 
REMARK    5  A    between atoms: N_20  and  C_22 
REMARK    6  A    between atoms: C_25  and  N_28 
ROOT
HETATM    1  C   UNL     1      11.283  14.693  22.891  0.00  0.00     0.067 A 
HETATM    2  N   UNL     1      11.529  15.810  22.182  0.00  0.00    -0.178 NA
HETATM    3  N   UNL     1      10.309  16.285  21.888  0.00  0.00    -0.277 N 
HETATM    4  H   UNL     1      10.246  17.122  21.321  0.00  0.00     0.189 HD
HETATM    5  C   UNL     1       9.884  14.502  23.091  0.00  0.00     0.019 A 
HETATM    6  C   UNL     1       9.282  15.510  22.355  0.00  0.00     0.065 A 
HETATM    7  C   UNL     1       9.057  13.566  23.743  0.00  0.00     0.035 C 
HETATM    8  C   UNL     1       7.653  13.561  23.522  0.00  0.00     0.066 C 
HETATM    9  C   UNL     1       7.122  14.534  22.668  0.00  0.00     0.083 C 
HETATM   10  C   UNL     1       7.900  15.583  22.154  0.00  0.00     0.069 C 
ENDROOT
BRANCH   8  11
HETATM   11  C   UNL     1       6.941  12.359  24.074  0.00  0.00     0.260 C 
HETATM   12  O   UNL     1       6.785  12.425  25.300  0.00  0.00    -0.267 OA
HETATM   13  N   UNL     1       6.510  11.243  23.309  0.00  0.00    -0.318 N 
HETATM   14  C   UNL     1       6.813  11.046  21.893  0.00  0.00     0.159 C 
BRANCH  13  15
HETATM   15  C   UNL     1       5.748  10.183  23.954  0.00  0.00     0.037 A 
HETATM   16  C   UNL     1       4.487  10.425  24.503  0.00  0.00     0.032 A 
HETATM   17  C   UNL     1       3.779   9.434  25.199  0.00  0.00     0.031 A 
HETATM   18  C   UNL     1       4.280   8.143  25.383  0.00  0.00     0.030 A 
HETATM   19  C   UNL     1       5.499   7.869  24.753  0.00  0.00     0.031 A 
HETATM   20  C   UNL     1       6.220   8.866  24.050  0.00  0.00     0.032 A 
BRANCH  18  21
HETATM   21  N   UNL     1       3.596   7.226  26.157  0.00  0.00    -0.377 N 
HETATM   22  C   UNL     1       3.809   7.012  27.594  0.00  0.00     0.149 C 
HETATM   23  C   UNL     1       2.505   7.252  28.370  0.00  0.00     0.187 C 
HETATM   24  O   UNL     1       1.429   6.444  27.861  0.00  0.00    -0.388 OA
HETATM   25  C   UNL     1       1.194   6.753  26.477  0.00  0.00     0.187 C 
HETATM   26  C   UNL     1       2.438   6.488  25.613  0.00  0.00     0.149 C 
ENDBRANCH  18  21
ENDBRANCH  13  15
ENDBRANCH   8  11
BRANCH   9  27
HETATM   27  O   UNL     1       5.846  14.498  22.172  0.00  0.00    -0.360 OA
HETATM   28  H   UNL     1       5.717  15.322  21.667  0.00  0.00     0.217 HD
ENDBRANCH   9  27
BRANCH   1  29
HETATM   29  C   UNL     1      12.440  13.835  23.309  0.00  0.00     0.066 C 
BRANCH  29  30
HETATM   30  C   UNL     1      12.784  13.884  24.809  0.00  0.00    -0.009 C 
HETATM   31  C   UNL     1      12.105  12.734  25.578  0.00  0.00     0.005 C 
HETATM   32  C   UNL     1      11.825  13.304  26.960  0.00  0.00     0.000 C 
HETATM   33  C   UNL     1      11.407  14.731  26.657  0.00  0.00     0.000 C 
HETATM   34  C   UNL     1      12.348  15.170  25.541  0.00  0.00     0.005 C 
ENDBRANCH  29  30
ENDBRANCH   1  29
TORSDOF 6
ENDMDL
