MODEL 1
REMARK VINA RESULT:    -8.106      0.000      0.000
REMARK INTER + INTRA:         -10.281
REMARK INTER:                  -9.696
REMARK INTRA:                  -0.585
REMARK UNBOUND:                -0.517
REMARK  4 active torsions:
REMARK  status: ('A' for Active; 'I' for Inactive)
REMARK    1  A    between atoms: C_2  and  O_3 
REMARK    2  A    between atoms: O_3  and  C_4 
REMARK       I    between atoms: N_11  and  C_12 
REMARK    3  A    between atoms: C_12  and  C_14 
REMARK    4  A    between atoms: C_16  and  N_17 
ROOT
HETATM    1  C   UNL     1       8.401  13.220  22.791  0.00  0.00     0.140 A 
HETATM    2  N   UNL     1       8.930  12.230  23.547  0.00  0.00    -0.212 NA
HETATM    3  C   UNL     1      10.119  12.474  24.092  0.00  0.00     0.200 A 
HETATM    4  N   UNL     1      10.865  13.548  23.858  0.00  0.00    -0.218 NA
HETATM    5  C   UNL     1      10.353  14.522  23.101  0.00  0.00     0.073 A 
HETATM    6  C   UNL     1      11.158  15.621  22.808  0.00  0.00     0.033 C 
HETATM    7  C   UNL     1      10.706  16.688  22.027  0.00  0.00     0.009 C 
HETATM    8  C   UNL     1       9.394  16.699  21.577  0.00  0.00    -0.061 C 
HETATM    9  C   UNL     1       8.867  17.777  20.680  0.00  0.00     0.048 C 
HETATM   10  C   UNL     1       8.572  15.613  21.894  0.00  0.00     0.023 C 
HETATM   11  C   UNL     1       9.061  14.463  22.580  0.00  0.00     0.028 A 
ENDROOT
BRANCH   1  12
HETATM   12  C   UNL     1       7.107  12.898  22.050  0.00  0.00     0.274 C 
HETATM   13  N   UNL     1       5.844  13.119  22.589  0.00  0.00    -0.338 N 
HETATM   14  C   UNL     1       4.675  12.741  21.786  0.00  0.00     0.165 A 
HETATM   15  C   UNL     1       5.456  13.728  23.864  0.00  0.00     0.165 A 
HETATM   16  C   UNL     1       3.508  13.189  22.601  0.00  0.00    -0.030 A 
HETATM   17  C   UNL     1       3.954  13.770  23.791  0.00  0.00    -0.032 A 
HETATM   18  C   UNL     1       2.156  13.113  22.291  0.00  0.00     0.046 A 
HETATM   19  C   UNL     1       3.040  14.304  24.689  0.00  0.00     0.012 A 
HETATM   20  C   UNL     1       1.671  14.249  24.371  0.00  0.00     0.037 A 
HETATM   21  C   UNL     1       1.222  13.642  23.185  0.00  0.00     0.069 A 
HETATM   22  O   UNL     1       7.162  12.388  20.927  0.00  0.00    -0.266 OA
BRANCH  21  23
HETATM   23  O   UNL     1      -0.083  13.516  22.789  0.00  0.00    -0.352 OA
BRANCH  23  24
HETATM   24  C   UNL     1      -0.962  12.772  23.633  0.00  0.00     0.171 C 
HETATM   25  C   UNL     1      -2.254  12.516  22.872  0.00  0.00     0.034 C 
ENDBRANCH  23  24
ENDBRANCH  21  23
ENDBRANCH   1  12
BRANCH   3  26
HETATM   26  N   UNL     1      10.652  11.539  24.949  0.00  0.00    -0.271 NA
HETATM   27  H   UNL     1      10.539  10.603  24.597  0.00  0.00     0.127 HD
HETATM   28  H   UNL     1      11.583  11.825  25.234  0.00  0.00     0.127 HD
ENDBRANCH   3  26
TORSDOF 4
ENDMDL
MODEL 2
REMARK VINA RESULT:    -8.058      2.426      3.313
REMARK INTER + INTRA:         -10.223
REMARK INTER:                  -9.547
REMARK INTRA:                  -0.677
REMARK UNBOUND:                -0.517
REMARK  4 active torsions:
REMARK  status: ('A' for Active; 'I' for Inactive)
REMARK    1  A    between atoms: C_2  and  O_3 
REMARK    2  A    between atoms: O_3  and  C_4 
REMARK       I    between atoms: N_11  and  C_12 
REMARK    3  A    between atoms: C_12  and  C_14 
REMARK    4  A    between atoms: C_16  and  N_17 
ROOT
HETATM    1  C   UNL     1       9.824  12.478  23.391  0.00  0.00     0.140 A 
HETATM    2  N   UNL     1      10.073  12.189  22.092  0.00  0.00    -0.212 NA
HETATM    3  C   UNL     1      11.186  12.703  21.576  0.00  0.00     0.200 A 
HETATM    4  N   UNL     1      11.995  13.559  22.191  0.00  0.00    -0.218 NA
HETATM    5  C   UNL     1      11.745  13.858  23.469  0.00  0.00     0.073 A 
HETATM    6  C   UNL     1      12.558  14.801  24.096  0.00  0.00     0.033 C 
HETATM    7  C   UNL     1      12.374  15.173  25.430  0.00  0.00     0.009 C 
HETATM    8  C   UNL     1      11.396  14.545  26.187  0.00  0.00    -0.061 C 
HETATM    9  C   UNL     1      11.101  14.945  27.600  0.00  0.00     0.048 C 
HETATM   10  C   UNL     1      10.596  13.576  25.572  0.00  0.00     0.023 C 
HETATM   11  C   UNL     1      10.693  13.282  24.180  0.00  0.00     0.028 A 
ENDROOT
BRANCH   1  12
HETATM   12  C   UNL     1       8.484  12.010  23.951  0.00  0.00     0.274 C 
HETATM   13  N   UNL     1       7.370  12.838  24.053  0.00  0.00    -0.338 N 
HETATM   14  C   UNL     1       6.145  12.277  24.636  0.00  0.00     0.165 A 
HETATM   15  C   UNL     1       7.186  14.228  23.628  0.00  0.00     0.165 A 
HETATM   16  C   UNL     1       5.144  13.376  24.513  0.00  0.00    -0.030 A 
HETATM   17  C   UNL     1       5.735  14.496  23.921  0.00  0.00    -0.032 A 
HETATM   18  C   UNL     1       3.801  13.367  24.872  0.00  0.00     0.046 A 
HETATM   19  C   UNL     1       4.976  15.628  23.664  0.00  0.00     0.012 A 
HETATM   20  C   UNL     1       3.611  15.618  24.007  0.00  0.00     0.037 A 
HETATM   21  C   UNL     1       3.023  14.500  24.624  0.00  0.00     0.069 A 
HETATM   22  O   UNL     1       8.370  10.854  24.365  0.00  0.00    -0.266 OA
BRANCH  21  23
HETATM   23  O   UNL     1       1.715  14.392  25.016  0.00  0.00    -0.352 OA
BRANCH  23  24
HETATM   24  C   UNL     1       0.709  14.544  24.014  0.00  0.00     0.171 C 
HETATM   25  C   UNL     1       0.531  13.208  23.309  0.00  0.00     0.034 C 
ENDBRANCH  23  24
ENDBRANCH  21  23
ENDBRANCH   1  12
BRANCH   3  26
HETATM   26  N   UNL     1      11.534  12.356  20.291  0.00  0.00    -0.271 NA
HETATM   27  H   UNL     1      12.496  12.065  20.232  0.00  0.00     0.127 HD
HETATM   28  H   UNL     1      10.831  11.738  19.898  0.00  0.00     0.127 HD
ENDBRANCH   3  26
TORSDOF 4
ENDMDL
MODEL 3
REMARK VINA RESULT:    -7.951      4.074      5.566
REMARK INTER + INTRA:         -10.095
REMARK INTER:                  -9.440
REMARK INTRA:                  -0.655
REMARK UNBOUND:                -0.517
REMARK  4 active torsions:
REMARK  status: ('A' for Active; 'I' for Inactive)
REMARK    1  A    between atoms: C_2  and  O_3 
REMARK    2  A    between atoms: O_3  and  C_4 
REMARK       I    between atoms: N_11  and  C_12 
REMARK    3  A    between atoms: C_12  and  C_14 
REMARK    4  A    between atoms: C_16  and  N_17 
ROOT
HETATM    1  C   UNL     1       8.332  11.951  22.139  0.00  0.00     0.140 A 
HETATM    2  N   UNL     1       9.630  11.898  21.757  0.00  0.00    -0.212 NA
HETATM    3  C   UNL     1      10.294  13.049  21.762  0.00  0.00     0.200 A 
HETATM    4  N   UNL     1       9.761  14.244  21.995  0.00  0.00    -0.218 NA
HETATM    5  C   UNL     1       8.477  14.303  22.359  0.00  0.00     0.073 A 
HETATM    6  C   UNL     1       7.902  15.560  22.546  0.00  0.00     0.033 C 
HETATM    7  C   UNL     1       6.568  15.718  22.929  0.00  0.00     0.009 C 
HETATM    8  C   UNL     1       5.796  14.598  23.201  0.00  0.00    -0.061 C 
HETATM    9  C   UNL     1       4.342  14.696  23.549  0.00  0.00     0.048 C 
HETATM   10  C   UNL     1       6.376  13.335  23.044  0.00  0.00     0.023 C 
HETATM   11  C   UNL     1       7.696  13.161  22.532  0.00  0.00     0.028 A 
ENDROOT
BRANCH   1  12
HETATM   12  C   UNL     1       7.525  10.663  22.002  0.00  0.00     0.274 C 
HETATM   13  N   UNL     1       6.633  10.430  20.961  0.00  0.00    -0.338 N 
HETATM   14  C   UNL     1       5.895   9.161  20.956  0.00  0.00     0.165 A 
HETATM   15  C   UNL     1       6.312  11.253  19.792  0.00  0.00     0.165 A 
HETATM   16  C   UNL     1       5.116   9.194  19.684  0.00  0.00    -0.030 A 
HETATM   17  C   UNL     1       5.363  10.390  19.004  0.00  0.00    -0.032 A 
HETATM   18  C   UNL     1       4.276   8.219  19.158  0.00  0.00     0.046 A 
HETATM   19  C   UNL     1       4.779  10.620  17.767  0.00  0.00     0.012 A 
HETATM   20  C   UNL     1       3.944   9.628  17.221  0.00  0.00     0.037 A 
HETATM   21  C   UNL     1       3.676   8.437  17.916  0.00  0.00     0.069 A 
HETATM   22  O   UNL     1       7.633   9.786  22.863  0.00  0.00    -0.266 OA
BRANCH  21  23
HETATM   23  O   UNL     1       2.866   7.419  17.487  0.00  0.00    -0.352 OA
BRANCH  23  24
HETATM   24  C   UNL     1       2.526   7.383  16.101  0.00  0.00     0.171 C 
HETATM   25  C   UNL     1       3.323   6.268  15.441  0.00  0.00     0.034 C 
ENDBRANCH  23  24
ENDBRANCH  21  23
ENDBRANCH   1  12
BRANCH   3  26
HETATM   26  N   UNL     1      11.641  13.031  21.479  0.00  0.00    -0.271 NA
HETATM   27  H   UNL     1      12.104  12.255  21.923  0.00  0.00     0.127 HD
HETATM   28  H   UNL     1      11.785  13.157  20.483  0.00  0.00     0.127 HD
ENDBRANCH   3  26
TORSDOF 4
ENDMDL
MODEL 4
REMARK VINA RESULT:    -7.938      1.545      1.731
REMARK INTER + INTRA:         -10.080
REMARK INTER:                  -9.596
REMARK INTRA:                  -0.483
REMARK UNBOUND:                -0.517
REMARK  4 active torsions:
REMARK  status: ('A' for Active; 'I' for Inactive)
REMARK    1  A    between atoms: C_2  and  O_3 
REMARK    2  A    between atoms: O_3  and  C_4 
REMARK       I    between atoms: N_11  and  C_12 
REMARK    3  A    between atoms: C_12  and  C_14 
REMARK    4  A    between atoms: C_16  and  N_17 
ROOT
HETATM    1  C   UNL     1       8.949  12.960  24.673  0.00  0.00     0.140 A 
HETATM    2  N   UNL     1       9.480  12.307  25.734  0.00  0.00    -0.212 NA
HETATM    3  C   UNL     1      10.600  12.816  26.240  0.00  0.00     0.200 A 
HETATM    4  N   UNL     1      11.288  13.828  25.721  0.00  0.00    -0.218 NA
HETATM    5  C   UNL     1      10.774  14.466  24.666  0.00  0.00     0.073 A 
HETATM    6  C   UNL     1      11.524  15.488  24.086  0.00  0.00     0.033 C 
HETATM    7  C   UNL     1      11.066  16.213  22.982  0.00  0.00     0.009 C 
HETATM    8  C   UNL     1       9.798  15.962  22.477  0.00  0.00    -0.061 C 
HETATM    9  C   UNL     1       9.275  16.654  21.256  0.00  0.00     0.048 C 
HETATM   10  C   UNL     1       9.029  14.958  23.075  0.00  0.00     0.023 C 
HETATM   11  C   UNL     1       9.537  14.129  24.118  0.00  0.00     0.028 A 
ENDROOT
BRANCH   1  12
HETATM   12  C   UNL     1       7.746  12.305  24.000  0.00  0.00     0.274 C 
HETATM   13  N   UNL     1       6.464  12.842  24.042  0.00  0.00    -0.338 N 
HETATM   14  C   UNL     1       5.384  12.101  23.377  0.00  0.00     0.165 A 
HETATM   15  C   UNL     1       5.984  14.095  24.630  0.00  0.00     0.165 A 
HETATM   16  C   UNL     1       4.188  12.980  23.530  0.00  0.00    -0.030 A 
HETATM   17  C   UNL     1       4.532  14.135  24.238  0.00  0.00    -0.032 A 
HETATM   18  C   UNL     1       2.901  12.780  23.046  0.00  0.00     0.046 A 
HETATM   19  C   UNL     1       3.584  15.123  24.460  0.00  0.00     0.012 A 
HETATM   20  C   UNL     1       2.284  14.935  23.955  0.00  0.00     0.037 A 
HETATM   21  C   UNL     1       1.932  13.763  23.264  0.00  0.00     0.069 A 
HETATM   22  O   UNL     1       7.892  11.232  23.409  0.00  0.00    -0.266 OA
BRANCH  21  23
HETATM   23  O   UNL     1       0.696  13.471  22.751  0.00  0.00    -0.352 OA
BRANCH  23  24
HETATM   24  C   UNL     1       0.545  13.502  21.331  0.00  0.00     0.171 C 
HETATM   25  C   UNL     1      -0.891  13.129  20.995  0.00  0.00     0.034 C 
ENDBRANCH  23  24
ENDBRANCH  21  23
ENDBRANCH   1  12
BRANCH   3  26
HETATM   26  N   UNL     1      11.123  12.248  27.379  0.00  0.00    -0.271 NA
HETATM   27  H   UNL     1      11.485  12.945  28.009  0.00  0.00     0.127 HD
HETATM   28  H   UNL     1      10.470  11.569  27.756  0.00  0.00     0.127 HD
ENDBRANCH   3  26
TORSDOF 4
ENDMDL
MODEL 5
REMARK VINA RESULT:    -7.910      3.198      4.094
REMARK INTER + INTRA:         -10.046
REMARK INTER:                  -9.511
REMARK INTRA:                  -0.535
REMARK UNBOUND:                -0.517
REMARK  4 active torsions:
REMARK  status: ('A' for Active; 'I' for Inactive)
REMARK    1  A    between atoms: C_2  and  O_3 
REMARK    2  A    between atoms: O_3  and  C_4 
REMARK       I    between atoms: N_11  and  C_12 
REMARK    3  A    between atoms: C_12  and  C_14 
REMARK    4  A    between atoms: C_16  and  N_17 
ROOT
HETATM    1  C   UNL     1       8.811  13.669  24.619  0.00  0.00     0.140 A 
HETATM    2  N   UNL     1       9.279  12.878  25.614  0.00  0.00    -0.212 NA
HETATM    3  C   UNL     1      10.560  13.031  25.937  0.00  0.00     0.200 A 
HETATM    4  N   UNL     1      11.429  13.802  25.291  0.00  0.00    -0.218 NA
HETATM    5  C   UNL     1      10.975  14.574  24.300  0.00  0.00     0.073 A 
HETATM    6  C   UNL     1      11.897  15.337  23.584  0.00  0.00     0.033 C 
HETATM    7  C   UNL     1      11.513  16.175  22.534  0.00  0.00     0.009 C 
HETATM    8  C   UNL     1      10.168  16.313  22.225  0.00  0.00    -0.061 C 
HETATM    9  C   UNL     1       9.695  17.140  21.069  0.00  0.00     0.048 C 
HETATM   10  C   UNL     1       9.236  15.573  22.960  0.00  0.00     0.023 C 
HETATM   11  C   UNL     1       9.627  14.621  23.946  0.00  0.00     0.028 A 
ENDROOT
BRANCH   1  12
HETATM   12  C   UNL     1       7.385  13.403  24.147  0.00  0.00     0.274 C 
HETATM   13  N   UNL     1       7.082  12.884  22.892  0.00  0.00    -0.338 N 
HETATM   14  C   UNL     1       5.667  12.700  22.546  0.00  0.00     0.165 A 
HETATM   15  C   UNL     1       7.970  12.434  21.818  0.00  0.00     0.165 A 
HETATM   16  C   UNL     1       5.699  12.055  21.201  0.00  0.00    -0.030 A 
HETATM   17  C   UNL     1       7.023  11.888  20.784  0.00  0.00    -0.032 A 
HETATM   18  C   UNL     1       4.632  11.622  20.424  0.00  0.00     0.046 A 
HETATM   19  C   UNL     1       7.298  11.263  19.577  0.00  0.00     0.012 A 
HETATM   20  C   UNL     1       6.222  10.804  18.794  0.00  0.00     0.037 A 
HETATM   21  C   UNL     1       4.891  10.994  19.203  0.00  0.00     0.069 A 
HETATM   22  O   UNL     1       6.439  13.681  24.889  0.00  0.00    -0.266 OA
BRANCH  21  23
HETATM   23  O   UNL     1       3.773  10.607  18.511  0.00  0.00    -0.352 OA
BRANCH  23  24
HETATM   24  C   UNL     1       3.690  10.969  17.132  0.00  0.00     0.171 C 
HETATM   25  C   UNL     1       3.155  12.390  17.042  0.00  0.00     0.034 C 
ENDBRANCH  23  24
ENDBRANCH  21  23
ENDBRANCH   1  12
BRANCH   3  26
HETATM   26  N   UNL     1      11.056  12.324  27.007  0.00  0.00    -0.271 NA
HETATM   27  H   UNL     1      10.325  12.045  27.640  0.00  0.00     0.127 HD
HETATM   28  H   UNL     1      11.692  11.604  26.680  0.00  0.00     0.127 HD
ENDBRANCH   3  26
TORSDOF 4
ENDMDL
MODEL 6
REMARK VINA RESULT:    -7.829      1.876      3.115
REMARK INTER + INTRA:          -9.949
REMARK INTER:                  -9.368
REMARK INTRA:                  -0.581
REMARK UNBOUND:                -0.517
REMARK  4 active torsions:
REMARK  status: ('A' for Active; 'I' for Inactive)
REMARK    1  A    between atoms: C_2  and  O_3 
REMARK    2  A    between atoms: O_3  and  C_4 
REMARK       I    between atoms: N_11  and  C_12 
REMARK    3  A    between atoms: C_12  and  C_14 
REMARK    4  A    between atoms: C_16  and  N_17 
ROOT
HETATM    1  C   UNL     1       8.830  14.830  21.991  0.00  0.00     0.140 A 
HETATM    2  N   UNL     1       8.857  15.952  21.233  0.00  0.00    -0.212 NA
HETATM    3  C   UNL     1       9.754  16.873  21.573  0.00  0.00     0.200 A 
HETATM    4  N   UNL     1      10.530  16.829  22.651  0.00  0.00    -0.218 NA
HETATM    5  C   UNL     1      10.497  15.730  23.410  0.00  0.00     0.073 A 
HETATM    6  C   UNL     1      11.266  15.709  24.572  0.00  0.00     0.033 C 
HETATM    7  C   UNL     1      11.297  14.602  25.425  0.00  0.00     0.009 C 
HETATM    8  C   UNL     1      10.594  13.456  25.083  0.00  0.00    -0.061 C 
HETATM    9  C   UNL     1      10.529  12.261  25.985  0.00  0.00     0.048 C 
HETATM   10  C   UNL     1       9.844  13.460  23.902  0.00  0.00     0.023 C 
HETATM   11  C   UNL     1       9.706  14.626  23.093  0.00  0.00     0.028 A 
ENDROOT
BRANCH   1  12
HETATM   12  C   UNL     1       7.713  13.832  21.697  0.00  0.00     0.274 C 
HETATM   13  N   UNL     1       6.430  13.949  22.221  0.00  0.00    -0.338 N 
HETATM   14  C   UNL     1       5.451  12.908  21.885  0.00  0.00     0.165 A 
HETATM   15  C   UNL     1       5.845  14.998  23.060  0.00  0.00     0.165 A 
HETATM   16  C   UNL     1       4.184  13.377  22.518  0.00  0.00    -0.030 A 
HETATM   17  C   UNL     1       4.403  14.586  23.183  0.00  0.00    -0.032 A 
HETATM   18  C   UNL     1       2.926  12.787  22.476  0.00  0.00     0.046 A 
HETATM   19  C   UNL     1       3.349  15.236  23.809  0.00  0.00     0.012 A 
HETATM   20  C   UNL     1       2.069  14.654  23.753  0.00  0.00     0.037 A 
HETATM   21  C   UNL     1       1.855  13.426  23.105  0.00  0.00     0.069 A 
HETATM   22  O   UNL     1       7.948  12.853  20.985  0.00  0.00    -0.266 OA
BRANCH  21  23
HETATM   23  O   UNL     1       0.659  12.764  23.009  0.00  0.00    -0.352 OA
BRANCH  23  24
HETATM   24  C   UNL     1      -0.468  13.333  23.677  0.00  0.00     0.171 C 
HETATM   25  C   UNL     1      -1.622  12.345  23.594  0.00  0.00     0.034 C 
ENDBRANCH  23  24
ENDBRANCH  21  23
ENDBRANCH   1  12
BRANCH   3  26
HETATM   26  N   UNL     1       9.889  17.984  20.773  0.00  0.00    -0.271 NA
HETATM   27  H   UNL     1       9.031  18.207  20.298  0.00  0.00     0.127 HD
HETATM   28  H   UNL     1      10.345  18.727  21.292  0.00  0.00     0.127 HD
ENDBRANCH   3  26
TORSDOF 4
ENDMDL
MODEL 7
REMARK VINA RESULT:    -7.775      1.666      3.417
REMARK INTER + INTRA:          -9.884
REMARK INTER:                  -9.356
REMARK INTRA:                  -0.527
REMARK UNBOUND:                -0.517
REMARK  4 active torsions:
REMARK  status: ('A' for Active; 'I' for Inactive)
REMARK    1  A    between atoms: C_2  and  O_3 
REMARK    2  A    between atoms: O_3  and  C_4 
REMARK       I    between atoms: N_11  and  C_12 
REMARK    3  A    between atoms: C_12  and  C_14 
REMARK    4  A    between atoms: C_16  and  N_17 
ROOT
HETATM    1  C   UNL     1       7.828  12.861  21.631  0.00  0.00     0.140 A 
HETATM    2  N   UNL     1       8.186  14.137  21.350  0.00  0.00    -0.212 NA
HETATM    3  C   UNL     1       9.391  14.517  21.767  0.00  0.00     0.200 A 
HETATM    4  N   UNL     1      10.206  13.793  22.527  0.00  0.00    -0.218 NA
HETATM    5  C   UNL     1       9.850  12.539  22.819  0.00  0.00     0.073 A 
HETATM    6  C   UNL     1      10.676  11.800  23.664  0.00  0.00     0.033 C 
HETATM    7  C   UNL     1      10.387  10.481  24.021  0.00  0.00     0.009 C 
HETATM    8  C   UNL     1       9.279   9.851  23.472  0.00  0.00    -0.061 C 
HETATM    9  C   UNL     1       8.874   8.463  23.866  0.00  0.00     0.048 C 
HETATM   10  C   UNL     1       8.463  10.578  22.600  0.00  0.00     0.023 C 
HETATM   11  C   UNL     1       8.679  11.961  22.330  0.00  0.00     0.028 A 
ENDROOT
BRANCH   1  12
HETATM   12  C   UNL     1       6.398  12.460  21.282  0.00  0.00     0.274 C 
HETATM   13  N   UNL     1       5.293  12.852  22.030  0.00  0.00    -0.338 N 
HETATM   14  C   UNL     1       3.970  12.377  21.606  0.00  0.00     0.165 A 
HETATM   15  C   UNL     1       5.209  13.728  23.201  0.00  0.00     0.165 A 
HETATM   16  C   UNL     1       3.022  13.042  22.547  0.00  0.00    -0.030 A 
HETATM   17  C   UNL     1       3.729  13.831  23.457  0.00  0.00    -0.032 A 
HETATM   18  C   UNL     1       1.634  12.974  22.568  0.00  0.00     0.046 A 
HETATM   19  C   UNL     1       3.047  14.584  24.402  0.00  0.00     0.012 A 
HETATM   20  C   UNL     1       1.641  14.535  24.416  0.00  0.00     0.037 A 
HETATM   21  C   UNL     1       0.931  13.722  23.516  0.00  0.00     0.069 A 
HETATM   22  O   UNL     1       6.194  11.729  20.310  0.00  0.00    -0.266 OA
BRANCH  21  23
HETATM   23  O   UNL     1      -0.431  13.584  23.456  0.00  0.00    -0.352 OA
BRANCH  23  24
HETATM   24  C   UNL     1      -0.975  12.283  23.683  0.00  0.00     0.171 C 
HETATM   25  C   UNL     1      -2.447  12.307  23.302  0.00  0.00     0.034 C 
ENDBRANCH  23  24
ENDBRANCH  21  23
ENDBRANCH   1  12
BRANCH   3  26
HETATM   26  N   UNL     1       9.841  15.770  21.418  0.00  0.00    -0.271 NA
HETATM   27  H   UNL     1       9.844  15.899  20.420  0.00  0.00     0.127 HD
HETATM   28  H   UNL     1       9.373  16.473  21.981  0.00  0.00     0.127 HD
ENDBRANCH   3  26
TORSDOF 4
ENDMDL
MODEL 8
REMARK VINA RESULT:    -7.726      1.968      2.853
REMARK INTER + INTRA:          -9.824
REMARK INTER:                  -9.307
REMARK INTRA:                  -0.517
REMARK UNBOUND:                -0.517
REMARK  4 active torsions:
REMARK  status: ('A' for Active; 'I' for Inactive)
REMARK    1  A    between atoms: C_2  and  O_3 
REMARK    2  A    between atoms: O_3  and  C_4 
REMARK       I    between atoms: N_11  and  C_12 
REMARK    3  A    between atoms: C_12  and  C_14 
REMARK    4  A    between atoms: C_16  and  N_17 
ROOT
HETATM    1  C   UNL     1       9.656  14.318  25.148  0.00  0.00     0.140 A 
HETATM    2  N   UNL     1      10.237  13.444  26.004  0.00  0.00    -0.212 NA
HETATM    3  C   UNL     1      11.540  13.235  25.841  0.00  0.00     0.200 A 
HETATM    4  N   UNL     1      12.278  13.718  24.847  0.00  0.00    -0.218 NA
HETATM    5  C   UNL     1      11.707  14.570  23.992  0.00  0.00     0.073 A 
HETATM    6  C   UNL     1      12.464  15.031  22.916  0.00  0.00     0.033 C 
HETATM    7  C   UNL     1      11.951  15.925  21.973  0.00  0.00     0.009 C 
HETATM    8  C   UNL     1      10.670  16.432  22.137  0.00  0.00    -0.061 C 
HETATM    9  C   UNL     1      10.035  17.340  21.127  0.00  0.00     0.048 C 
HETATM   10  C   UNL     1       9.916  15.997  23.231  0.00  0.00     0.023 C 
HETATM   11  C   UNL     1      10.383  14.990  24.125  0.00  0.00     0.028 A 
ENDROOT
BRANCH   1  12
HETATM   12  C   UNL     1       8.140  14.457  25.236  0.00  0.00     0.274 C 
HETATM   13  N   UNL     1       7.273  13.996  24.250  0.00  0.00    -0.338 N 
HETATM   14  C   UNL     1       5.834  14.215  24.439  0.00  0.00     0.165 A 
HETATM   15  C   UNL     1       7.556  13.262  23.014  0.00  0.00     0.165 A 
HETATM   16  C   UNL     1       5.202  13.532  23.273  0.00  0.00    -0.030 A 
HETATM   17  C   UNL     1       6.189  12.970  22.458  0.00  0.00    -0.032 A 
HETATM   18  C   UNL     1       3.851  13.394  22.979  0.00  0.00     0.046 A 
HETATM   19  C   UNL     1       5.830  12.241  21.333  0.00  0.00     0.012 A 
HETATM   20  C   UNL     1       4.462  12.081  21.042  0.00  0.00     0.037 A 
HETATM   21  C   UNL     1       3.472  12.667  21.848  0.00  0.00     0.069 A 
HETATM   22  O   UNL     1       7.639  15.030  26.207  0.00  0.00    -0.266 OA
BRANCH  21  23
HETATM   23  O   UNL     1       2.119  12.592  21.645  0.00  0.00    -0.352 OA
BRANCH  23  24
HETATM   24  C   UNL     1       1.326  13.709  22.048  0.00  0.00     0.171 C 
HETATM   25  C   UNL     1      -0.054  13.201  22.437  0.00  0.00     0.034 C 
ENDBRANCH  23  24
ENDBRANCH  21  23
ENDBRANCH   1  12
BRANCH   3  26
HETATM   26  N   UNL     1      12.194  12.434  26.749  0.00  0.00    -0.271 NA
HETATM   27  H   UNL     1      11.916  11.471  26.663  0.00  0.00     0.127 HD
HETATM   28  H   UNL     1      13.188  12.639  26.734  0.00  0.00     0.127 HD
ENDBRANCH   3  26
TORSDOF 4
ENDMDL
MODEL 9
REMARK VINA RESULT:    -7.699      4.171      6.258
REMARK INTER + INTRA:          -9.791
REMARK INTER:                  -9.131
REMARK INTRA:                  -0.661
REMARK UNBOUND:                -0.517
REMARK  4 active torsions:
REMARK  status: ('A' for Active; 'I' for Inactive)
REMARK    1  A    between atoms: C_2  and  O_3 
REMARK    2  A    between atoms: O_3  and  C_4 
REMARK       I    between atoms: N_11  and  C_12 
REMARK    3  A    between atoms: C_12  and  C_14 
REMARK    4  A    between atoms: C_16  and  N_17 
ROOT
HETATM    1  C   UNL     1       4.816  12.618  22.853  0.00  0.00     0.140 A 
HETATM    2  N   UNL     1       3.726  12.796  23.636  0.00  0.00    -0.212 NA
HETATM    3  C   UNL     1       3.603  13.988  24.213  0.00  0.00     0.200 A 
HETATM    4  N   UNL     1       4.510  14.958  24.176  0.00  0.00    -0.218 NA
HETATM    5  C   UNL     1       5.595  14.781  23.417  0.00  0.00     0.073 A 
HETATM    6  C   UNL     1       6.574  15.773  23.425  0.00  0.00     0.033 C 
HETATM    7  C   UNL     1       7.739  15.675  22.660  0.00  0.00     0.009 C 
HETATM    8  C   UNL     1       7.910  14.592  21.809  0.00  0.00    -0.061 C 
HETATM    9  C   UNL     1       9.165  14.392  21.015  0.00  0.00     0.048 C 
HETATM   10  C   UNL     1       6.917  13.609  21.774  0.00  0.00     0.023 C 
HETATM   11  C   UNL     1       5.787  13.636  22.643  0.00  0.00     0.028 A 
ENDROOT
BRANCH   1  12
HETATM   12  C   UNL     1       5.039  11.213  22.301  0.00  0.00     0.274 C 
HETATM   13  N   UNL     1       4.779  10.863  20.980  0.00  0.00    -0.338 N 
HETATM   14  C   UNL     1       5.008   9.470  20.578  0.00  0.00     0.165 A 
HETATM   15  C   UNL     1       4.329  11.688  19.857  0.00  0.00     0.165 A 
HETATM   16  C   UNL     1       4.726   9.459  19.113  0.00  0.00    -0.030 A 
HETATM   17  C   UNL     1       4.348  10.737  18.691  0.00  0.00    -0.032 A 
HETATM   18  C   UNL     1       4.831   8.400  18.220  0.00  0.00     0.046 A 
HETATM   19  C   UNL     1       4.082  10.976  17.351  0.00  0.00     0.012 A 
HETATM   20  C   UNL     1       4.205   9.912  16.438  0.00  0.00     0.037 A 
HETATM   21  C   UNL     1       4.562   8.622  16.867  0.00  0.00     0.069 A 
HETATM   22  O   UNL     1       5.443  10.323  23.054  0.00  0.00    -0.266 OA
BRANCH  21  23
HETATM   23  O   UNL     1       4.690   7.515  16.070  0.00  0.00    -0.352 OA
BRANCH  23  24
HETATM   24  C   UNL     1       3.743   6.460  16.245  0.00  0.00     0.171 C 
HETATM   25  C   UNL     1       2.393   6.940  15.736  0.00  0.00     0.034 C 
ENDBRANCH  23  24
ENDBRANCH  21  23
ENDBRANCH   1  12
BRANCH   3  26
HETATM   26  N   UNL     1       2.462  14.252  24.935  0.00  0.00    -0.271 NA
HETATM   27  H   UNL     1       2.248  15.236  24.947  0.00  0.00     0.127 HD
HETATM   28  H   UNL     1       1.723  13.615  24.658  0.00  0.00     0.127 HD
ENDBRANCH   3  26
TORSDOF 4
ENDMDL
