REMARK  5 active torsions:
REMARK  status: ('A' for Active; 'I' for Inactive)
REMARK    1  A    between atoms: C_6  and  N_7 
REMARK       I    between atoms: N_7  and  C_9 
REMARK    2  A    between atoms: C_9  and  C_11 
REMARK    3  A    between atoms: C_13  and  O_14 
REMARK    4  A    between atoms: C_21  and  C_22 
REMARK    5  A    between atoms: C_22  and  C_23 
ROOT
HETATM    1  C   UNL     1      -5.150   1.157  -0.215  0.00  0.00     0.066 C 
HETATM    2  C   UNL     1      -5.782  -0.089  -0.007  0.00  0.00     0.035 C 
HETATM    3  C   UNL     1      -5.955   2.263  -0.553  0.00  0.00     0.083 C 
HETATM    4  C   UNL     1      -7.331   2.142  -0.781  0.00  0.00     0.069 C 
HETATM    5  C   UNL     1      -7.871   0.856  -0.730  0.00  0.00     0.065 A 
HETATM    6  C   UNL     1      -7.129  -0.269  -0.384  0.00  0.00     0.020 A 
HETATM    7  N   UNL     1      -9.134   0.393  -0.963  0.00  0.00    -0.277 N 
HETATM    8  H   UNL     1      -9.957   0.938  -1.192  0.00  0.00     0.189 HD
HETATM    9  N   UNL     1      -9.250  -0.943  -0.911  0.00  0.00    -0.178 NA
HETATM   10  C   UNL     1      -8.020  -1.376  -0.585  0.00  0.00     0.071 A 
ENDROOT
BRANCH   1  11
HETATM   11  C   UNL     1      -3.656   1.357  -0.077  0.00  0.00     0.260 C 
HETATM   12  N   UNL     1      -2.738   0.324  -0.432  0.00  0.00    -0.318 N 
HETATM   13  C   UNL     1      -3.194  -0.927  -1.052  0.00  0.00     0.159 C 
HETATM   14  O   UNL     1      -3.339   2.484   0.319  0.00  0.00    -0.267 OA
BRANCH  12  15
HETATM   15  C   UNL     1      -1.299   0.433  -0.212  0.00  0.00     0.037 A 
HETATM   16  C   UNL     1      -0.469  -0.705  -0.327  0.00  0.00     0.029 A 
HETATM   17  C   UNL     1       0.915  -0.653  -0.119  0.00  0.00     0.002 A 
HETATM   18  C   UNL     1       1.518   0.544   0.228  0.00  0.00     0.000 A 
HETATM   19  C   UNL     1       0.736   1.686   0.343  0.00  0.00     0.002 A 
HETATM   20  C   UNL     1      -0.651   1.632   0.121  0.00  0.00     0.029 A 
ENDBRANCH  12  15
ENDBRANCH   1  11
BRANCH   3  21
HETATM   21  O   UNL     1      -5.461   3.539  -0.684  0.00  0.00    -0.360 OA
HETATM   22  H   UNL     1      -4.545   3.545  -0.324  0.00  0.00     0.217 HD
ENDBRANCH   3  21
BRANCH  10  23
HETATM   23  C   UNL     1      -7.772  -2.862  -0.508  0.00  0.00     0.100 C 
BRANCH  23  24
HETATM   24  C   UNL     1      -6.870  -3.343  -1.641  0.00  0.00    -0.052 A 
HETATM   25  C   UNL     1      -6.697  -2.643  -2.845  0.00  0.00     0.007 A 
HETATM   26  C   UNL     1      -5.848  -3.122  -3.845  0.00  0.00     0.001 A 
HETATM   27  C   UNL     1      -5.220  -4.355  -3.706  0.00  0.00     0.007 A 
HETATM   28  C   UNL     1      -5.470  -5.145  -2.582  0.00  0.00    -0.061 A 
HETATM   29  C   UNL     1      -6.261  -4.619  -1.540  0.00  0.00     0.014 A 
HETATM   30  C   UNL     1      -4.895  -6.533  -2.526  0.00  0.00     0.048 C 
ENDBRANCH  23  24
ENDBRANCH  10  23
TORSDOF 5
