MODEL 1
REMARK VINA RESULT:    -7.037      0.000      0.000
REMARK INTER + INTRA:         -11.536
REMARK INTER:                  -9.838
REMARK INTRA:                  -1.699
REMARK UNBOUND:                -1.414
REMARK  8 active torsions:
REMARK  status: ('A' for Active; 'I' for Inactive)
REMARK    1  A    between atoms: C_2  and  N_4 
REMARK    2  A    between atoms: N_4  and  C_5 
REMARK    3  A    between atoms: C_5  and  C_6 
REMARK    4  A    between atoms: C_6  and  C_7 
REMARK    5  A    between atoms: C_7  and  N_8 
REMARK    6  A    between atoms: C_9  and  S_10 
REMARK    7  A    between atoms: S_10  and  C_11 
REMARK    8  A    between atoms: C_23  and  N_24 
ROOT
HETATM    1  N   UNL     1       5.372  10.209  21.145  0.00  0.00    -0.308 N 
HETATM    2  C   UNL     1       4.761  11.441  21.106  0.00  0.00     0.176 A 
HETATM    3  N   UNL     1       4.351  11.741  19.891  0.00  0.00    -0.216 NA
HETATM    4  C   UNL     1       4.740  10.676  19.106  0.00  0.00     0.151 A 
HETATM    5  C   UNL     1       4.596  10.384  17.736  0.00  0.00     0.155 A 
HETATM    6  N   UNL     1       5.198   9.274  17.242  0.00  0.00    -0.222 NA
HETATM    7  C   UNL     1       5.864   8.473  18.093  0.00  0.00     0.237 A 
HETATM    8  N   UNL     1       6.008   8.609  19.425  0.00  0.00    -0.222 NA
HETATM    9  C   UNL     1       5.421   9.737  19.862  0.00  0.00     0.166 A 
ENDROOT
BRANCH   2  10
HETATM   10  S   UNL     1       4.793  12.480  22.489  0.00  0.00    -0.051 SA
BRANCH  10  11
HETATM   11  C   UNL     1       6.063  13.714  22.212  0.00  0.00     0.028 C 
HETATM   12  C   UNL     1       7.219  13.421  21.477  0.00  0.00     0.060 C 
HETATM   13  C   UNL     1       8.313  14.248  21.617  0.00  0.00     0.106 C 
HETATM   14  O   UNL     1       9.560  13.992  21.125  0.00  0.00    -0.323 OA
HETATM   15  C   UNL     1       8.282  15.383  22.388  0.00  0.00     0.106 C 
HETATM   16  C   UNL     1      10.324  14.888  21.959  0.00  0.00     0.352 C 
HETATM   17  O   UNL     1       9.513  15.955  22.500  0.00  0.00    -0.323 OA
HETATM   18  C   UNL     1       7.137  15.802  23.012  0.00  0.00     0.059 C 
HETATM   19  C   UNL     1       6.017  14.953  22.928  0.00  0.00     0.026 C 
HETATM   20  I   UNL     1       4.309  15.638  23.980  0.00  0.00    -0.043 I 
ENDBRANCH  10  11
ENDBRANCH   2  10
BRANCH   1  21
HETATM   21  C   UNL     1       5.934   9.523  22.288  0.00  0.00     0.135 C 
BRANCH  21  22
HETATM   22  C   UNL     1       7.435   9.762  22.442  0.00  0.00     0.050 C 
BRANCH  22  23
HETATM   23  C   UNL     1       7.735  10.463  23.768  0.00  0.00     0.271 C 
BRANCH  23  24
HETATM   24  N   UNL     1       9.068  11.069  23.824  0.00  0.00     0.087 N 
HETATM   25  H   UNL     1       9.719  10.393  24.226  0.00  0.00     0.316 HD
BRANCH  24  26
HETATM   26  C   UNL     1       9.152  12.327  24.573  0.00  0.00     0.212 C 
HETATM   27  C   UNL     1       7.866  12.636  25.338  0.00  0.00     0.042 C 
HETATM   28  C   UNL     1      10.332  12.235  25.543  0.00  0.00     0.042 C 
ENDBRANCH  24  26
ENDBRANCH  23  24
ENDBRANCH  22  23
ENDBRANCH  21  22
ENDBRANCH   1  21
BRANCH   5  29
HETATM   29  N   UNL     1       3.882  11.180  16.852  0.00  0.00    -0.382 N 
HETATM   30  H   UNL     1       3.454  11.992  17.283  0.00  0.00     0.157 HD
HETATM   31  H   UNL     1       4.363  11.305  15.972  0.00  0.00     0.157 HD
ENDBRANCH   5  29
TORSDOF 8
ENDMDL
MODEL 2
REMARK VINA RESULT:    -6.761      3.832      6.984
REMARK INTER + INTRA:         -11.140
REMARK INTER:                 -10.045
REMARK INTRA:                  -1.094
REMARK UNBOUND:                -1.414
REMARK  8 active torsions:
REMARK  status: ('A' for Active; 'I' for Inactive)
REMARK    1  A    between atoms: C_2  and  N_4 
REMARK    2  A    between atoms: N_4  and  C_5 
REMARK    3  A    between atoms: C_5  and  C_6 
REMARK    4  A    between atoms: C_6  and  C_7 
REMARK    5  A    between atoms: C_7  and  N_8 
REMARK    6  A    between atoms: C_9  and  S_10 
REMARK    7  A    between atoms: S_10  and  C_11 
REMARK    8  A    between atoms: C_23  and  N_24 
ROOT
HETATM    1  N   UNL     1       7.134  14.022  22.565  0.00  0.00    -0.308 N 
HETATM    2  C   UNL     1       7.476  12.695  22.686  0.00  0.00     0.176 A 
HETATM    3  N   UNL     1       8.778  12.519  22.597  0.00  0.00    -0.216 NA
HETATM    4  C   UNL     1       9.298  13.777  22.380  0.00  0.00     0.151 A 
HETATM    5  C   UNL     1      10.608  14.262  22.207  0.00  0.00     0.155 A 
HETATM    6  N   UNL     1      10.780  15.571  21.898  0.00  0.00    -0.222 NA
HETATM    7  C   UNL     1       9.693  16.360  21.819  0.00  0.00     0.237 A 
HETATM    8  N   UNL     1       8.406  16.027  22.033  0.00  0.00    -0.222 NA
HETATM    9  C   UNL     1       8.284  14.717  22.306  0.00  0.00     0.166 A 
ENDROOT
BRANCH   2  10
HETATM   10  S   UNL     1       6.250  11.473  22.711  0.00  0.00    -0.051 SA
BRANCH  10  11
HETATM   11  C   UNL     1       6.122  10.799  21.055  0.00  0.00     0.028 C 
HETATM   12  C   UNL     1       5.681  11.581  19.979  0.00  0.00     0.060 C 
HETATM   13  C   UNL     1       5.236  10.942  18.842  0.00  0.00     0.106 C 
HETATM   14  O   UNL     1       4.602  11.546  17.797  0.00  0.00    -0.323 OA
HETATM   15  C   UNL     1       5.282   9.577  18.701  0.00  0.00     0.106 C 
HETATM   16  C   UNL     1       3.981  10.388  17.202  0.00  0.00     0.352 C 
HETATM   17  O   UNL     1       4.652   9.162  17.567  0.00  0.00    -0.323 OA
HETATM   18  C   UNL     1       5.839   8.769  19.656  0.00  0.00     0.059 C 
HETATM   19  C   UNL     1       6.258   9.388  20.850  0.00  0.00     0.026 C 
HETATM   20  I   UNL     1       7.041   8.061  22.306  0.00  0.00    -0.043 I 
ENDBRANCH  10  11
ENDBRANCH   2  10
BRANCH   1  21
HETATM   21  C   UNL     1       5.818  14.619  22.627  0.00  0.00     0.135 C 
BRANCH  21  22
HETATM   22  C   UNL     1       5.540  15.298  23.967  0.00  0.00     0.050 C 
BRANCH  22  23
HETATM   23  C   UNL     1       4.112  15.844  24.008  0.00  0.00     0.271 C 
BRANCH  23  24
HETATM   24  N   UNL     1       3.239  15.135  24.947  0.00  0.00     0.087 N 
HETATM   25  H   UNL     1       3.813  14.537  25.543  0.00  0.00     0.316 HD
BRANCH  24  26
HETATM   26  C   UNL     1       2.180  14.328  24.330  0.00  0.00     0.212 C 
HETATM   27  C   UNL     1       1.708  14.909  22.997  0.00  0.00     0.042 C 
HETATM   28  C   UNL     1       2.711  12.907  24.127  0.00  0.00     0.042 C 
ENDBRANCH  24  26
ENDBRANCH  23  24
ENDBRANCH  22  23
ENDBRANCH  21  22
ENDBRANCH   1  21
BRANCH   5  29
HETATM   29  N   UNL     1      11.742  13.471  22.320  0.00  0.00    -0.382 N 
HETATM   30  H   UNL     1      12.612  13.986  22.249  0.00  0.00     0.157 HD
HETATM   31  H   UNL     1      11.657  12.778  23.051  0.00  0.00     0.157 HD
ENDBRANCH   5  29
TORSDOF 8
ENDMDL
MODEL 3
REMARK VINA RESULT:    -6.743      2.689      4.265
REMARK INTER + INTRA:         -11.114
REMARK INTER:                  -9.693
REMARK INTRA:                  -1.421
REMARK UNBOUND:                -1.414
REMARK  8 active torsions:
REMARK  status: ('A' for Active; 'I' for Inactive)
REMARK    1  A    between atoms: C_2  and  N_4 
REMARK    2  A    between atoms: N_4  and  C_5 
REMARK    3  A    between atoms: C_5  and  C_6 
REMARK    4  A    between atoms: C_6  and  C_7 
REMARK    5  A    between atoms: C_7  and  N_8 
REMARK    6  A    between atoms: C_9  and  S_10 
REMARK    7  A    between atoms: S_10  and  C_11 
REMARK    8  A    between atoms: C_23  and  N_24 
ROOT
HETATM    1  N   UNL     1       5.005  10.356  20.741  0.00  0.00    -0.308 N 
HETATM    2  C   UNL     1       5.482   9.174  21.259  0.00  0.00     0.176 A 
HETATM    3  N   UNL     1       5.692   8.281  20.314  0.00  0.00    -0.216 NA
HETATM    4  C   UNL     1       5.309   8.898  19.142  0.00  0.00     0.151 A 
HETATM    5  C   UNL     1       5.294   8.487  17.796  0.00  0.00     0.155 A 
HETATM    6  N   UNL     1       4.743   9.311  16.871  0.00  0.00    -0.222 NA
HETATM    7  C   UNL     1       4.280  10.508  17.274  0.00  0.00     0.237 A 
HETATM    8  N   UNL     1       4.304  11.036  18.512  0.00  0.00    -0.222 NA
HETATM    9  C   UNL     1       4.830  10.172  19.397  0.00  0.00     0.166 A 
ENDROOT
BRANCH   2  10
HETATM   10  S   UNL     1       5.534   8.924  22.970  0.00  0.00    -0.051 SA
BRANCH  10  11
HETATM   11  C   UNL     1       7.131   9.489  23.553  0.00  0.00     0.028 C 
HETATM   12  C   UNL     1       7.370  10.841  23.836  0.00  0.00     0.060 C 
HETATM   13  C   UNL     1       8.676  11.278  23.900  0.00  0.00     0.106 C 
HETATM   14  O   UNL     1       9.066  12.582  23.973  0.00  0.00    -0.323 OA
HETATM   15  C   UNL     1       9.743  10.423  23.774  0.00  0.00     0.106 C 
HETATM   16  C   UNL     1      10.433  12.439  23.533  0.00  0.00     0.352 C 
HETATM   17  O   UNL     1      10.927  11.094  23.717  0.00  0.00    -0.323 OA
HETATM   18  C   UNL     1       9.575   9.070  23.644  0.00  0.00     0.059 C 
HETATM   19  C   UNL     1       8.253   8.600  23.526  0.00  0.00     0.026 C 
HETATM   20  I   UNL     1       8.082   6.504  23.256  0.00  0.00    -0.043 I 
ENDBRANCH  10  11
ENDBRANCH   2  10
BRANCH   1  21
HETATM   21  C   UNL     1       4.672  11.574  21.446  0.00  0.00     0.135 C 
BRANCH  21  22
HETATM   22  C   UNL     1       5.788  12.617  21.384  0.00  0.00     0.050 C 
BRANCH  22  23
HETATM   23  C   UNL     1       5.553  13.719  22.418  0.00  0.00     0.271 C 
BRANCH  23  24
HETATM   24  N   UNL     1       6.777  14.420  22.817  0.00  0.00     0.087 N 
HETATM   25  H   UNL     1       7.397  13.757  23.285  0.00  0.00     0.316 HD
BRANCH  24  26
HETATM   26  C   UNL     1       6.574  15.588  23.683  0.00  0.00     0.212 C 
HETATM   27  C   UNL     1       5.131  16.090  23.653  0.00  0.00     0.042 C 
HETATM   28  C   UNL     1       6.971  15.206  25.110  0.00  0.00     0.042 C 
ENDBRANCH  24  26
ENDBRANCH  23  24
ENDBRANCH  22  23
ENDBRANCH  21  22
ENDBRANCH   1  21
BRANCH   5  29
HETATM   29  N   UNL     1       5.801   7.272  17.358  0.00  0.00    -0.382 N 
HETATM   30  H   UNL     1       6.814   7.240  17.315  0.00  0.00     0.157 HD
HETATM   31  H   UNL     1       5.317   6.484  17.763  0.00  0.00     0.157 HD
ENDBRANCH   5  29
TORSDOF 8
ENDMDL
MODEL 4
REMARK VINA RESULT:    -6.690      3.718      7.088
REMARK INTER + INTRA:         -11.037
REMARK INTER:                  -9.980
REMARK INTRA:                  -1.057
REMARK UNBOUND:                -1.414
REMARK  8 active torsions:
REMARK  status: ('A' for Active; 'I' for Inactive)
REMARK    1  A    between atoms: C_2  and  N_4 
REMARK    2  A    between atoms: N_4  and  C_5 
REMARK    3  A    between atoms: C_5  and  C_6 
REMARK    4  A    between atoms: C_6  and  C_7 
REMARK    5  A    between atoms: C_7  and  N_8 
REMARK    6  A    between atoms: C_9  and  S_10 
REMARK    7  A    between atoms: S_10  and  C_11 
REMARK    8  A    between atoms: C_23  and  N_24 
ROOT
HETATM    1  N   UNL     1       7.602  13.713  23.231  0.00  0.00    -0.308 N 
HETATM    2  C   UNL     1       7.376  12.431  23.675  0.00  0.00     0.176 A 
HETATM    3  N   UNL     1       8.454  11.910  24.223  0.00  0.00    -0.216 NA
HETATM    4  C   UNL     1       9.425  12.882  24.102  0.00  0.00     0.151 A 
HETATM    5  C   UNL     1      10.777  12.947  24.491  0.00  0.00     0.155 A 
HETATM    6  N   UNL     1      11.506  14.030  24.122  0.00  0.00    -0.222 NA
HETATM    7  C   UNL     1      10.892  15.016  23.445  0.00  0.00     0.237 A 
HETATM    8  N   UNL     1       9.598  15.097  23.082  0.00  0.00    -0.222 NA
HETATM    9  C   UNL     1       8.924  13.991  23.442  0.00  0.00     0.166 A 
ENDROOT
BRANCH   2  10
HETATM   10  S   UNL     1       5.895  11.620  23.296  0.00  0.00    -0.051 SA
BRANCH  10  11
HETATM   11  C   UNL     1       6.097  10.842  21.694  0.00  0.00     0.028 C 
HETATM   12  C   UNL     1       5.803  11.526  20.506  0.00  0.00     0.060 C 
HETATM   13  C   UNL     1       5.601  10.791  19.358  0.00  0.00     0.106 C 
HETATM   14  O   UNL     1       5.124  11.287  18.181  0.00  0.00    -0.323 OA
HETATM   15  C   UNL     1       5.753   9.427  19.323  0.00  0.00     0.106 C 
HETATM   16  C   UNL     1       4.686  10.054  17.572  0.00  0.00     0.352 C 
HETATM   17  O   UNL     1       5.355   8.902  18.130  0.00  0.00    -0.323 OA
HETATM   18  C   UNL     1       6.183   8.718  20.413  0.00  0.00     0.059 C 
HETATM   19  C   UNL     1       6.350   9.435  21.614  0.00  0.00     0.026 C 
HETATM   20  I   UNL     1       6.946   8.255  23.271  0.00  0.00    -0.043 I 
ENDBRANCH  10  11
ENDBRANCH   2  10
BRANCH   1  21
HETATM   21  C   UNL     1       6.670  14.620  22.597  0.00  0.00     0.135 C 
BRANCH  21  22
HETATM   22  C   UNL     1       6.226  15.753  23.520  0.00  0.00     0.050 C 
BRANCH  22  23
HETATM   23  C   UNL     1       4.702  15.769  23.658  0.00  0.00     0.271 C 
BRANCH  23  24
HETATM   24  N   UNL     1       4.056  14.546  23.174  0.00  0.00     0.087 N 
HETATM   25  H   UNL     1       3.966  14.602  22.158  0.00  0.00     0.316 HD
BRANCH  24  26
HETATM   26  C   UNL     1       2.743  14.259  23.761  0.00  0.00     0.212 C 
HETATM   27  C   UNL     1       2.664  14.660  25.234  0.00  0.00     0.042 C 
HETATM   28  C   UNL     1       1.678  15.004  22.954  0.00  0.00     0.042 C 
ENDBRANCH  24  26
ENDBRANCH  23  24
ENDBRANCH  22  23
ENDBRANCH  21  22
ENDBRANCH   1  21
BRANCH   5  29
HETATM   29  N   UNL     1      11.416  11.957  25.221  0.00  0.00    -0.382 N 
HETATM   30  H   UNL     1      11.642  11.128  24.682  0.00  0.00     0.157 HD
HETATM   31  H   UNL     1      12.122  12.329  25.841  0.00  0.00     0.157 HD
ENDBRANCH   5  29
TORSDOF 8
ENDMDL
MODEL 5
REMARK VINA RESULT:    -6.632      3.674      6.641
REMARK INTER + INTRA:         -10.954
REMARK INTER:                  -9.540
REMARK INTRA:                  -1.414
REMARK UNBOUND:                -1.414
REMARK  8 active torsions:
REMARK  status: ('A' for Active; 'I' for Inactive)
REMARK    1  A    between atoms: C_2  and  N_4 
REMARK    2  A    between atoms: N_4  and  C_5 
REMARK    3  A    between atoms: C_5  and  C_6 
REMARK    4  A    between atoms: C_6  and  C_7 
REMARK    5  A    between atoms: C_7  and  N_8 
REMARK    6  A    between atoms: C_9  and  S_10 
REMARK    7  A    between atoms: S_10  and  C_11 
REMARK    8  A    between atoms: C_23  and  N_24 
ROOT
HETATM    1  N   UNL     1       6.814  12.126  23.928  0.00  0.00    -0.308 N 
HETATM    2  C   UNL     1       6.462  10.871  23.490  0.00  0.00     0.176 A 
HETATM    3  N   UNL     1       7.492  10.051  23.488  0.00  0.00    -0.216 NA
HETATM    4  C   UNL     1       8.561  10.813  23.911  0.00  0.00     0.151 A 
HETATM    5  C   UNL     1       9.923  10.529  24.126  0.00  0.00     0.155 A 
HETATM    6  N   UNL     1      10.755  11.549  24.450  0.00  0.00    -0.222 NA
HETATM    7  C   UNL     1      10.234  12.779  24.600  0.00  0.00     0.237 A 
HETATM    8  N   UNL     1       8.946  13.157  24.491  0.00  0.00    -0.222 NA
HETATM    9  C   UNL     1       8.166  12.120  24.141  0.00  0.00     0.166 A 
ENDROOT
BRANCH   2  10
HETATM   10  S   UNL     1       4.889  10.582  22.828  0.00  0.00    -0.051 SA
BRANCH  10  11
HETATM   11  C   UNL     1       5.104  10.054  21.129  0.00  0.00     0.028 C 
HETATM   12  C   UNL     1       5.110  10.974  20.072  0.00  0.00     0.060 C 
HETATM   13  C   UNL     1       4.889  10.507  18.794  0.00  0.00     0.106 C 
HETATM   14  O   UNL     1       4.675  11.289  17.698  0.00  0.00    -0.323 OA
HETATM   15  C   UNL     1       4.742   9.171  18.516  0.00  0.00     0.106 C 
HETATM   16  C   UNL     1       4.053  10.313  16.837  0.00  0.00     0.352 C 
HETATM   17  O   UNL     1       4.383   8.959  17.219  0.00  0.00    -0.323 OA
HETATM   18  C   UNL     1       4.873   8.211  19.484  0.00  0.00     0.059 C 
HETATM   19  C   UNL     1       5.050   8.660  20.807  0.00  0.00     0.026 C 
HETATM   20  I   UNL     1       5.173   7.115  22.254  0.00  0.00    -0.043 I 
ENDBRANCH  10  11
ENDBRANCH   2  10
BRANCH   1  21
HETATM   21  C   UNL     1       5.970  13.289  24.091  0.00  0.00     0.135 C 
BRANCH  21  22
HETATM   22  C   UNL     1       5.884  14.140  22.825  0.00  0.00     0.050 C 
BRANCH  22  23
HETATM   23  C   UNL     1       6.548  15.500  23.045  0.00  0.00     0.271 C 
BRANCH  23  24
HETATM   24  N   UNL     1       8.012  15.454  22.988  0.00  0.00     0.087 N 
HETATM   25  H   UNL     1       8.388  16.141  23.644  0.00  0.00     0.316 HD
BRANCH  24  26
HETATM   26  C   UNL     1       8.594  15.684  21.661  0.00  0.00     0.212 C 
HETATM   27  C   UNL     1       9.759  16.673  21.700  0.00  0.00     0.042 C 
HETATM   28  C   UNL     1       9.061  14.340  21.098  0.00  0.00     0.042 C 
ENDBRANCH  24  26
ENDBRANCH  23  24
ENDBRANCH  22  23
ENDBRANCH  21  22
ENDBRANCH   1  21
BRANCH   5  29
HETATM   29  N   UNL     1      10.470   9.260  24.012  0.00  0.00    -0.382 N 
HETATM   30  H   UNL     1      10.943   9.093  23.130  0.00  0.00     0.157 HD
HETATM   31  H   UNL     1      10.928   8.959  24.861  0.00  0.00     0.157 HD
ENDBRANCH   5  29
TORSDOF 8
ENDMDL
MODEL 6
REMARK VINA RESULT:    -6.625      1.518      2.540
REMARK INTER + INTRA:         -10.944
REMARK INTER:                  -9.507
REMARK INTRA:                  -1.437
REMARK UNBOUND:                -1.414
REMARK  8 active torsions:
REMARK  status: ('A' for Active; 'I' for Inactive)
REMARK    1  A    between atoms: C_2  and  N_4 
REMARK    2  A    between atoms: N_4  and  C_5 
REMARK    3  A    between atoms: C_5  and  C_6 
REMARK    4  A    between atoms: C_6  and  C_7 
REMARK    5  A    between atoms: C_7  and  N_8 
REMARK    6  A    between atoms: C_9  and  S_10 
REMARK    7  A    between atoms: S_10  and  C_11 
REMARK    8  A    between atoms: C_23  and  N_24 
ROOT
HETATM    1  N   UNL     1       5.249  10.156  21.313  0.00  0.00    -0.308 N 
HETATM    2  C   UNL     1       4.662  11.395  21.207  0.00  0.00     0.176 A 
HETATM    3  N   UNL     1       4.284  11.649  19.972  0.00  0.00    -0.216 NA
HETATM    4  C   UNL     1       4.669  10.544  19.242  0.00  0.00     0.151 A 
HETATM    5  C   UNL     1       4.550  10.196  17.883  0.00  0.00     0.155 A 
HETATM    6  N   UNL     1       5.142   9.055  17.451  0.00  0.00    -0.222 NA
HETATM    7  C   UNL     1       5.774   8.280  18.350  0.00  0.00     0.237 A 
HETATM    8  N   UNL     1       5.892   8.472  19.678  0.00  0.00    -0.222 NA
HETATM    9  C   UNL     1       5.317   9.627  20.053  0.00  0.00     0.166 A 
ENDROOT
BRANCH   2  10
HETATM   10  S   UNL     1       4.683  12.492  22.545  0.00  0.00    -0.051 SA
BRANCH  10  11
HETATM   11  C   UNL     1       5.982  13.690  22.244  0.00  0.00     0.028 C 
HETATM   12  C   UNL     1       7.117  13.364  21.488  0.00  0.00     0.060 C 
HETATM   13  C   UNL     1       8.235  14.160  21.608  0.00  0.00     0.106 C 
HETATM   14  O   UNL     1       9.465  13.870  21.096  0.00  0.00    -0.323 OA
HETATM   15  C   UNL     1       8.249  15.297  22.378  0.00  0.00     0.106 C 
HETATM   16  C   UNL     1      10.269  14.746  21.914  0.00  0.00     0.352 C 
HETATM   17  O   UNL     1       9.498  15.835  22.467  0.00  0.00    -0.323 OA
HETATM   18  C   UNL     1       7.128  15.749  23.022  0.00  0.00     0.059 C 
HETATM   19  C   UNL     1       5.983  14.931  22.958  0.00  0.00     0.026 C 
HETATM   20  I   UNL     1       4.314  15.664  24.040  0.00  0.00    -0.043 I 
ENDBRANCH  10  11
ENDBRANCH   2  10
BRANCH   1  21
HETATM   21  C   UNL     1       5.773   9.509  22.496  0.00  0.00     0.135 C 
BRANCH  21  22
HETATM   22  C   UNL     1       7.212   9.920  22.807  0.00  0.00     0.050 C 
BRANCH  22  23
HETATM   23  C   UNL     1       8.104   8.686  22.951  0.00  0.00     0.271 C 
BRANCH  23  24
HETATM   24  N   UNL     1       8.113   7.826  21.765  0.00  0.00     0.087 N 
HETATM   25  H   UNL     1       7.200   7.884  21.310  0.00  0.00     0.316 HD
BRANCH  24  26
HETATM   26  C   UNL     1       8.438   6.417  22.017  0.00  0.00     0.212 C 
HETATM   27  C   UNL     1       8.464   6.083  23.508  0.00  0.00     0.042 C 
HETATM   28  C   UNL     1       7.404   5.546  21.300  0.00  0.00     0.042 C 
ENDBRANCH  24  26
ENDBRANCH  23  24
ENDBRANCH  22  23
ENDBRANCH  21  22
ENDBRANCH   1  21
BRANCH   5  29
HETATM   29  N   UNL     1       3.871  10.965  16.950  0.00  0.00    -0.382 N 
HETATM   30  H   UNL     1       3.805  11.947  17.194  0.00  0.00     0.157 HD
HETATM   31  H   UNL     1       4.119  10.727  16.000  0.00  0.00     0.157 HD
ENDBRANCH   5  29
TORSDOF 8
ENDMDL
MODEL 7
REMARK VINA RESULT:    -6.588      3.273      4.566
REMARK INTER + INTRA:         -10.891
REMARK INTER:                  -9.686
REMARK INTRA:                  -1.205
REMARK UNBOUND:                -1.414
REMARK  8 active torsions:
REMARK  status: ('A' for Active; 'I' for Inactive)
REMARK    1  A    between atoms: C_2  and  N_4 
REMARK    2  A    between atoms: N_4  and  C_5 
REMARK    3  A    between atoms: C_5  and  C_6 
REMARK    4  A    between atoms: C_6  and  C_7 
REMARK    5  A    between atoms: C_7  and  N_8 
REMARK    6  A    between atoms: C_9  and  S_10 
REMARK    7  A    between atoms: S_10  and  C_11 
REMARK    8  A    between atoms: C_23  and  N_24 
ROOT
HETATM    1  N   UNL     1       6.552  11.455  21.065  0.00  0.00    -0.308 N 
HETATM    2  C   UNL     1       6.096  10.946  22.259  0.00  0.00     0.176 A 
HETATM    3  N   UNL     1       5.439   9.818  22.086  0.00  0.00    -0.216 NA
HETATM    4  C   UNL     1       5.442   9.604  20.724  0.00  0.00     0.151 A 
HETATM    5  C   UNL     1       4.920   8.583  19.907  0.00  0.00     0.155 A 
HETATM    6  N   UNL     1       5.002   8.724  18.561  0.00  0.00    -0.222 NA
HETATM    7  C   UNL     1       5.623   9.808  18.065  0.00  0.00     0.237 A 
HETATM    8  N   UNL     1       6.220  10.808  18.743  0.00  0.00    -0.222 NA
HETATM    9  C   UNL     1       6.087  10.640  20.069  0.00  0.00     0.166 A 
ENDROOT
BRANCH   2  10
HETATM   10  S   UNL     1       6.223  11.874  23.713  0.00  0.00    -0.051 SA
BRANCH  10  11
HETATM   11  C   UNL     1       4.696  12.792  23.907  0.00  0.00     0.028 C 
HETATM   12  C   UNL     1       3.460  12.140  24.019  0.00  0.00     0.060 C 
HETATM   13  C   UNL     1       2.312  12.863  23.777  0.00  0.00     0.106 C 
HETATM   14  O   UNL     1       1.061  12.335  23.657  0.00  0.00    -0.323 OA
HETATM   15  C   UNL     1       2.335  14.209  23.509  0.00  0.00     0.106 C 
HETATM   16  C   UNL     1       0.417  13.423  22.961  0.00  0.00     0.352 C 
HETATM   17  O   UNL     1       1.106  14.678  23.155  0.00  0.00    -0.323 OA
HETATM   18  C   UNL     1       3.498  14.932  23.533  0.00  0.00     0.059 C 
HETATM   19  C   UNL     1       4.693  14.212  23.728  0.00  0.00     0.026 C 
HETATM   20  I   UNL     1       6.453  15.392  23.679  0.00  0.00    -0.043 I 
ENDBRANCH  10  11
ENDBRANCH   2  10
BRANCH   1  21
HETATM   21  C   UNL     1       7.326  12.656  20.839  0.00  0.00     0.135 C 
BRANCH  21  22
HETATM   22  C   UNL     1       8.821  12.377  20.691  0.00  0.00     0.050 C 
BRANCH  22  23
HETATM   23  C   UNL     1       9.595  12.948  21.880  0.00  0.00     0.271 C 
BRANCH  23  24
HETATM   24  N   UNL     1      10.385  14.137  21.549  0.00  0.00     0.087 N 
HETATM   25  H   UNL     1      11.365  13.867  21.460  0.00  0.00     0.316 HD
BRANCH  24  26
HETATM   26  C   UNL     1      10.274  15.247  22.504  0.00  0.00     0.212 C 
HETATM   27  C   UNL     1      11.575  15.487  23.269  0.00  0.00     0.042 C 
HETATM   28  C   UNL     1       9.874  16.508  21.735  0.00  0.00     0.042 C 
ENDBRANCH  24  26
ENDBRANCH  23  24
ENDBRANCH  22  23
ENDBRANCH  21  22
ENDBRANCH   1  21
BRANCH   5  29
HETATM   29  N   UNL     1       4.308   7.440  20.401  0.00  0.00    -0.382 N 
HETATM   30  H   UNL     1       4.109   7.477  21.395  0.00  0.00     0.157 HD
HETATM   31  H   UNL     1       3.589   7.090  19.784  0.00  0.00     0.157 HD
ENDBRANCH   5  29
TORSDOF 8
ENDMDL
MODEL 8
REMARK VINA RESULT:    -6.496      3.158      4.166
REMARK INTER + INTRA:         -10.758
REMARK INTER:                  -9.442
REMARK INTRA:                  -1.317
REMARK UNBOUND:                -1.414
REMARK  8 active torsions:
REMARK  status: ('A' for Active; 'I' for Inactive)
REMARK    1  A    between atoms: C_2  and  N_4 
REMARK    2  A    between atoms: N_4  and  C_5 
REMARK    3  A    between atoms: C_5  and  C_6 
REMARK    4  A    between atoms: C_6  and  C_7 
REMARK    5  A    between atoms: C_7  and  N_8 
REMARK    6  A    between atoms: C_9  and  S_10 
REMARK    7  A    between atoms: S_10  and  C_11 
REMARK    8  A    between atoms: C_23  and  N_24 
ROOT
HETATM    1  N   UNL     1       6.731  11.446  20.993  0.00  0.00    -0.308 N 
HETATM    2  C   UNL     1       6.320  10.938  22.204  0.00  0.00     0.176 A 
HETATM    3  N   UNL     1       5.612   9.838  22.053  0.00  0.00    -0.216 NA
HETATM    4  C   UNL     1       5.536   9.642  20.691  0.00  0.00     0.151 A 
HETATM    5  C   UNL     1       4.933   8.652  19.891  0.00  0.00     0.155 A 
HETATM    6  N   UNL     1       4.949   8.807  18.544  0.00  0.00    -0.222 NA
HETATM    7  C   UNL     1       5.585   9.874  18.029  0.00  0.00     0.237 A 
HETATM    8  N   UNL     1       6.254  10.841  18.684  0.00  0.00    -0.222 NA
HETATM    9  C   UNL     1       6.184  10.662  20.015  0.00  0.00     0.166 A 
ENDROOT
BRANCH   2  10
HETATM   10  S   UNL     1       6.557  11.843  23.660  0.00  0.00    -0.051 SA
BRANCH  10  11
HETATM   11  C   UNL     1       5.123  12.892  23.888  0.00  0.00     0.028 C 
HETATM   12  C   UNL     1       3.845  12.352  24.084  0.00  0.00     0.060 C 
HETATM   13  C   UNL     1       2.750  13.160  23.868  0.00  0.00     0.106 C 
HETATM   14  O   UNL     1       1.454  12.736  23.828  0.00  0.00    -0.323 OA
HETATM   15  C   UNL     1       2.870  14.489  23.544  0.00  0.00     0.106 C 
HETATM   16  C   UNL     1       0.869  13.848  23.120  0.00  0.00     0.352 C 
HETATM   17  O   UNL     1       1.668  15.046  23.229  0.00  0.00    -0.323 OA
HETATM   18  C   UNL     1       4.089  15.111  23.483  0.00  0.00     0.059 C 
HETATM   19  C   UNL     1       5.228  14.300  23.651  0.00  0.00     0.026 C 
HETATM   20  I   UNL     1       7.075  15.325  23.471  0.00  0.00    -0.043 I 
ENDBRANCH  10  11
ENDBRANCH   2  10
BRANCH   1  21
HETATM   21  C   UNL     1       7.537  12.620  20.740  0.00  0.00     0.135 C 
BRANCH  21  22
HETATM   22  C   UNL     1       8.984  12.278  20.384  0.00  0.00     0.050 C 
BRANCH  22  23
HETATM   23  C   UNL     1       9.815  12.070  21.651  0.00  0.00     0.271 C 
BRANCH  23  24
HETATM   24  N   UNL     1      10.175  10.670  21.892  0.00  0.00     0.087 N 
HETATM   25  H   UNL     1       9.383  10.078  21.638  0.00  0.00     0.316 HD
BRANCH  24  26
HETATM   26  C   UNL     1      10.591  10.359  23.265  0.00  0.00     0.212 C 
HETATM   27  C   UNL     1      10.362  11.530  24.221  0.00  0.00     0.042 C 
HETATM   28  C   UNL     1       9.812   9.131  23.740  0.00  0.00     0.042 C 
ENDBRANCH  24  26
ENDBRANCH  23  24
ENDBRANCH  22  23
ENDBRANCH  21  22
ENDBRANCH   1  21
BRANCH   5  29
HETATM   29  N   UNL     1       4.305   7.526  20.404  0.00  0.00    -0.382 N 
HETATM   30  H   UNL     1       3.994   6.870  19.697  0.00  0.00     0.157 HD
HETATM   31  H   UNL     1       4.778   7.159  21.219  0.00  0.00     0.157 HD
ENDBRANCH   5  29
TORSDOF 8
ENDMDL
MODEL 9
REMARK VINA RESULT:    -6.403      4.204      7.316
REMARK INTER + INTRA:         -10.625
REMARK INTER:                  -9.102
REMARK INTRA:                  -1.524
REMARK UNBOUND:                -1.414
REMARK  8 active torsions:
REMARK  status: ('A' for Active; 'I' for Inactive)
REMARK    1  A    between atoms: C_2  and  N_4 
REMARK    2  A    between atoms: N_4  and  C_5 
REMARK    3  A    between atoms: C_5  and  C_6 
REMARK    4  A    between atoms: C_6  and  C_7 
REMARK    5  A    between atoms: C_7  and  N_8 
REMARK    6  A    between atoms: C_9  and  S_10 
REMARK    7  A    between atoms: S_10  and  C_11 
REMARK    8  A    between atoms: C_23  and  N_24 
ROOT
HETATM    1  N   UNL     1      10.193  13.844  23.067  0.00  0.00    -0.308 N 
HETATM    2  C   UNL     1       9.857  12.517  23.210  0.00  0.00     0.176 A 
HETATM    3  N   UNL     1      10.117  12.079  24.424  0.00  0.00    -0.216 NA
HETATM    4  C   UNL     1      10.671  13.155  25.085  0.00  0.00     0.151 A 
HETATM    5  C   UNL     1      11.150  13.339  26.396  0.00  0.00     0.155 A 
HETATM    6  N   UNL     1      11.746  14.515  26.711  0.00  0.00    -0.222 NA
HETATM    7  C   UNL     1      11.808  15.474  25.770  0.00  0.00     0.237 A 
HETATM    8  N   UNL     1      11.325  15.441  24.513  0.00  0.00    -0.222 NA
HETATM    9  C   UNL     1      10.772  14.247  24.239  0.00  0.00     0.166 A 
ENDROOT
BRANCH   2  10
HETATM   10  S   UNL     1       9.383  11.580  21.835  0.00  0.00    -0.051 SA
BRANCH  10  11
HETATM   11  C   UNL     1       7.627  11.251  21.981  0.00  0.00     0.028 C 
HETATM   12  C   UNL     1       6.670  12.173  21.534  0.00  0.00     0.060 C 
HETATM   13  C   UNL     1       5.380  12.061  22.007  0.00  0.00     0.106 C 
HETATM   14  O   UNL     1       4.393  12.983  21.822  0.00  0.00    -0.323 OA
HETATM   15  C   UNL     1       4.987  11.038  22.834  0.00  0.00     0.106 C 
HETATM   16  C   UNL     1       3.505  12.586  22.887  0.00  0.00     0.352 C 
HETATM   17  O   UNL     1       3.717  11.216  23.293  0.00  0.00    -0.323 OA
HETATM   18  C   UNL     1       5.839  10.024  23.186  0.00  0.00     0.059 C 
HETATM   19  C   UNL     1       7.176  10.137  22.759  0.00  0.00     0.026 C 
HETATM   20  I   UNL     1       8.444   8.566  23.406  0.00  0.00    -0.043 I 
ENDBRANCH  10  11
ENDBRANCH   2  10
BRANCH   1  21
HETATM   21  C   UNL     1      10.043  14.686  21.901  0.00  0.00     0.135 C 
BRANCH  21  22
HETATM   22  C   UNL     1       8.586  15.049  21.617  0.00  0.00     0.050 C 
BRANCH  22  23
HETATM   23  C   UNL     1       7.942  15.696  22.845  0.00  0.00     0.271 C 
BRANCH  23  24
HETATM   24  N   UNL     1       6.518  15.387  22.992  0.00  0.00     0.087 N 
HETATM   25  H   UNL     1       5.975  16.217  22.748  0.00  0.00     0.316 HD
BRANCH  24  26
HETATM   26  C   UNL     1       6.113  14.919  24.323  0.00  0.00     0.212 C 
HETATM   27  C   UNL     1       7.250  15.008  25.341  0.00  0.00     0.042 C 
HETATM   28  C   UNL     1       4.922  15.758  24.789  0.00  0.00     0.042 C 
ENDBRANCH  24  26
ENDBRANCH  23  24
ENDBRANCH  22  23
ENDBRANCH  21  22
ENDBRANCH   1  21
BRANCH   5  29
HETATM   29  N   UNL     1      11.060  12.375  27.390  0.00  0.00    -0.382 N 
HETATM   30  H   UNL     1      11.328  12.705  28.310  0.00  0.00     0.157 HD
HETATM   31  H   UNL     1      10.222  11.816  27.310  0.00  0.00     0.157 HD
ENDBRANCH   5  29
TORSDOF 8
ENDMDL
