REMARK  7 active torsions:
REMARK  status: ('A' for Active; 'I' for Inactive)
REMARK    1  A    between atoms: C_7  and  N_8 
REMARK    2  A    between atoms: C_14  and  C_15 
REMARK    3  A    between atoms: C_16  and  O_17 
REMARK    4  A    between atoms: C_19  and  O_20 
REMARK    5  A    between atoms: C_22  and  C_23 
REMARK       I    between atoms: C_23  and  N_25 
REMARK    6  A    between atoms: N_25  and  C_27 
REMARK    7  A    between atoms: C_27  and  C_28 
ROOT
HETATM    1  C   UNL     1       0.023  -1.282  -0.452  0.00  0.00     0.046 C 
HETATM    2  C   UNL     1      -1.248  -1.581  -0.988  0.00  0.00     0.082 C 
HETATM    3  C   UNL     1      -2.210  -0.593  -1.187  0.00  0.00     0.075 C 
HETATM    4  C   UNL     1      -1.909   0.737  -0.893  0.00  0.00     0.084 C 
HETATM    5  C   UNL     1       0.265   0.050  -0.070  0.00  0.00     0.038 C 
HETATM    6  C   UNL     1      -0.654   1.090  -0.359  0.00  0.00     0.066 C 
ENDROOT
BRANCH   1   7
HETATM    7  C   UNL     1       1.002  -2.414  -0.316  0.00  0.00     0.172 A 
HETATM    8  N   UNL     1       2.392  -2.429  -0.351  0.00  0.00    -0.241 N 
HETATM    9  C   UNL     1       2.721  -3.776  -0.196  0.00  0.00     0.349 A 
HETATM   10  O   UNL     1       3.799  -4.352  -0.222  0.00  0.00    -0.245 OA
HETATM   11  N   UNL     1       1.527  -4.449  -0.043  0.00  0.00    -0.226 N 
HETATM   12  H   UNL     1       1.435  -5.453   0.048  0.00  0.00     0.194 HD
HETATM   13  N   UNL     1       0.482  -3.608  -0.134  0.00  0.00    -0.151 NA
BRANCH   8  14
HETATM   14  C   UNL     1       3.399  -1.427  -0.553  0.00  0.00     0.084 C 
HETATM   15  C   UNL     1       3.175  -0.200  -1.165  0.00  0.00     0.143 C 
HETATM   16  F   UNL     1       2.052   0.027  -1.855  0.00  0.00    -0.204 F 
HETATM   17  C   UNL     1       4.129   0.822  -1.169  0.00  0.00     0.044 C 
HETATM   18  C   UNL     1       5.407   0.588  -0.679  0.00  0.00     0.003 C 
HETATM   19  C   UNL     1       5.718  -0.673  -0.196  0.00  0.00     0.002 C 
HETATM   20  C   UNL     1       4.722  -1.656  -0.111  0.00  0.00     0.033 C 
ENDBRANCH   8  14
ENDBRANCH   1   7
BRANCH   2  21
HETATM   21  O   UNL     1      -1.649  -2.842  -1.358  0.00  0.00    -0.360 OA
HETATM   22  H   UNL     1      -1.001  -3.485  -0.996  0.00  0.00     0.217 HD
ENDBRANCH   2  21
BRANCH   6  23
HETATM   23  C   UNL     1      -0.218   2.542  -0.433  0.00  0.00     0.256 C 
HETATM   24  O   UNL     1      -0.599   3.175  -1.421  0.00  0.00    -0.267 OA
HETATM   25  N   UNL     1       0.676   3.132   0.483  0.00  0.00    -0.352 N 
HETATM   26  C   UNL     1       1.192   2.457   1.661  0.00  0.00     0.152 C 
BRANCH  25  27
HETATM   27  C   UNL     1       1.481   4.282   0.029  0.00  0.00     0.125 C 
BRANCH  27  28
HETATM   28  C   UNL     1       0.787   5.567  -0.451  0.00  0.00     0.015 C 
HETATM   29  C   UNL     1      -0.019   6.297   0.610  0.00  0.00     0.006 C 
ENDBRANCH  27  28
ENDBRANCH  25  27
ENDBRANCH   6  23
BRANCH   4  30
HETATM   30  O   UNL     1      -2.877   1.666  -1.123  0.00  0.00    -0.360 OA
HETATM   31  H   UNL     1      -3.512   1.328  -1.781  0.00  0.00     0.217 HD
ENDBRANCH   4  30
TORSDOF 7
