MODEL 1
REMARK VINA RESULT:    -7.544      0.000      0.000
REMARK INTER + INTRA:         -10.646
REMARK INTER:                  -9.161
REMARK INTRA:                  -1.486
REMARK UNBOUND:                -1.338
REMARK  5 active torsions:
REMARK  status: ('A' for Active; 'I' for Inactive)
REMARK    1  A    between atoms: C_2  and  C_3 
REMARK    2  A    between atoms: C_5  and  C_6 
REMARK    3  A    between atoms: C_12  and  C_13 
REMARK    4  A    between atoms: C_20  and  O_21 
REMARK    5  A    between atoms: C_23  and  O_24 
ROOT
HETATM    1  C   UNL     1      -4.097  13.580  22.452  0.00  0.00     0.103 C 
HETATM    2  N   UNL     1      -5.366  13.502  22.014  0.00  0.00    -0.173 NA
HETATM    3  N   UNL     1      -5.356  14.115  20.834  0.00  0.00    -0.281 N 
HETATM    4  H   UNL     1      -6.245  14.257  20.367  0.00  0.00     0.189 HD
HETATM    5  C   UNL     1      -4.120  14.506  20.411  0.00  0.00     0.037 C 
HETATM    6  C   UNL     1      -3.986  15.227  19.119  0.00  0.00     0.070 C 
HETATM    7  C   UNL     1      -3.235  14.094  21.405  0.00  0.00     0.031 C 
ENDROOT
BRANCH   1   8
HETATM    8  C   UNL     1      -3.827  13.175  23.847  0.00  0.00     0.029 C 
HETATM    9  C   UNL     1      -3.053  13.976  24.702  0.00  0.00     0.026 C 
HETATM   10  C   UNL     1      -2.765  13.582  26.022  0.00  0.00    -0.024 C 
HETATM   11  C   UNL     1      -3.413  12.461  26.538  0.00  0.00     0.074 C 
HETATM   12  C   UNL     1      -4.198  11.650  25.723  0.00  0.00     0.074 C 
HETATM   13  C   UNL     1      -4.364  11.989  24.386  0.00  0.00     0.081 C 
BRANCH  10  14
HETATM   14  C   UNL     1      -1.741  14.350  26.818  0.00  0.00     0.037 C 
HETATM   15  C   UNL     1      -0.721  15.062  25.953  0.00  0.00     0.010 C 
ENDBRANCH  10  14
BRANCH  11  16
HETATM   16  O   UNL     1      -3.286  12.173  27.868  0.00  0.00    -0.360 OA
HETATM   17  H   UNL     1      -2.431  12.528  28.167  0.00  0.00     0.217 HD
ENDBRANCH  11  16
BRANCH  13  18
HETATM   18  O   UNL     1      -5.096  11.100  23.631  0.00  0.00    -0.360 OA
HETATM   19  H   UNL     1      -5.204  11.524  22.750  0.00  0.00     0.217 HD
ENDBRANCH  13  18
ENDBRANCH   1   8
BRANCH   7  20
HETATM   20  C   UNL     1      -1.776  14.315  21.379  0.00  0.00     0.000 C 
HETATM   21  C   UNL     1      -1.265  15.604  21.623  0.00  0.00     0.014 C 
HETATM   22  C   UNL     1       0.104  15.829  21.802  0.00  0.00     0.001 C 
HETATM   23  C   UNL     1       0.988  14.758  21.800  0.00  0.00     0.002 C 
HETATM   24  C   UNL     1       0.518  13.484  21.498  0.00  0.00     0.024 C 
HETATM   25  C   UNL     1      -0.840  13.273  21.218  0.00  0.00     0.045 C 
HETATM   26 CL   UNL     1      -1.262  11.700  20.627  0.00  0.00    -0.083 Cl
ENDBRANCH   7  20
TORSDOF 5
ENDMDL
MODEL 2
REMARK VINA RESULT:    -7.288      1.984      2.362
REMARK INTER + INTRA:         -10.331
REMARK INTER:                  -8.870
REMARK INTRA:                  -1.461
REMARK UNBOUND:                -1.338
REMARK  5 active torsions:
REMARK  status: ('A' for Active; 'I' for Inactive)
REMARK    1  A    between atoms: C_2  and  C_3 
REMARK    2  A    between atoms: C_5  and  C_6 
REMARK    3  A    between atoms: C_12  and  C_13 
REMARK    4  A    between atoms: C_20  and  O_21 
REMARK    5  A    between atoms: C_23  and  O_24 
ROOT
HETATM    1  C   UNL     1      -3.465  12.842  22.895  0.00  0.00     0.103 C 
HETATM    2  N   UNL     1      -4.778  12.838  22.604  0.00  0.00    -0.173 NA
HETATM    3  N   UNL     1      -4.934  13.822  21.722  0.00  0.00    -0.281 N 
HETATM    4  H   UNL     1      -5.879  14.058  21.440  0.00  0.00     0.189 HD
HETATM    5  C   UNL     1      -3.772  14.414  21.327  0.00  0.00     0.037 C 
HETATM    6  C   UNL     1      -3.822  15.545  20.364  0.00  0.00     0.070 C 
HETATM    7  C   UNL     1      -2.757  13.743  22.004  0.00  0.00     0.031 C 
ENDROOT
BRANCH   1   8
HETATM    8  C   UNL     1      -3.009  11.998  24.018  0.00  0.00     0.029 C 
HETATM    9  C   UNL     1      -1.898  11.148  23.887  0.00  0.00     0.026 C 
HETATM   10  C   UNL     1      -1.477  10.317  24.941  0.00  0.00    -0.024 C 
HETATM   11  C   UNL     1      -2.068  10.480  26.194  0.00  0.00     0.074 C 
HETATM   12  C   UNL     1      -3.164  11.323  26.363  0.00  0.00     0.074 C 
HETATM   13  C   UNL     1      -3.645  12.038  25.274  0.00  0.00     0.081 C 
BRANCH  10  14
HETATM   14  C   UNL     1      -0.439   9.256  24.680  0.00  0.00     0.037 C 
HETATM   15  C   UNL     1       0.577   9.658  23.630  0.00  0.00     0.010 C 
ENDBRANCH  10  14
BRANCH  11  16
HETATM   16  O   UNL     1      -1.548   9.813  27.267  0.00  0.00    -0.360 OA
HETATM   17  H   UNL     1      -0.864   9.206  26.934  0.00  0.00     0.217 HD
ENDBRANCH  11  16
BRANCH  13  18
HETATM   18  O   UNL     1      -4.772  12.794  25.507  0.00  0.00    -0.360 OA
HETATM   19  H   UNL     1      -4.804  12.931  26.481  0.00  0.00     0.217 HD
ENDBRANCH  13  18
ENDBRANCH   1   8
BRANCH   7  20
HETATM   20  C   UNL     1      -1.319  14.054  21.892  0.00  0.00     0.000 C 
HETATM   21  C   UNL     1      -0.829  15.269  22.406  0.00  0.00     0.014 C 
HETATM   22  C   UNL     1       0.542  15.527  22.501  0.00  0.00     0.001 C 
HETATM   23  C   UNL     1       1.458  14.549  22.138  0.00  0.00     0.002 C 
HETATM   24  C   UNL     1       1.003  13.364  21.568  0.00  0.00     0.024 C 
HETATM   25  C   UNL     1      -0.370  13.146  21.379  0.00  0.00     0.045 C 
HETATM   26 CL   UNL     1      -0.799  11.748  20.450  0.00  0.00    -0.083 Cl
ENDBRANCH   7  20
TORSDOF 5
ENDMDL
MODEL 3
REMARK VINA RESULT:    -7.251      2.298      2.845
REMARK INTER + INTRA:         -10.284
REMARK INTER:                  -8.908
REMARK INTRA:                  -1.377
REMARK UNBOUND:                -1.338
REMARK  5 active torsions:
REMARK  status: ('A' for Active; 'I' for Inactive)
REMARK    1  A    between atoms: C_2  and  C_3 
REMARK    2  A    between atoms: C_5  and  C_6 
REMARK    3  A    between atoms: C_12  and  C_13 
REMARK    4  A    between atoms: C_20  and  O_21 
REMARK    5  A    between atoms: C_23  and  O_24 
ROOT
HETATM    1  C   UNL     1      -3.410  12.563  23.065  0.00  0.00     0.103 C 
HETATM    2  N   UNL     1      -4.728  12.651  22.809  0.00  0.00    -0.173 NA
HETATM    3  N   UNL     1      -4.826  13.550  21.834  0.00  0.00    -0.281 N 
HETATM    4  H   UNL     1      -5.755  13.843  21.553  0.00  0.00     0.189 HD
HETATM    5  C   UNL     1      -3.630  13.989  21.349  0.00  0.00     0.037 C 
HETATM    6  C   UNL     1      -3.612  15.016  20.276  0.00  0.00     0.070 C 
HETATM    7  C   UNL     1      -2.656  13.299  22.067  0.00  0.00     0.031 C 
ENDROOT
BRANCH   1   8
HETATM    8  C   UNL     1      -2.992  11.799  24.258  0.00  0.00     0.029 C 
HETATM    9  C   UNL     1      -1.880  10.941  24.222  0.00  0.00     0.026 C 
HETATM   10  C   UNL     1      -1.495  10.186  25.344  0.00  0.00    -0.024 C 
HETATM   11  C   UNL     1      -2.125  10.435  26.562  0.00  0.00     0.074 C 
HETATM   12  C   UNL     1      -3.223  11.288  26.638  0.00  0.00     0.074 C 
HETATM   13  C   UNL     1      -3.668  11.926  25.487  0.00  0.00     0.081 C 
BRANCH  10  14
HETATM   14  C   UNL     1      -0.452   9.108  25.191  0.00  0.00     0.037 C 
HETATM   15  C   UNL     1       0.371   9.247  23.925  0.00  0.00     0.010 C 
ENDBRANCH  10  14
BRANCH  11  16
HETATM   16  O   UNL     1      -1.641   9.844  27.695  0.00  0.00    -0.360 OA
HETATM   17  H   UNL     1      -0.673   9.793  27.611  0.00  0.00     0.217 HD
ENDBRANCH  11  16
BRANCH  13  18
HETATM   18  O   UNL     1      -4.799  12.697  25.631  0.00  0.00    -0.360 OA
HETATM   19  H   UNL     1      -5.466  12.310  25.019  0.00  0.00     0.217 HD
ENDBRANCH  13  18
ENDBRANCH   1   8
BRANCH   7  20
HETATM   20  C   UNL     1      -1.201  13.463  21.887  0.00  0.00     0.000 C 
HETATM   21  C   UNL     1      -0.472  12.477  21.196  0.00  0.00     0.014 C 
HETATM   22  C   UNL     1       0.864  12.674  20.828  0.00  0.00     0.001 C 
HETATM   23  C   UNL     1       1.484  13.887  21.094  0.00  0.00     0.002 C 
HETATM   24  C   UNL     1       0.807  14.854  21.832  0.00  0.00     0.024 C 
HETATM   25  C   UNL     1      -0.498  14.618  22.288  0.00  0.00     0.045 C 
HETATM   26 CL   UNL     1      -1.145  15.788  23.389  0.00  0.00    -0.083 Cl
ENDBRANCH   7  20
TORSDOF 5
ENDMDL
MODEL 4
REMARK VINA RESULT:    -7.122      2.153      2.572
REMARK INTER + INTRA:         -10.125
REMARK INTER:                  -8.708
REMARK INTRA:                  -1.417
REMARK UNBOUND:                -1.338
REMARK  5 active torsions:
REMARK  status: ('A' for Active; 'I' for Inactive)
REMARK    1  A    between atoms: C_2  and  C_3 
REMARK    2  A    between atoms: C_5  and  C_6 
REMARK    3  A    between atoms: C_12  and  C_13 
REMARK    4  A    between atoms: C_20  and  O_21 
REMARK    5  A    between atoms: C_23  and  O_24 
ROOT
HETATM    1  C   UNL     1      -2.983  12.710  23.358  0.00  0.00     0.103 C 
HETATM    2  N   UNL     1      -4.131  12.456  22.705  0.00  0.00    -0.173 NA
HETATM    3  N   UNL     1      -4.131  13.299  21.677  0.00  0.00    -0.281 N 
HETATM    4  H   UNL     1      -4.964  13.343  21.101  0.00  0.00     0.189 HD
HETATM    5  C   UNL     1      -2.988  14.031  21.547  0.00  0.00     0.037 C 
HETATM    6  C   UNL     1      -2.881  15.028  20.450  0.00  0.00     0.070 C 
HETATM    7  C   UNL     1      -2.155  13.616  22.583  0.00  0.00     0.031 C 
ENDROOT
BRANCH   1   8
HETATM    8  C   UNL     1      -2.792  12.080  24.680  0.00  0.00     0.029 C 
HETATM    9  C   UNL     1      -1.609  11.392  24.996  0.00  0.00     0.026 C 
HETATM   10  C   UNL     1      -1.432  10.761  26.241  0.00  0.00    -0.024 C 
HETATM   11  C   UNL     1      -2.380  10.982  27.239  0.00  0.00     0.074 C 
HETATM   12  C   UNL     1      -3.560  11.670  26.966  0.00  0.00     0.074 C 
HETATM   13  C   UNL     1      -3.771  12.174  25.689  0.00  0.00     0.081 C 
BRANCH  10  14
HETATM   14  C   UNL     1      -0.258   9.839  26.446  0.00  0.00     0.037 C 
HETATM   15  C   UNL     1      -0.587   8.383  26.182  0.00  0.00     0.010 C 
ENDBRANCH  10  14
BRANCH  11  16
HETATM   16  O   UNL     1      -2.132  10.529  28.504  0.00  0.00    -0.360 OA
HETATM   17  H   UNL     1      -1.177  10.613  28.666  0.00  0.00     0.217 HD
ENDBRANCH  11  16
BRANCH  13  18
HETATM   18  O   UNL     1      -4.989  12.781  25.480  0.00  0.00    -0.360 OA
HETATM   19  H   UNL     1      -5.188  12.659  24.524  0.00  0.00     0.217 HD
ENDBRANCH  13  18
ENDBRANCH   1   8
BRANCH   7  20
HETATM   20  C   UNL     1      -0.804  14.148  22.844  0.00  0.00     0.000 C 
HETATM   21  C   UNL     1      -0.657  15.336  23.584  0.00  0.00     0.014 C 
HETATM   22  C   UNL     1       0.595  15.778  24.025  0.00  0.00     0.001 C 
HETATM   23  C   UNL     1       1.725  15.007  23.785  0.00  0.00     0.002 C 
HETATM   24  C   UNL     1       1.618  13.862  23.001  0.00  0.00     0.024 C 
HETATM   25  C   UNL     1       0.377  13.473  22.474  0.00  0.00     0.045 C 
HETATM   26 CL   UNL     1       0.409  12.175  21.327  0.00  0.00    -0.083 Cl
ENDBRANCH   7  20
TORSDOF 5
ENDMDL
MODEL 5
REMARK VINA RESULT:    -7.050      2.811      3.518
REMARK INTER + INTRA:         -10.037
REMARK INTER:                  -8.658
REMARK INTRA:                  -1.378
REMARK UNBOUND:                -1.338
REMARK  5 active torsions:
REMARK  status: ('A' for Active; 'I' for Inactive)
REMARK    1  A    between atoms: C_2  and  C_3 
REMARK    2  A    between atoms: C_5  and  C_6 
REMARK    3  A    between atoms: C_12  and  C_13 
REMARK    4  A    between atoms: C_20  and  O_21 
REMARK    5  A    between atoms: C_23  and  O_24 
ROOT
HETATM    1  C   UNL     1      -1.920  11.533  22.905  0.00  0.00     0.103 C 
HETATM    2  N   UNL     1      -2.457  10.915  21.838  0.00  0.00    -0.173 NA
HETATM    3  N   UNL     1      -1.688  11.275  20.815  0.00  0.00    -0.281 N 
HETATM    4  H   UNL     1      -1.977  10.994  19.884  0.00  0.00     0.189 HD
HETATM    5  C   UNL     1      -0.598  12.016  21.161  0.00  0.00     0.037 C 
HETATM    6  C   UNL     1       0.321  12.500  20.099  0.00  0.00     0.070 C 
HETATM    7  C   UNL     1      -0.652  12.141  22.547  0.00  0.00     0.031 C 
ENDROOT
BRANCH   1   8
HETATM    8  C   UNL     1      -2.683  11.505  24.170  0.00  0.00     0.029 C 
HETATM    9  C   UNL     1      -2.077  11.126  25.379  0.00  0.00     0.026 C 
HETATM   10  C   UNL     1      -2.805  11.066  26.582  0.00  0.00    -0.024 C 
HETATM   11  C   UNL     1      -4.106  11.567  26.598  0.00  0.00     0.074 C 
HETATM   12  C   UNL     1      -4.734  11.963  25.420  0.00  0.00     0.074 C 
HETATM   13  C   UNL     1      -4.037  11.892  24.221  0.00  0.00     0.081 C 
BRANCH  10  14
HETATM   14  C   UNL     1      -2.180  10.429  27.796  0.00  0.00     0.037 C 
HETATM   15  C   UNL     1      -1.193   9.330  27.454  0.00  0.00     0.010 C 
ENDBRANCH  10  14
BRANCH  11  16
HETATM   16  O   UNL     1      -4.759  11.684  27.793  0.00  0.00    -0.360 OA
HETATM   17  H   UNL     1      -4.126  11.464  28.498  0.00  0.00     0.217 HD
ENDBRANCH  11  16
BRANCH  13  18
HETATM   18  O   UNL     1      -4.750  12.235  23.095  0.00  0.00    -0.360 OA
HETATM   19  H   UNL     1      -4.684  11.460  22.491  0.00  0.00     0.217 HD
ENDBRANCH  13  18
ENDBRANCH   1   8
BRANCH   7  20
HETATM   20  C   UNL     1       0.328  12.879  23.367  0.00  0.00     0.000 C 
HETATM   21  C   UNL     1       1.314  12.169  24.077  0.00  0.00     0.014 C 
HETATM   22  C   UNL     1       2.379  12.821  24.707  0.00  0.00     0.001 C 
HETATM   23  C   UNL     1       2.513  14.198  24.591  0.00  0.00     0.002 C 
HETATM   24  C   UNL     1       1.519  14.931  23.950  0.00  0.00     0.024 C 
HETATM   25  C   UNL     1       0.399  14.286  23.404  0.00  0.00     0.045 C 
HETATM   26 CL   UNL     1      -0.877  15.317  22.846  0.00  0.00    -0.083 Cl
ENDBRANCH   7  20
TORSDOF 5
ENDMDL
MODEL 6
REMARK VINA RESULT:    -6.959      2.564      3.498
REMARK INTER + INTRA:          -9.925
REMARK INTER:                  -8.729
REMARK INTRA:                  -1.196
REMARK UNBOUND:                -1.338
REMARK  5 active torsions:
REMARK  status: ('A' for Active; 'I' for Inactive)
REMARK    1  A    between atoms: C_2  and  C_3 
REMARK    2  A    between atoms: C_5  and  C_6 
REMARK    3  A    between atoms: C_12  and  C_13 
REMARK    4  A    between atoms: C_20  and  O_21 
REMARK    5  A    between atoms: C_23  and  O_24 
ROOT
HETATM    1  C   UNL     1      -3.343  12.082  24.200  0.00  0.00     0.103 C 
HETATM    2  N   UNL     1      -4.471  11.627  23.625  0.00  0.00    -0.173 NA
HETATM    3  N   UNL     1      -4.908  12.642  22.886  0.00  0.00    -0.281 N 
HETATM    4  H   UNL     1      -5.812  12.545  22.437  0.00  0.00     0.189 HD
HETATM    5  C   UNL     1      -4.071  13.718  22.852  0.00  0.00     0.037 C 
HETATM    6  C   UNL     1      -4.466  14.924  22.080  0.00  0.00     0.070 C 
HETATM    7  C   UNL     1      -2.973  13.365  23.633  0.00  0.00     0.031 C 
ENDROOT
BRANCH   1   8
HETATM    8  C   UNL     1      -2.731  11.254  25.260  0.00  0.00     0.029 C 
HETATM    9  C   UNL     1      -1.694  10.352  24.973  0.00  0.00     0.026 C 
HETATM   10  C   UNL     1      -1.129   9.537  25.971  0.00  0.00    -0.024 C 
HETATM   11  C   UNL     1      -1.487   9.766  27.299  0.00  0.00     0.074 C 
HETATM   12  C   UNL     1      -2.503  10.662  27.621  0.00  0.00     0.074 C 
HETATM   13  C   UNL     1      -3.138  11.363  26.604  0.00  0.00     0.081 C 
BRANCH  10  14
HETATM   14  C   UNL     1      -0.194   8.422  25.577  0.00  0.00     0.037 C 
HETATM   15  C   UNL     1       0.317   8.544  24.155  0.00  0.00     0.010 C 
ENDBRANCH  10  14
BRANCH  11  16
HETATM   16  O   UNL     1      -0.814   9.111  28.292  0.00  0.00    -0.360 OA
HETATM   17  H   UNL     1      -0.951   8.157  28.162  0.00  0.00     0.217 HD
ENDBRANCH  11  16
BRANCH  13  18
HETATM   18  O   UNL     1      -4.177  12.176  26.998  0.00  0.00    -0.360 OA
HETATM   19  H   UNL     1      -4.899  11.570  27.278  0.00  0.00     0.217 HD
ENDBRANCH  13  18
ENDBRANCH   1   8
BRANCH   7  20
HETATM   20  C   UNL     1      -1.809  14.234  23.892  0.00  0.00     0.000 C 
HETATM   21  C   UNL     1      -1.636  14.800  25.169  0.00  0.00     0.014 C 
HETATM   22  C   UNL     1      -0.458  15.466  25.524  0.00  0.00     0.001 C 
HETATM   23  C   UNL     1       0.598  15.531  24.626  0.00  0.00     0.002 C 
HETATM   24  C   UNL     1       0.430  15.037  23.336  0.00  0.00     0.024 C 
HETATM   25  C   UNL     1      -0.787  14.458  22.947  0.00  0.00     0.045 C 
HETATM   26 CL   UNL     1      -0.956  14.098  21.262  0.00  0.00    -0.083 Cl
ENDBRANCH   7  20
TORSDOF 5
ENDMDL
MODEL 7
REMARK VINA RESULT:    -6.867      3.524      5.860
REMARK INTER + INTRA:          -9.812
REMARK INTER:                  -8.473
REMARK INTRA:                  -1.338
REMARK UNBOUND:                -1.338
REMARK  5 active torsions:
REMARK  status: ('A' for Active; 'I' for Inactive)
REMARK    1  A    between atoms: C_2  and  C_3 
REMARK    2  A    between atoms: C_5  and  C_6 
REMARK    3  A    between atoms: C_12  and  C_13 
REMARK    4  A    between atoms: C_20  and  O_21 
REMARK    5  A    between atoms: C_23  and  O_24 
ROOT
HETATM    1  C   UNL     1      -2.764  13.054  24.667  0.00  0.00     0.103 C 
HETATM    2  N   UNL     1      -3.910  13.749  24.786  0.00  0.00    -0.173 NA
HETATM    3  N   UNL     1      -4.800  12.864  25.227  0.00  0.00    -0.281 N 
HETATM    4  H   UNL     1      -5.767  13.159  25.293  0.00  0.00     0.189 HD
HETATM    5  C   UNL     1      -4.281  11.636  25.512  0.00  0.00     0.037 C 
HETATM    6  C   UNL     1      -5.184  10.556  25.986  0.00  0.00     0.070 C 
HETATM    7  C   UNL     1      -2.917  11.732  25.246  0.00  0.00     0.031 C 
ENDROOT
BRANCH   1   8
HETATM    8  C   UNL     1      -1.630  13.713  23.987  0.00  0.00     0.029 C 
HETATM    9  C   UNL     1      -1.025  13.139  22.858  0.00  0.00     0.026 C 
HETATM   10  C   UNL     1       0.077  13.743  22.224  0.00  0.00    -0.024 C 
HETATM   11  C   UNL     1       0.453  15.025  22.623  0.00  0.00     0.074 C 
HETATM   12  C   UNL     1      -0.134  15.630  23.732  0.00  0.00     0.074 C 
HETATM   13  C   UNL     1      -1.134  14.957  24.422  0.00  0.00     0.081 C 
BRANCH  10  14
HETATM   14  C   UNL     1       0.839  12.979  21.172  0.00  0.00     0.037 C 
HETATM   15  C   UNL     1       0.099  11.756  20.668  0.00  0.00     0.010 C 
ENDBRANCH  10  14
BRANCH  11  16
HETATM   16  O   UNL     1       1.397  15.697  21.899  0.00  0.00    -0.360 OA
HETATM   17  H   UNL     1       2.256  15.271  22.067  0.00  0.00     0.217 HD
ENDBRANCH  11  16
BRANCH  13  18
HETATM   18  O   UNL     1      -1.614  15.591  25.546  0.00  0.00    -0.360 OA
HETATM   19  H   UNL     1      -1.776  16.524  25.278  0.00  0.00     0.217 HD
ENDBRANCH  13  18
ENDBRANCH   1   8
BRANCH   7  20
HETATM   20  C   UNL     1      -1.948  10.631  25.403  0.00  0.00     0.000 C 
HETATM   21  C   UNL     1      -1.415  10.006  24.260  0.00  0.00     0.014 C 
HETATM   22  C   UNL     1      -0.355   9.098  24.346  0.00  0.00     0.001 C 
HETATM   23  C   UNL     1       0.236   8.838  25.574  0.00  0.00     0.002 C 
HETATM   24  C   UNL     1      -0.311   9.391  26.728  0.00  0.00     0.024 C 
HETATM   25  C   UNL     1      -1.438  10.224  26.653  0.00  0.00     0.045 C 
HETATM   26 CL   UNL     1      -2.166  10.659  28.164  0.00  0.00    -0.083 Cl
ENDBRANCH   7  20
TORSDOF 5
ENDMDL
MODEL 8
REMARK VINA RESULT:    -6.836      3.437      4.075
REMARK INTER + INTRA:          -9.772
REMARK INTER:                  -8.441
REMARK INTRA:                  -1.331
REMARK UNBOUND:                -1.338
REMARK  5 active torsions:
REMARK  status: ('A' for Active; 'I' for Inactive)
REMARK    1  A    between atoms: C_2  and  C_3 
REMARK    2  A    between atoms: C_5  and  C_6 
REMARK    3  A    between atoms: C_12  and  C_13 
REMARK    4  A    between atoms: C_20  and  O_21 
REMARK    5  A    between atoms: C_23  and  O_24 
ROOT
HETATM    1  C   UNL     1      -1.747  11.691  22.391  0.00  0.00     0.103 C 
HETATM    2  N   UNL     1      -2.852  11.296  21.735  0.00  0.00    -0.173 NA
HETATM    3  N   UNL     1      -3.212  12.350  21.010  0.00  0.00    -0.281 N 
HETATM    4  H   UNL     1      -4.091  12.300  20.506  0.00  0.00     0.189 HD
HETATM    5  C   UNL     1      -2.340  13.397  21.064  0.00  0.00     0.037 C 
HETATM    6  C   UNL     1      -2.650  14.642  20.315  0.00  0.00     0.070 C 
HETATM    7  C   UNL     1      -1.303  12.980  21.894  0.00  0.00     0.031 C 
ENDROOT
BRANCH   1   8
HETATM    8  C   UNL     1      -1.226  10.807  23.454  0.00  0.00     0.029 C 
HETATM    9  C   UNL     1      -0.021  10.104  23.292  0.00  0.00     0.026 C 
HETATM   10  C   UNL     1       0.465   9.235  24.286  0.00  0.00    -0.024 C 
HETATM   11  C   UNL     1      -0.175   9.216  25.525  0.00  0.00     0.074 C 
HETATM   12  C   UNL     1      -1.365   9.911  25.725  0.00  0.00     0.074 C 
HETATM   13  C   UNL     1      -1.896  10.662  24.684  0.00  0.00     0.081 C 
BRANCH  10  14
HETATM   14  C   UNL     1       1.625   8.325  23.974  0.00  0.00     0.037 C 
HETATM   15  C   UNL     1       1.206   6.896  23.691  0.00  0.00     0.010 C 
ENDBRANCH  10  14
BRANCH  11  16
HETATM   16  O   UNL     1       0.390   8.519  26.555  0.00  0.00    -0.360 OA
HETATM   17  H   UNL     1       0.864   9.156  27.118  0.00  0.00     0.217 HD
ENDBRANCH  11  16
BRANCH  13  18
HETATM   18  O   UNL     1      -3.109  11.262  24.939  0.00  0.00    -0.360 OA
HETATM   19  H   UNL     1      -2.948  11.885  25.683  0.00  0.00     0.217 HD
ENDBRANCH  13  18
ENDBRANCH   1   8
BRANCH   7  20
HETATM   20  C   UNL     1      -0.129  13.799  22.252  0.00  0.00     0.000 C 
HETATM   21  C   UNL     1       1.112  13.538  21.643  0.00  0.00     0.014 C 
HETATM   22  C   UNL     1       2.203  14.400  21.797  0.00  0.00     0.001 C 
HETATM   23  C   UNL     1       2.058  15.576  22.520  0.00  0.00     0.002 C 
HETATM   24  C   UNL     1       0.863  15.828  23.186  0.00  0.00     0.024 C 
HETATM   25  C   UNL     1      -0.199  14.913  23.113  0.00  0.00     0.045 C 
HETATM   26 CL   UNL     1      -1.539  15.216  24.168  0.00  0.00    -0.083 Cl
ENDBRANCH   7  20
TORSDOF 5
ENDMDL
