MODEL 1
REMARK VINA RESULT:    -8.068      0.000      0.000
REMARK INTER + INTRA:         -13.943
REMARK INTER:                 -11.383
REMARK INTRA:                  -2.560
REMARK UNBOUND:                -1.630
REMARK  10 active torsions:
REMARK  status: ('A' for Active; 'I' for Inactive)
REMARK    1  A    between atoms: C_7  and  N_8 
REMARK    2  A    between atoms: C_12  and  C_13 
REMARK    3  A    between atoms: C_14  and  O_15 
REMARK    4  A    between atoms: C_17  and  O_18 
REMARK    5  A    between atoms: C_20  and  C_21 
REMARK       I    between atoms: C_21  and  N_23 
REMARK    6  A    between atoms: N_23  and  C_25 
REMARK    7  A    between atoms: C_25  and  C_26 
REMARK    8  A    between atoms: C_26  and  C_27 
REMARK    9  A    between atoms: C_27  and  C_28 
REMARK   10  A    between atoms: C_28  and  C_29 
ROOT
HETATM    1  C   UNL     1       7.753  11.422  22.950  0.00  0.00     0.027 C 
HETATM    2  C   UNL     1       7.661  10.922  21.629  0.00  0.00     0.081 C 
HETATM    3  C   UNL     1       6.440  10.697  20.997  0.00  0.00     0.075 C 
HETATM    4  C   UNL     1       5.242  11.080  21.586  0.00  0.00     0.084 C 
HETATM    5  C   UNL     1       6.494  11.703  23.559  0.00  0.00     0.036 C 
HETATM    6  C   UNL     1       5.223  11.680  22.853  0.00  0.00     0.066 C 
ENDROOT
BRANCH   1   7
HETATM    7  C   UNL     1       9.115  11.568  23.573  0.00  0.00     0.073 C 
HETATM    8  N   UNL     1      10.057  12.634  23.606  0.00  0.00    -0.233 N 
HETATM    9  N   UNL     1      11.235  12.227  24.182  0.00  0.00    -0.179 NA
HETATM   10  C   UNL     1      11.054  10.977  24.560  0.00  0.00     0.141 C 
HETATM   11  C   UNL     1       9.758  10.554  24.302  0.00  0.00     0.053 C 
BRANCH   8  12
HETATM   12  C   UNL     1      10.038  14.004  23.183  0.00  0.00     0.065 C 
HETATM   13  C   UNL     1      10.076  15.111  24.026  0.00  0.00    -0.033 C 
HETATM   14  C   UNL     1       9.603  15.067  25.451  0.00  0.00     0.050 C 
HETATM   15  C   UNL     1      10.301  16.386  23.468  0.00  0.00     0.009 C 
HETATM   16  C   UNL     1      10.232  16.596  22.091  0.00  0.00     0.001 C 
HETATM   17  C   UNL     1       9.949  15.529  21.253  0.00  0.00     0.002 C 
HETATM   18  C   UNL     1       9.889  14.240  21.786  0.00  0.00     0.032 C 
ENDBRANCH   8  12
ENDBRANCH   1   7
BRANCH   2  19
HETATM   19  O   UNL     1       8.730  10.632  20.830  0.00  0.00    -0.360 OA
HETATM   20  H   UNL     1       9.177  11.469  20.612  0.00  0.00     0.217 HD
ENDBRANCH   2  19
BRANCH   6  21
HETATM   21  C   UNL     1       4.051  12.407  23.515  0.00  0.00     0.256 C 
HETATM   22  O   UNL     1       3.234  12.893  22.722  0.00  0.00    -0.267 OA
HETATM   23  N   UNL     1       3.773  12.493  24.907  0.00  0.00    -0.352 N 
HETATM   24  C   UNL     1       4.576  12.005  26.012  0.00  0.00     0.152 C 
BRANCH  23  25
HETATM   25  C   UNL     1       2.586  13.252  25.351  0.00  0.00     0.125 C 
BRANCH  25  26
HETATM   26  C   UNL     1       2.929  14.547  26.103  0.00  0.00     0.020 C 
BRANCH  26  27
HETATM   27  C   UNL     1       3.300  15.677  25.146  0.00  0.00     0.002 C 
BRANCH  27  28
HETATM   28  C   UNL     1       4.808  15.776  24.909  0.00  0.00    -0.000 C 
BRANCH  28  29
HETATM   29  C   UNL     1       5.097  15.927  23.413  0.00  0.00    -0.005 C 
HETATM   30  C   UNL     1       6.429  15.309  23.022  0.00  0.00     0.005 C 
ENDBRANCH  28  29
ENDBRANCH  27  28
ENDBRANCH  26  27
ENDBRANCH  25  26
ENDBRANCH  23  25
ENDBRANCH   6  21
BRANCH   4  31
HETATM   31  O   UNL     1       4.141  10.767  20.862  0.00  0.00    -0.360 OA
HETATM   32  H   UNL     1       3.369  11.182  21.289  0.00  0.00     0.217 HD
ENDBRANCH   4  31
TORSDOF 10
ENDMDL
MODEL 2
REMARK VINA RESULT:    -7.890      2.132      4.114
REMARK INTER + INTRA:         -13.671
REMARK INTER:                 -10.669
REMARK INTRA:                  -3.002
REMARK UNBOUND:                -1.630
REMARK  10 active torsions:
REMARK  status: ('A' for Active; 'I' for Inactive)
REMARK    1  A    between atoms: C_7  and  N_8 
REMARK    2  A    between atoms: C_12  and  C_13 
REMARK    3  A    between atoms: C_14  and  O_15 
REMARK    4  A    between atoms: C_17  and  O_18 
REMARK    5  A    between atoms: C_20  and  C_21 
REMARK       I    between atoms: C_21  and  N_23 
REMARK    6  A    between atoms: N_23  and  C_25 
REMARK    7  A    between atoms: C_25  and  C_26 
REMARK    8  A    between atoms: C_26  and  C_27 
REMARK    9  A    between atoms: C_27  and  C_28 
REMARK   10  A    between atoms: C_28  and  C_29 
ROOT
HETATM    1  C   UNL     1       8.019  12.839  22.220  0.00  0.00     0.027 C 
HETATM    2  C   UNL     1       8.339  13.011  20.851  0.00  0.00     0.081 C 
HETATM    3  C   UNL     1       7.912  12.122  19.866  0.00  0.00     0.075 C 
HETATM    4  C   UNL     1       7.035  11.087  20.160  0.00  0.00     0.084 C 
HETATM    5  C   UNL     1       7.202  11.702  22.492  0.00  0.00     0.036 C 
HETATM    6  C   UNL     1       6.571  10.886  21.468  0.00  0.00     0.066 C 
ENDROOT
BRANCH   1   7
HETATM    7  C   UNL     1       8.580  13.814  23.219  0.00  0.00     0.073 C 
HETATM    8  N   UNL     1       7.979  14.769  24.086  0.00  0.00    -0.233 N 
HETATM    9  N   UNL     1       8.936  15.534  24.707  0.00  0.00    -0.179 NA
HETATM   10  C   UNL     1      10.104  15.066  24.313  0.00  0.00     0.141 C 
HETATM   11  C   UNL     1       9.951  13.963  23.484  0.00  0.00     0.053 C 
BRANCH   8  12
HETATM   12  C   UNL     1       6.628  15.090  24.443  0.00  0.00     0.065 C 
HETATM   13  C   UNL     1       6.056  14.899  25.697  0.00  0.00    -0.033 C 
HETATM   14  C   UNL     1       6.552  13.868  26.671  0.00  0.00     0.050 C 
HETATM   15  C   UNL     1       4.804  15.486  25.973  0.00  0.00     0.009 C 
HETATM   16  C   UNL     1       4.020  16.029  24.955  0.00  0.00     0.001 C 
HETATM   17  C   UNL     1       4.484  16.002  23.649  0.00  0.00     0.002 C 
HETATM   18  C   UNL     1       5.789  15.573  23.398  0.00  0.00     0.032 C 
ENDBRANCH   8  12
ENDBRANCH   1   7
BRANCH   2  19
HETATM   19  O   UNL     1       9.061  14.052  20.345  0.00  0.00    -0.360 OA
HETATM   20  H   UNL     1       9.302  14.638  21.085  0.00  0.00     0.217 HD
ENDBRANCH   2  19
BRANCH   6  21
HETATM   21  C   UNL     1       5.409   9.996  21.910  0.00  0.00     0.256 C 
HETATM   22  O   UNL     1       4.428  10.017  21.155  0.00  0.00    -0.267 OA
HETATM   23  N   UNL     1       5.386   9.106  23.019  0.00  0.00    -0.352 N 
HETATM   24  C   UNL     1       6.406   8.911  24.032  0.00  0.00     0.152 C 
BRANCH  23  25
HETATM   25  C   UNL     1       4.156   8.332  23.287  0.00  0.00     0.125 C 
BRANCH  25  26
HETATM   26  C   UNL     1       3.450   8.730  24.592  0.00  0.00     0.020 C 
BRANCH  26  27
HETATM   27  C   UNL     1       2.814  10.114  24.492  0.00  0.00     0.002 C 
BRANCH  27  28
HETATM   28  C   UNL     1       3.605  11.181  25.251  0.00  0.00    -0.000 C 
BRANCH  28  29
HETATM   29  C   UNL     1       4.056  12.284  24.292  0.00  0.00    -0.005 C 
HETATM   30  C   UNL     1       3.017  12.574  23.222  0.00  0.00     0.005 C 
ENDBRANCH  28  29
ENDBRANCH  27  28
ENDBRANCH  26  27
ENDBRANCH  25  26
ENDBRANCH  23  25
ENDBRANCH   6  21
BRANCH   4  31
HETATM   31  O   UNL     1       6.739  10.292  19.104  0.00  0.00    -0.360 OA
HETATM   32  H   UNL     1       5.990  10.690  18.624  0.00  0.00     0.217 HD
ENDBRANCH   4  31
TORSDOF 10
ENDMDL
MODEL 3
REMARK VINA RESULT:    -7.889      1.781      2.174
REMARK INTER + INTRA:         -13.670
REMARK INTER:                 -10.641
REMARK INTRA:                  -3.029
REMARK UNBOUND:                -1.630
REMARK  10 active torsions:
REMARK  status: ('A' for Active; 'I' for Inactive)
REMARK    1  A    between atoms: C_7  and  N_8 
REMARK    2  A    between atoms: C_12  and  C_13 
REMARK    3  A    between atoms: C_14  and  O_15 
REMARK    4  A    between atoms: C_17  and  O_18 
REMARK    5  A    between atoms: C_20  and  C_21 
REMARK       I    between atoms: C_21  and  N_23 
REMARK    6  A    between atoms: N_23  and  C_25 
REMARK    7  A    between atoms: C_25  and  C_26 
REMARK    8  A    between atoms: C_26  and  C_27 
REMARK    9  A    between atoms: C_27  and  C_28 
REMARK   10  A    between atoms: C_28  and  C_29 
ROOT
HETATM    1  C   UNL     1       8.543  11.404  25.035  0.00  0.00     0.027 C 
HETATM    2  C   UNL     1       8.511  10.196  24.297  0.00  0.00     0.081 C 
HETATM    3  C   UNL     1       7.325   9.517  24.027  0.00  0.00     0.075 C 
HETATM    4  C   UNL     1       6.091  10.062  24.354  0.00  0.00     0.084 C 
HETATM    5  C   UNL     1       7.261  11.875  25.444  0.00  0.00     0.036 C 
HETATM    6  C   UNL     1       6.001  11.305  24.997  0.00  0.00     0.066 C 
ENDROOT
BRANCH   1   7
HETATM    7  C   UNL     1       9.879  12.030  25.334  0.00  0.00     0.073 C 
HETATM    8  N   UNL     1      10.686  12.973  24.639  0.00  0.00    -0.233 N 
HETATM    9  N   UNL     1      11.905  13.119  25.254  0.00  0.00    -0.179 NA
HETATM   10  C   UNL     1      11.877  12.356  26.329  0.00  0.00     0.141 C 
HETATM   11  C   UNL     1      10.640  11.745  26.480  0.00  0.00     0.053 C 
BRANCH   8  12
HETATM   12  C   UNL     1      10.502  13.784  23.471  0.00  0.00     0.065 C 
HETATM   13  C   UNL     1      10.377  15.170  23.461  0.00  0.00    -0.033 C 
HETATM   14  C   UNL     1       9.878  15.953  24.641  0.00  0.00     0.050 C 
HETATM   15  C   UNL     1      10.450  15.853  22.229  0.00  0.00     0.009 C 
HETATM   16  C   UNL     1      10.390  15.166  21.016  0.00  0.00     0.001 C 
HETATM   17  C   UNL     1      10.266  13.785  21.021  0.00  0.00     0.002 C 
HETATM   18  C   UNL     1      10.359  13.096  22.232  0.00  0.00     0.032 C 
ENDBRANCH   8  12
ENDBRANCH   1   7
BRANCH   2  19
HETATM   19  O   UNL     1       9.605   9.583  23.757  0.00  0.00    -0.360 OA
HETATM   20  H   UNL     1       9.441   9.465  22.804  0.00  0.00     0.217 HD
ENDBRANCH   2  19
BRANCH   6  21
HETATM   21  C   UNL     1       4.750  12.168  25.172  0.00  0.00     0.256 C 
HETATM   22  O   UNL     1       4.549  12.552  26.331  0.00  0.00    -0.267 OA
HETATM   23  N   UNL     1       3.879  12.630  24.147  0.00  0.00    -0.352 N 
HETATM   24  C   UNL     1       3.915  12.315  22.732  0.00  0.00     0.152 C 
BRANCH  23  25
HETATM   25  C   UNL     1       2.711  13.453  24.523  0.00  0.00     0.125 C 
BRANCH  25  26
HETATM   26  C   UNL     1       2.772  14.891  23.983  0.00  0.00     0.020 C 
BRANCH  26  27
HETATM   27  C   UNL     1       3.980  15.649  24.528  0.00  0.00     0.002 C 
BRANCH  27  28
HETATM   28  C   UNL     1       5.009  15.972  23.444  0.00  0.00    -0.000 C 
BRANCH  28  29
HETATM   29  C   UNL     1       6.317  15.228  23.721  0.00  0.00    -0.005 C 
HETATM   30  C   UNL     1       6.847  14.520  22.485  0.00  0.00     0.005 C 
ENDBRANCH  28  29
ENDBRANCH  27  28
ENDBRANCH  26  27
ENDBRANCH  25  26
ENDBRANCH  23  25
ENDBRANCH   6  21
BRANCH   4  31
HETATM   31  O   UNL     1       5.034   9.269  24.055  0.00  0.00    -0.360 OA
HETATM   32  H   UNL     1       4.991   8.557  24.719  0.00  0.00     0.217 HD
ENDBRANCH   4  31
TORSDOF 10
ENDMDL
MODEL 4
REMARK VINA RESULT:    -7.820      1.892      2.398
REMARK INTER + INTRA:         -13.564
REMARK INTER:                 -10.625
REMARK INTRA:                  -2.940
REMARK UNBOUND:                -1.630
REMARK  10 active torsions:
REMARK  status: ('A' for Active; 'I' for Inactive)
REMARK    1  A    between atoms: C_7  and  N_8 
REMARK    2  A    between atoms: C_12  and  C_13 
REMARK    3  A    between atoms: C_14  and  O_15 
REMARK    4  A    between atoms: C_17  and  O_18 
REMARK    5  A    between atoms: C_20  and  C_21 
REMARK       I    between atoms: C_21  and  N_23 
REMARK    6  A    between atoms: N_23  and  C_25 
REMARK    7  A    between atoms: C_25  and  C_26 
REMARK    8  A    between atoms: C_26  and  C_27 
REMARK    9  A    between atoms: C_27  and  C_28 
REMARK   10  A    between atoms: C_28  and  C_29 
ROOT
HETATM    1  C   UNL     1       8.065  10.516  23.852  0.00  0.00     0.027 C 
HETATM    2  C   UNL     1       7.479   9.349  23.306  0.00  0.00     0.081 C 
HETATM    3  C   UNL     1       6.187   8.939  23.629  0.00  0.00     0.075 C 
HETATM    4  C   UNL     1       5.353   9.731  24.406  0.00  0.00     0.084 C 
HETATM    5  C   UNL     1       7.210  11.245  24.730  0.00  0.00     0.036 C 
HETATM    6  C   UNL     1       5.797  10.959  24.916  0.00  0.00     0.066 C 
ENDROOT
BRANCH   1   7
HETATM    7  C   UNL     1       9.491  10.841  23.496  0.00  0.00     0.073 C 
HETATM    8  N   UNL     1      10.076  11.685  22.511  0.00  0.00    -0.233 N 
HETATM    9  N   UNL     1      11.441  11.530  22.485  0.00  0.00    -0.179 NA
HETATM   10  C   UNL     1      11.739  10.674  23.442  0.00  0.00     0.141 C 
HETATM   11  C   UNL     1      10.607  10.295  24.150  0.00  0.00     0.053 C 
BRANCH   8  12
HETATM   12  C   UNL     1       9.562  12.638  21.571  0.00  0.00     0.065 C 
HETATM   13  C   UNL     1       9.678  14.021  21.677  0.00  0.00    -0.033 C 
HETATM   14  C   UNL     1       9.854  14.727  22.990  0.00  0.00     0.050 C 
HETATM   15  C   UNL     1       9.346  14.820  20.563  0.00  0.00     0.009 C 
HETATM   16  C   UNL     1       8.672  14.286  19.464  0.00  0.00     0.001 C 
HETATM   17  C   UNL     1       8.333  12.942  19.461  0.00  0.00     0.002 C 
HETATM   18  C   UNL     1       8.803  12.117  20.483  0.00  0.00     0.032 C 
ENDBRANCH   8  12
ENDBRANCH   1   7
BRANCH   2  19
HETATM   19  O   UNL     1       8.085   8.522  22.403  0.00  0.00    -0.360 OA
HETATM   20  H   UNL     1       8.247   9.034  21.591  0.00  0.00     0.217 HD
ENDBRANCH   2  19
BRANCH   6  21
HETATM   21  C   UNL     1       4.942  12.066  25.536  0.00  0.00     0.256 C 
HETATM   22  O   UNL     1       5.351  12.481  26.629  0.00  0.00    -0.267 OA
HETATM   23  N   UNL     1       3.814  12.706  24.951  0.00  0.00    -0.352 N 
HETATM   24  C   UNL     1       3.161  12.395  23.694  0.00  0.00     0.152 C 
BRANCH  23  25
HETATM   25  C   UNL     1       3.114  13.756  25.719  0.00  0.00     0.125 C 
BRANCH  25  26
HETATM   26  C   UNL     1       2.928  15.068  24.941  0.00  0.00     0.020 C 
BRANCH  26  27
HETATM   27  C   UNL     1       4.203  15.908  24.935  0.00  0.00     0.002 C 
BRANCH  27  28
HETATM   28  C   UNL     1       4.863  15.966  23.557  0.00  0.00    -0.000 C 
BRANCH  28  29
HETATM   29  C   UNL     1       6.168  15.165  23.563  0.00  0.00    -0.005 C 
HETATM   30  C   UNL     1       6.174  14.072  22.508  0.00  0.00     0.005 C 
ENDBRANCH  28  29
ENDBRANCH  27  28
ENDBRANCH  26  27
ENDBRANCH  25  26
ENDBRANCH  23  25
ENDBRANCH   6  21
BRANCH   4  31
HETATM   31  O   UNL     1       4.140   9.183  24.657  0.00  0.00    -0.360 OA
HETATM   32  H   UNL     1       4.207   8.220  24.519  0.00  0.00     0.217 HD
ENDBRANCH   4  31
TORSDOF 10
ENDMDL
MODEL 5
REMARK VINA RESULT:    -7.752      1.403      2.100
REMARK INTER + INTRA:         -13.462
REMARK INTER:                 -10.583
REMARK INTRA:                  -2.878
REMARK UNBOUND:                -1.630
REMARK  10 active torsions:
REMARK  status: ('A' for Active; 'I' for Inactive)
REMARK    1  A    between atoms: C_7  and  N_8 
REMARK    2  A    between atoms: C_12  and  C_13 
REMARK    3  A    between atoms: C_14  and  O_15 
REMARK    4  A    between atoms: C_17  and  O_18 
REMARK    5  A    between atoms: C_20  and  C_21 
REMARK       I    between atoms: C_21  and  N_23 
REMARK    6  A    between atoms: N_23  and  C_25 
REMARK    7  A    between atoms: C_25  and  C_26 
REMARK    8  A    between atoms: C_26  and  C_27 
REMARK    9  A    between atoms: C_27  and  C_28 
REMARK   10  A    between atoms: C_28  and  C_29 
ROOT
HETATM    1  C   UNL     1       9.164  11.561  23.921  0.00  0.00     0.027 C 
HETATM    2  C   UNL     1       9.554  10.553  23.007  0.00  0.00     0.081 C 
HETATM    3  C   UNL     1       8.630   9.796  22.289  0.00  0.00     0.075 C 
HETATM    4  C   UNL     1       7.273  10.082  22.335  0.00  0.00     0.084 C 
HETATM    5  C   UNL     1       7.754  11.751  24.017  0.00  0.00     0.036 C 
HETATM    6  C   UNL     1       6.784  11.128  23.131  0.00  0.00     0.066 C 
ENDROOT
BRANCH   1   7
HETATM    7  C   UNL     1      10.232  12.281  24.699  0.00  0.00     0.073 C 
HETATM    8  N   UNL     1      10.905  13.519  24.505  0.00  0.00    -0.233 N 
HETATM    9  N   UNL     1      11.918  13.672  25.421  0.00  0.00    -0.179 NA
HETATM   10  C   UNL     1      11.873  12.617  26.210  0.00  0.00     0.141 C 
HETATM   11  C   UNL     1      10.811  11.786  25.879  0.00  0.00     0.053 C 
BRANCH   8  12
HETATM   12  C   UNL     1      10.754  14.612  23.589  0.00  0.00     0.065 C 
HETATM   13  C   UNL     1      10.761  14.509  22.201  0.00  0.00    -0.033 C 
HETATM   14  C   UNL     1      11.449  13.393  21.469  0.00  0.00     0.050 C 
HETATM   15  C   UNL     1      10.356  15.621  21.433  0.00  0.00     0.009 C 
HETATM   16  C   UNL     1      10.197  16.880  22.011  0.00  0.00     0.001 C 
HETATM   17  C   UNL     1      10.429  17.041  23.368  0.00  0.00     0.002 C 
HETATM   18  C   UNL     1      10.669  15.915  24.158  0.00  0.00     0.032 C 
ENDBRANCH   8  12
ENDBRANCH   1   7
BRANCH   2  19
HETATM   19  O   UNL     1      10.847  10.230  22.708  0.00  0.00    -0.360 OA
HETATM   20  H   UNL     1      11.407  10.524  23.449  0.00  0.00     0.217 HD
ENDBRANCH   2  19
BRANCH   6  21
HETATM   21  C   UNL     1       5.388  11.752  23.084  0.00  0.00     0.256 C 
HETATM   22  O   UNL     1       4.959  11.965  21.942  0.00  0.00    -0.267 OA
HETATM   23  N   UNL     1       4.530  12.015  24.187  0.00  0.00    -0.352 N 
HETATM   24  C   UNL     1       4.813  11.848  25.600  0.00  0.00     0.152 C 
BRANCH  23  25
HETATM   25  C   UNL     1       3.213  12.633  23.933  0.00  0.00     0.125 C 
BRANCH  25  26
HETATM   26  C   UNL     1       3.107  14.083  24.432  0.00  0.00     0.020 C 
BRANCH  26  27
HETATM   27  C   UNL     1       3.821  15.056  23.497  0.00  0.00     0.002 C 
BRANCH  27  28
HETATM   28  C   UNL     1       4.883  15.889  24.215  0.00  0.00    -0.000 C 
BRANCH  28  29
HETATM   29  C   UNL     1       6.235  15.173  24.169  0.00  0.00    -0.005 C 
HETATM   30  C   UNL     1       6.850  15.198  22.780  0.00  0.00     0.005 C 
ENDBRANCH  28  29
ENDBRANCH  27  28
ENDBRANCH  26  27
ENDBRANCH  25  26
ENDBRANCH  23  25
ENDBRANCH   6  21
BRANCH   4  31
HETATM   31  O   UNL     1       6.501   9.238  21.608  0.00  0.00    -0.360 OA
HETATM   32  H   UNL     1       5.568   9.428  21.814  0.00  0.00     0.217 HD
ENDBRANCH   4  31
TORSDOF 10
ENDMDL
MODEL 6
REMARK VINA RESULT:    -7.655      1.710      2.712
REMARK INTER + INTRA:         -13.314
REMARK INTER:                 -11.395
REMARK INTRA:                  -1.918
REMARK UNBOUND:                -1.630
REMARK  10 active torsions:
REMARK  status: ('A' for Active; 'I' for Inactive)
REMARK    1  A    between atoms: C_7  and  N_8 
REMARK    2  A    between atoms: C_12  and  C_13 
REMARK    3  A    between atoms: C_14  and  O_15 
REMARK    4  A    between atoms: C_17  and  O_18 
REMARK    5  A    between atoms: C_20  and  C_21 
REMARK       I    between atoms: C_21  and  N_23 
REMARK    6  A    between atoms: N_23  and  C_25 
REMARK    7  A    between atoms: C_25  and  C_26 
REMARK    8  A    between atoms: C_26  and  C_27 
REMARK    9  A    between atoms: C_27  and  C_28 
REMARK   10  A    between atoms: C_28  and  C_29 
ROOT
HETATM    1  C   UNL     1       7.841  11.639  22.040  0.00  0.00     0.027 C 
HETATM    2  C   UNL     1       6.923  11.177  21.066  0.00  0.00     0.081 C 
HETATM    3  C   UNL     1       5.546  11.170  21.280  0.00  0.00     0.075 C 
HETATM    4  C   UNL     1       4.990  11.742  22.415  0.00  0.00     0.084 C 
HETATM    5  C   UNL     1       7.232  12.122  23.236  0.00  0.00     0.036 C 
HETATM    6  C   UNL     1       5.802  12.323  23.400  0.00  0.00     0.066 C 
ENDROOT
BRANCH   1   7
HETATM    7  C   UNL     1       9.314  11.546  21.744  0.00  0.00     0.073 C 
HETATM    8  N   UNL     1      10.360  12.509  21.716  0.00  0.00    -0.233 N 
HETATM    9  N   UNL     1      11.522  11.952  21.239  0.00  0.00    -0.179 NA
HETATM   10  C   UNL     1      11.266  10.678  21.023  0.00  0.00     0.141 C 
HETATM   11  C   UNL     1       9.970  10.353  21.400  0.00  0.00     0.053 C 
BRANCH   8  12
HETATM   12  C   UNL     1      10.460  13.894  22.073  0.00  0.00     0.065 C 
HETATM   13  C   UNL     1       9.684  14.922  21.546  0.00  0.00    -0.033 C 
HETATM   14  C   UNL     1       9.039  14.846  20.192  0.00  0.00     0.050 C 
HETATM   15  C   UNL     1       9.719  16.189  22.165  0.00  0.00     0.009 C 
HETATM   16  C   UNL     1      10.688  16.502  23.117  0.00  0.00     0.001 C 
HETATM   17  C   UNL     1      11.629  15.547  23.472  0.00  0.00     0.002 C 
HETATM   18  C   UNL     1      11.496  14.246  22.985  0.00  0.00     0.032 C 
ENDBRANCH   8  12
ENDBRANCH   1   7
BRANCH   2  19
HETATM   19  O   UNL     1       7.267  10.719  19.826  0.00  0.00    -0.360 OA
HETATM   20  H   UNL     1       6.684   9.968  19.612  0.00  0.00     0.217 HD
ENDBRANCH   2  19
BRANCH   6  21
HETATM   21  C   UNL     1       5.358  13.230  24.549  0.00  0.00     0.256 C 
HETATM   22  O   UNL     1       5.084  12.633  25.598  0.00  0.00    -0.267 OA
HETATM   23  N   UNL     1       5.321  14.652  24.551  0.00  0.00    -0.352 N 
HETATM   24  C   UNL     1       5.596  15.557  23.452  0.00  0.00     0.152 C 
BRANCH  23  25
HETATM   25  C   UNL     1       4.851  15.349  25.766  0.00  0.00     0.125 C 
BRANCH  25  26
HETATM   26  C   UNL     1       3.416  15.887  25.651  0.00  0.00     0.020 C 
BRANCH  26  27
HETATM   27  C   UNL     1       2.415  14.990  26.375  0.00  0.00     0.002 C 
BRANCH  27  28
HETATM   28  C   UNL     1       1.819  13.918  25.461  0.00  0.00    -0.000 C 
BRANCH  28  29
HETATM   29  C   UNL     1       1.683  14.457  24.035  0.00  0.00    -0.005 C 
HETATM   30  C   UNL     1       0.692  13.652  23.211  0.00  0.00     0.005 C 
ENDBRANCH  28  29
ENDBRANCH  27  28
ENDBRANCH  26  27
ENDBRANCH  25  26
ENDBRANCH  23  25
ENDBRANCH   6  21
BRANCH   4  31
HETATM   31  O   UNL     1       3.642  11.629  22.493  0.00  0.00    -0.360 OA
HETATM   32  H   UNL     1       3.387  11.683  23.432  0.00  0.00     0.217 HD
ENDBRANCH   4  31
TORSDOF 10
ENDMDL
MODEL 7
REMARK VINA RESULT:    -7.626      2.417      5.259
REMARK INTER + INTRA:         -13.268
REMARK INTER:                 -11.638
REMARK INTRA:                  -1.630
REMARK UNBOUND:                -1.630
REMARK  10 active torsions:
REMARK  status: ('A' for Active; 'I' for Inactive)
REMARK    1  A    between atoms: C_7  and  N_8 
REMARK    2  A    between atoms: C_12  and  C_13 
REMARK    3  A    between atoms: C_14  and  O_15 
REMARK    4  A    between atoms: C_17  and  O_18 
REMARK    5  A    between atoms: C_20  and  C_21 
REMARK       I    between atoms: C_21  and  N_23 
REMARK    6  A    between atoms: N_23  and  C_25 
REMARK    7  A    between atoms: C_25  and  C_26 
REMARK    8  A    between atoms: C_26  and  C_27 
REMARK    9  A    between atoms: C_27  and  C_28 
REMARK   10  A    between atoms: C_28  and  C_29 
ROOT
HETATM    1  C   UNL     1       8.680  13.919  22.258  0.00  0.00     0.027 C 
HETATM    2  C   UNL     1       9.131  14.697  21.165  0.00  0.00     0.081 C 
HETATM    3  C   UNL     1       9.003  14.273  19.843  0.00  0.00     0.075 C 
HETATM    4  C   UNL     1       8.303  13.119  19.520  0.00  0.00     0.084 C 
HETATM    5  C   UNL     1       8.060  12.689  21.887  0.00  0.00     0.036 C 
HETATM    6  C   UNL     1       7.725  12.324  20.520  0.00  0.00     0.066 C 
ENDROOT
BRANCH   1   7
HETATM    7  C   UNL     1       8.921  14.429  23.654  0.00  0.00     0.073 C 
HETATM    8  N   UNL     1       8.064  14.980  24.646  0.00  0.00    -0.233 N 
HETATM    9  N   UNL     1       8.791  15.440  25.718  0.00  0.00    -0.179 NA
HETATM   10  C   UNL     1      10.053  15.151  25.466  0.00  0.00     0.141 C 
HETATM   11  C   UNL     1      10.182  14.454  24.272  0.00  0.00     0.053 C 
BRANCH   8  12
HETATM   12  C   UNL     1       6.645  15.150  24.767  0.00  0.00     0.065 C 
HETATM   13  C   UNL     1       5.883  14.810  25.881  0.00  0.00    -0.033 C 
HETATM   14  C   UNL     1       6.301  13.757  26.865  0.00  0.00     0.050 C 
HETATM   15  C   UNL     1       4.548  15.259  25.955  0.00  0.00     0.009 C 
HETATM   16  C   UNL     1       3.905  15.806  24.845  0.00  0.00     0.001 C 
HETATM   17  C   UNL     1       4.595  15.923  23.648  0.00  0.00     0.002 C 
HETATM   18  C   UNL     1       5.960  15.634  23.616  0.00  0.00     0.032 C 
ENDBRANCH   8  12
ENDBRANCH   1   7
BRANCH   2  19
HETATM   19  O   UNL     1       9.705  15.931  21.270  0.00  0.00    -0.360 OA
HETATM   20  H   UNL     1       9.956  16.065  22.202  0.00  0.00     0.217 HD
ENDBRANCH   2  19
BRANCH   6  21
HETATM   21  C   UNL     1       6.702  11.202  20.334  0.00  0.00     0.256 C 
HETATM   22  O   UNL     1       6.831  10.557  19.285  0.00  0.00    -0.267 OA
HETATM   23  N   UNL     1       5.709  10.786  21.265  0.00  0.00    -0.352 N 
HETATM   24  C   UNL     1       5.376  11.382  22.544  0.00  0.00     0.152 C 
BRANCH  23  25
HETATM   25  C   UNL     1       4.805   9.679  20.893  0.00  0.00     0.125 C 
BRANCH  25  26
HETATM   26  C   UNL     1       4.737   8.560  21.944  0.00  0.00     0.020 C 
BRANCH  26  27
HETATM   27  C   UNL     1       6.021   7.736  21.977  0.00  0.00     0.002 C 
BRANCH  27  28
HETATM   28  C   UNL     1       6.775   7.874  23.300  0.00  0.00    -0.000 C 
BRANCH  28  29
HETATM   29  C   UNL     1       8.029   8.730  23.105  0.00  0.00    -0.005 C 
HETATM   30  C   UNL     1       8.331   9.590  24.320  0.00  0.00     0.005 C 
ENDBRANCH  28  29
ENDBRANCH  27  28
ENDBRANCH  26  27
ENDBRANCH  25  26
ENDBRANCH  23  25
ENDBRANCH   6  21
BRANCH   4  31
HETATM   31  O   UNL     1       8.294  12.825  18.198  0.00  0.00    -0.360 OA
HETATM   32  H   UNL     1       9.217  12.806  17.884  0.00  0.00     0.217 HD
ENDBRANCH   4  31
TORSDOF 10
ENDMDL
MODEL 8
REMARK VINA RESULT:    -7.580      1.580      3.107
REMARK INTER + INTRA:         -13.198
REMARK INTER:                 -11.076
REMARK INTRA:                  -2.123
REMARK UNBOUND:                -1.630
REMARK  10 active torsions:
REMARK  status: ('A' for Active; 'I' for Inactive)
REMARK    1  A    between atoms: C_7  and  N_8 
REMARK    2  A    between atoms: C_12  and  C_13 
REMARK    3  A    between atoms: C_14  and  O_15 
REMARK    4  A    between atoms: C_17  and  O_18 
REMARK    5  A    between atoms: C_20  and  C_21 
REMARK       I    between atoms: C_21  and  N_23 
REMARK    6  A    between atoms: N_23  and  C_25 
REMARK    7  A    between atoms: C_25  and  C_26 
REMARK    8  A    between atoms: C_26  and  C_27 
REMARK    9  A    between atoms: C_27  and  C_28 
REMARK   10  A    between atoms: C_28  and  C_29 
ROOT
HETATM    1  C   UNL     1       7.027  12.237  21.521  0.00  0.00     0.027 C 
HETATM    2  C   UNL     1       6.864  11.068  20.739  0.00  0.00     0.081 C 
HETATM    3  C   UNL     1       5.817  10.171  20.945  0.00  0.00     0.075 C 
HETATM    4  C   UNL     1       4.799  10.445  21.847  0.00  0.00     0.084 C 
HETATM    5  C   UNL     1       6.016  12.427  22.508  0.00  0.00     0.036 C 
HETATM    6  C   UNL     1       4.807  11.626  22.603  0.00  0.00     0.066 C 
ENDROOT
BRANCH   1   7
HETATM    7  C   UNL     1       8.225  13.111  21.267  0.00  0.00     0.073 C 
HETATM    8  N   UNL     1       9.552  13.111  21.782  0.00  0.00    -0.233 N 
HETATM    9  N   UNL     1      10.243  14.216  21.347  0.00  0.00    -0.179 NA
HETATM   10  C   UNL     1       9.431  14.874  20.543  0.00  0.00     0.141 C 
HETATM   11  C   UNL     1       8.228  14.202  20.382  0.00  0.00     0.053 C 
BRANCH   8  12
HETATM   12  C   UNL     1      10.301  12.229  22.628  0.00  0.00     0.065 C 
HETATM   13  C   UNL     1      11.118  11.190  22.190  0.00  0.00    -0.033 C 
HETATM   14  C   UNL     1      10.925  10.501  20.870  0.00  0.00     0.050 C 
HETATM   15  C   UNL     1      11.983  10.568  23.114  0.00  0.00     0.009 C 
HETATM   16  C   UNL     1      11.857  10.790  24.486  0.00  0.00     0.001 C 
HETATM   17  C   UNL     1      10.872  11.647  24.950  0.00  0.00     0.002 C 
HETATM   18  C   UNL     1      10.125  12.388  24.032  0.00  0.00     0.032 C 
ENDBRANCH   8  12
ENDBRANCH   1   7
BRANCH   2  19
HETATM   19  O   UNL     1       7.674  10.704  19.702  0.00  0.00    -0.360 OA
HETATM   20  H   UNL     1       7.552  11.353  18.986  0.00  0.00     0.217 HD
ENDBRANCH   2  19
BRANCH   6  21
HETATM   21  C   UNL     1       3.650  12.213  23.414  0.00  0.00     0.256 C 
HETATM   22  O   UNL     1       2.633  12.463  22.753  0.00  0.00    -0.267 OA
HETATM   23  N   UNL     1       3.602  12.405  24.823  0.00  0.00    -0.352 N 
HETATM   24  C   UNL     1       4.659  12.186  25.792  0.00  0.00     0.152 C 
BRANCH  23  25
HETATM   25  C   UNL     1       2.388  12.996  25.421  0.00  0.00     0.125 C 
BRANCH  25  26
HETATM   26  C   UNL     1       2.581  14.443  25.902  0.00  0.00     0.020 C 
BRANCH  26  27
HETATM   27  C   UNL     1       2.931  15.381  24.750  0.00  0.00     0.002 C 
BRANCH  27  28
HETATM   28  C   UNL     1       4.374  15.885  24.820  0.00  0.00    -0.000 C 
BRANCH  28  29
HETATM   29  C   UNL     1       4.985  15.929  23.418  0.00  0.00    -0.005 C 
HETATM   30  C   UNL     1       6.448  15.520  23.417  0.00  0.00     0.005 C 
ENDBRANCH  28  29
ENDBRANCH  27  28
ENDBRANCH  26  27
ENDBRANCH  25  26
ENDBRANCH  23  25
ENDBRANCH   6  21
BRANCH   4  31
HETATM   31  O   UNL     1       3.872   9.463  21.957  0.00  0.00    -0.360 OA
HETATM   32  H   UNL     1       3.374   9.607  22.783  0.00  0.00     0.217 HD
ENDBRANCH   4  31
TORSDOF 10
ENDMDL
MODEL 9
REMARK VINA RESULT:    -7.482      2.358      5.832
REMARK INTER + INTRA:         -13.049
REMARK INTER:                 -10.331
REMARK INTRA:                  -2.718
REMARK UNBOUND:                -1.630
REMARK  10 active torsions:
REMARK  status: ('A' for Active; 'I' for Inactive)
REMARK    1  A    between atoms: C_7  and  N_8 
REMARK    2  A    between atoms: C_12  and  C_13 
REMARK    3  A    between atoms: C_14  and  O_15 
REMARK    4  A    between atoms: C_17  and  O_18 
REMARK    5  A    between atoms: C_20  and  C_21 
REMARK       I    between atoms: C_21  and  N_23 
REMARK    6  A    between atoms: N_23  and  C_25 
REMARK    7  A    between atoms: C_25  and  C_26 
REMARK    8  A    between atoms: C_26  and  C_27 
REMARK    9  A    between atoms: C_27  and  C_28 
REMARK   10  A    between atoms: C_28  and  C_29 
ROOT
HETATM    1  C   UNL     1       7.900  10.699  23.538  0.00  0.00     0.027 C 
HETATM    2  C   UNL     1       8.463   9.657  24.313  0.00  0.00     0.081 C 
HETATM    3  C   UNL     1       9.825   9.588  24.598  0.00  0.00     0.075 C 
HETATM    4  C   UNL     1      10.688  10.616  24.245  0.00  0.00     0.084 C 
HETATM    5  C   UNL     1       8.840  11.680  23.105  0.00  0.00     0.036 C 
HETATM    6  C   UNL     1      10.218  11.747  23.562  0.00  0.00     0.066 C 
ENDROOT
BRANCH   1   7
HETATM    7  C   UNL     1       6.428  10.652  23.228  0.00  0.00     0.073 C 
HETATM    8  N   UNL     1       5.366  11.578  23.424  0.00  0.00    -0.233 N 
HETATM    9  N   UNL     1       4.157  11.008  23.105  0.00  0.00    -0.179 NA
HETATM   10  C   UNL     1       4.420   9.793  22.667  0.00  0.00     0.141 C 
HETATM   11  C   UNL     1       5.787   9.555  22.629  0.00  0.00     0.053 C 
BRANCH   8  12
HETATM   12  C   UNL     1       5.289  12.940  23.866  0.00  0.00     0.065 C 
HETATM   13  C   UNL     1       5.839  13.440  25.043  0.00  0.00    -0.033 C 
HETATM   14  C   UNL     1       6.101  12.584  26.248  0.00  0.00     0.050 C 
HETATM   15  C   UNL     1       5.901  14.837  25.226  0.00  0.00     0.009 C 
HETATM   16  C   UNL     1       5.206  15.708  24.389  0.00  0.00     0.001 C 
HETATM   17  C   UNL     1       4.448  15.194  23.348  0.00  0.00     0.002 C 
HETATM   18  C   UNL     1       4.517  13.829  23.064  0.00  0.00     0.032 C 
ENDBRANCH   8  12
ENDBRANCH   1   7
BRANCH   2  19
HETATM   19  O   UNL     1       7.754   8.637  24.880  0.00  0.00    -0.360 OA
HETATM   20  H   UNL     1       6.932   9.011  25.246  0.00  0.00     0.217 HD
ENDBRANCH   2  19
BRANCH   6  21
HETATM   21  C   UNL     1      10.954  13.072  23.352  0.00  0.00     0.256 C 
HETATM   22  O   UNL     1      11.669  13.108  22.341  0.00  0.00    -0.267 OA
HETATM   23  N   UNL     1      10.825  14.256  24.130  0.00  0.00    -0.352 N 
HETATM   24  C   UNL     1      10.054  14.450  25.343  0.00  0.00     0.152 C 
BRANCH  23  25
HETATM   25  C   UNL     1      11.633  15.438  23.766  0.00  0.00     0.125 C 
BRANCH  25  26
HETATM   26  C   UNL     1      10.800  16.609  23.221  0.00  0.00     0.020 C 
BRANCH  26  27
HETATM   27  C   UNL     1      10.031  16.219  21.961  0.00  0.00     0.002 C 
BRANCH  27  28
HETATM   28  C   UNL     1       8.566  15.885  22.246  0.00  0.00    -0.000 C 
BRANCH  28  29
HETATM   29  C   UNL     1       8.079  14.793  21.291  0.00  0.00    -0.005 C 
HETATM   30  C   UNL     1       9.124  14.436  20.247  0.00  0.00     0.005 C 
ENDBRANCH  28  29
ENDBRANCH  27  28
ENDBRANCH  26  27
ENDBRANCH  25  26
ENDBRANCH  23  25
ENDBRANCH   6  21
BRANCH   4  31
HETATM   31  O   UNL     1      11.985  10.388  24.562  0.00  0.00    -0.360 OA
HETATM   32  H   UNL     1      12.458  11.240  24.537  0.00  0.00     0.217 HD
ENDBRANCH   4  31
TORSDOF 10
ENDMDL
