REMARK  10 active torsions:
REMARK  status: ('A' for Active; 'I' for Inactive)
REMARK    1  A    between atoms: C_7  and  N_8 
REMARK    2  A    between atoms: C_12  and  C_13 
REMARK    3  A    between atoms: C_14  and  O_15 
REMARK    4  A    between atoms: C_17  and  O_18 
REMARK    5  A    between atoms: C_20  and  C_21 
REMARK       I    between atoms: C_21  and  N_23 
REMARK    6  A    between atoms: N_23  and  C_25 
REMARK    7  A    between atoms: C_25  and  C_26 
REMARK    8  A    between atoms: C_26  and  C_27 
REMARK    9  A    between atoms: C_27  and  C_28 
REMARK   10  A    between atoms: C_28  and  C_29 
ROOT
HETATM    1  C   UNL     1       0.053  -1.253  -0.183  0.00  0.00     0.027 C 
HETATM    2  C   UNL     1      -1.156  -1.575  -0.846  0.00  0.00     0.081 C 
HETATM    3  C   UNL     1      -2.195  -0.658  -0.993  0.00  0.00     0.075 C 
HETATM    4  C   UNL     1      -2.046   0.668  -0.611  0.00  0.00     0.084 C 
HETATM    5  C   UNL     1       0.123   0.091   0.288  0.00  0.00     0.036 C 
HETATM    6  C   UNL     1      -0.850   1.121  -0.036  0.00  0.00     0.066 C 
ENDROOT
BRANCH   1   7
HETATM    7  C   UNL     1       1.091  -2.330  -0.015  0.00  0.00     0.073 C 
HETATM    8  N   UNL     1       2.513  -2.309   0.021  0.00  0.00    -0.233 N 
HETATM    9  N   UNL     1       3.019  -3.586   0.047  0.00  0.00    -0.179 NA
HETATM   10  C   UNL     1       1.982  -4.399   0.086  0.00  0.00     0.141 C 
HETATM   11  C   UNL     1       0.789  -3.692   0.146  0.00  0.00     0.053 C 
BRANCH   8  12
HETATM   12  C   UNL     1       3.502  -1.271   0.040  0.00  0.00     0.065 C 
HETATM   13  C   UNL     1       3.383  -0.030  -0.579  0.00  0.00    -0.033 C 
HETATM   14  C   UNL     1       2.497   0.207  -1.768  0.00  0.00     0.050 C 
HETATM   15  C   UNL     1       4.320   0.978  -0.271  0.00  0.00     0.009 C 
HETATM   16  C   UNL     1       5.491   0.688   0.429  0.00  0.00     0.001 C 
HETATM   17  C   UNL     1       5.734  -0.613   0.841  0.00  0.00     0.002 C 
HETATM   18  C   UNL     1       4.736  -1.576   0.683  0.00  0.00     0.032 C 
ENDBRANCH   8  12
ENDBRANCH   1   7
BRANCH   2  19
HETATM   19  O   UNL     1      -1.430  -2.780  -1.426  0.00  0.00    -0.360 OA
HETATM   20  H   UNL     1      -0.591  -3.153  -1.752  0.00  0.00     0.217 HD
ENDBRANCH   2  19
BRANCH   6  21
HETATM   21  C   UNL     1      -0.418   2.573   0.177  0.00  0.00     0.256 C 
HETATM   22  O   UNL     1       0.637   2.708   0.811  0.00  0.00    -0.267 OA
HETATM   23  N   UNL     1      -1.044   3.738  -0.347  0.00  0.00    -0.352 N 
HETATM   24  C   UNL     1      -2.274   3.827  -1.110  0.00  0.00     0.152 C 
BRANCH  23  25
HETATM   25  C   UNL     1      -0.474   5.061  -0.019  0.00  0.00     0.125 C 
BRANCH  25  26
HETATM   26  C   UNL     1      -1.201   5.777   1.130  0.00  0.00     0.020 C 
BRANCH  26  27
HETATM   27  C   UNL     1      -0.886   5.142   2.482  0.00  0.00     0.002 C 
BRANCH  27  28
HETATM   28  C   UNL     1      -1.565   5.867   3.645  0.00  0.00    -0.000 C 
BRANCH  28  29
HETATM   29  C   UNL     1      -1.203   5.192   4.970  0.00  0.00    -0.005 C 
HETATM   30  C   UNL     1      -1.873   5.863   6.157  0.00  0.00     0.005 C 
ENDBRANCH  28  29
ENDBRANCH  27  28
ENDBRANCH  26  27
ENDBRANCH  25  26
ENDBRANCH  23  25
ENDBRANCH   6  21
BRANCH   4  31
HETATM   31  O   UNL     1      -3.154   1.427  -0.789  0.00  0.00    -0.360 OA
HETATM   32  H   UNL     1      -3.600   1.127  -1.602  0.00  0.00     0.217 HD
ENDBRANCH   4  31
TORSDOF 10
