MODEL 1
REMARK VINA RESULT:    -7.156      0.000      0.000
REMARK INTER + INTRA:          -9.476
REMARK INTER:                  -8.290
REMARK INTRA:                  -1.186
REMARK UNBOUND:                -1.065
REMARK  4 active torsions:
REMARK  status: ('A' for Active; 'I' for Inactive)
REMARK    1  A    between atoms: C_7  and  N_8 
REMARK    2  A    between atoms: C_14  and  C_15 
REMARK    3  A    between atoms: C_18  and  O_19 
REMARK    4  A    between atoms: C_21  and  O_22 
ROOT
HETATM    1  N   UNL     1       7.298  13.608  24.912  0.00  0.00    -0.244 N 
HETATM    2  C   UNL     1       8.132  14.024  25.930  0.00  0.00     0.349 A 
HETATM    3  O   UNL     1       8.044  14.994  26.666  0.00  0.00    -0.245 OA
HETATM    4  N   UNL     1       9.149  13.081  25.982  0.00  0.00    -0.226 N 
HETATM    5  H   UNL     1       9.938  13.088  26.610  0.00  0.00     0.194 HD
HETATM    6  N   UNL     1       9.014  12.173  24.983  0.00  0.00    -0.151 NA
HETATM    7  C   UNL     1       7.915  12.505  24.355  0.00  0.00     0.171 A 
ENDROOT
BRANCH   7   8
HETATM    8  C   UNL     1       7.505  11.801  23.097  0.00  0.00     0.045 A 
HETATM    9  C   UNL     1       6.256  11.172  22.973  0.00  0.00     0.021 A 
HETATM   10  C   UNL     1       5.825  10.647  21.744  0.00  0.00     0.037 A 
HETATM   11  C   UNL     1       6.626  10.786  20.619  0.00  0.00     0.068 A 
HETATM   12  C   UNL     1       7.857  11.420  20.702  0.00  0.00     0.074 A 
HETATM   13  C   UNL     1       8.304  11.901  21.939  0.00  0.00     0.082 A 
BRANCH  11  14
HETATM   14  O   UNL     1       6.243  10.312  19.400  0.00  0.00    -0.361 OA
HETATM   15  H   UNL     1       6.384  11.007  18.735  0.00  0.00     0.217 HD
ENDBRANCH  11  14
BRANCH  13  16
HETATM   16  O   UNL     1       9.557  12.452  21.989  0.00  0.00    -0.360 OA
HETATM   17  H   UNL     1       9.600  13.101  22.709  0.00  0.00     0.217 HD
ENDBRANCH  13  16
ENDBRANCH   7   8
BRANCH   1  18
HETATM   18  C   UNL     1       6.134  14.307  24.547  0.00  0.00     0.051 A 
HETATM   19  C   UNL     1       6.123  15.265  23.516  0.00  0.00    -0.035 A 
HETATM   20  C   UNL     1       7.227  15.350  22.499  0.00  0.00     0.050 C 
HETATM   21  C   UNL     1       4.954  16.018  23.306  0.00  0.00     0.009 A 
HETATM   22  C   UNL     1       3.804  15.787  24.061  0.00  0.00     0.001 A 
HETATM   23  C   UNL     1       3.788  14.765  25.003  0.00  0.00     0.002 A 
HETATM   24  C   UNL     1       4.943  14.023  25.240  0.00  0.00     0.031 A 
ENDBRANCH   1  18
TORSDOF 4
ENDMDL
MODEL 2
REMARK VINA RESULT:    -7.119      1.335      1.627
REMARK INTER + INTRA:          -9.432
REMARK INTER:                  -8.188
REMARK INTRA:                  -1.244
REMARK UNBOUND:                -1.065
REMARK  4 active torsions:
REMARK  status: ('A' for Active; 'I' for Inactive)
REMARK    1  A    between atoms: C_7  and  N_8 
REMARK    2  A    between atoms: C_14  and  C_15 
REMARK    3  A    between atoms: C_18  and  O_19 
REMARK    4  A    between atoms: C_21  and  O_22 
ROOT
HETATM    1  N   UNL     1       7.125  13.719  25.321  0.00  0.00    -0.244 N 
HETATM    2  C   UNL     1       8.271  14.213  25.911  0.00  0.00     0.349 A 
HETATM    3  O   UNL     1       8.559  15.358  26.224  0.00  0.00    -0.245 OA
HETATM    4  N   UNL     1       9.087  13.109  26.111  0.00  0.00    -0.226 N 
HETATM    5  H   UNL     1      10.011  13.116  26.515  0.00  0.00     0.194 HD
HETATM    6  N   UNL     1       8.525  11.994  25.584  0.00  0.00    -0.151 NA
HETATM    7  C   UNL     1       7.364  12.375  25.114  0.00  0.00     0.171 A 
ENDROOT
BRANCH   7   8
HETATM    8  C   UNL     1       6.502  11.432  24.331  0.00  0.00     0.045 A 
HETATM    9  C   UNL     1       5.232  11.040  24.783  0.00  0.00     0.021 A 
HETATM   10  C   UNL     1       4.376  10.277  23.973  0.00  0.00     0.037 A 
HETATM   11  C   UNL     1       4.770   9.936  22.687  0.00  0.00     0.068 A 
HETATM   12  C   UNL     1       6.011  10.325  22.202  0.00  0.00     0.074 A 
HETATM   13  C   UNL     1       6.880  11.045  23.028  0.00  0.00     0.082 A 
BRANCH  11  14
HETATM   14  O   UNL     1       3.967   9.215  21.855  0.00  0.00    -0.361 OA
HETATM   15  H   UNL     1       4.503   8.871  21.121  0.00  0.00     0.217 HD
ENDBRANCH  11  14
BRANCH  13  16
HETATM   16  O   UNL     1       8.123  11.342  22.535  0.00  0.00    -0.360 OA
HETATM   17  H   UNL     1       8.522  10.545  22.151  0.00  0.00     0.217 HD
ENDBRANCH  13  16
ENDBRANCH   7   8
BRANCH   1  18
HETATM   18  C   UNL     1       6.040  14.538  24.963  0.00  0.00     0.051 A 
HETATM   19  C   UNL     1       5.935  15.137  23.692  0.00  0.00    -0.035 A 
HETATM   20  C   UNL     1       6.755  14.666  22.523  0.00  0.00     0.050 C 
HETATM   21  C   UNL     1       4.893  16.050  23.460  0.00  0.00     0.009 A 
HETATM   22  C   UNL     1       3.940  16.322  24.444  0.00  0.00     0.001 A 
HETATM   23  C   UNL     1       3.986  15.645  25.657  0.00  0.00     0.002 A 
HETATM   24  C   UNL     1       5.025  14.752  25.913  0.00  0.00     0.031 A 
ENDBRANCH   1  18
TORSDOF 4
ENDMDL
MODEL 3
REMARK VINA RESULT:    -7.088      2.008      2.588
REMARK INTER + INTRA:          -9.395
REMARK INTER:                  -8.316
REMARK INTRA:                  -1.079
REMARK UNBOUND:                -1.065
REMARK  4 active torsions:
REMARK  status: ('A' for Active; 'I' for Inactive)
REMARK    1  A    between atoms: C_7  and  N_8 
REMARK    2  A    between atoms: C_14  and  C_15 
REMARK    3  A    between atoms: C_18  and  O_19 
REMARK    4  A    between atoms: C_21  and  O_22 
ROOT
HETATM    1  N   UNL     1       7.479  14.113  23.782  0.00  0.00    -0.244 N 
HETATM    2  C   UNL     1       8.727  14.693  23.666  0.00  0.00     0.349 A 
HETATM    3  O   UNL     1       9.086  15.831  23.921  0.00  0.00    -0.245 OA
HETATM    4  N   UNL     1       9.557  13.688  23.190  0.00  0.00    -0.226 N 
HETATM    5  H   UNL     1      10.540  13.776  22.981  0.00  0.00     0.194 HD
HETATM    6  N   UNL     1       8.848  12.563  22.927  0.00  0.00    -0.151 NA
HETATM    7  C   UNL     1       7.617  12.835  23.278  0.00  0.00     0.171 A 
ENDROOT
BRANCH   7   8
HETATM    8  C   UNL     1       6.507  11.865  23.008  0.00  0.00     0.045 A 
HETATM    9  C   UNL     1       5.566  12.079  21.987  0.00  0.00     0.021 A 
HETATM   10  C   UNL     1       4.624  11.095  21.648  0.00  0.00     0.037 A 
HETATM   11  C   UNL     1       4.644   9.871  22.302  0.00  0.00     0.068 A 
HETATM   12  C   UNL     1       5.573   9.619  23.302  0.00  0.00     0.074 A 
HETATM   13  C   UNL     1       6.481  10.619  23.669  0.00  0.00     0.082 A 
BRANCH  11  14
HETATM   14  O   UNL     1       3.765   8.877  21.995  0.00  0.00    -0.361 OA
HETATM   15  H   UNL     1       2.860   9.197  22.152  0.00  0.00     0.217 HD
ENDBRANCH  11  14
BRANCH  13  16
HETATM   16  O   UNL     1       7.328  10.354  24.711  0.00  0.00    -0.360 OA
HETATM   17  H   UNL     1       6.978  10.747  25.526  0.00  0.00     0.217 HD
ENDBRANCH  13  16
ENDBRANCH   7   8
BRANCH   1  18
HETATM   18  C   UNL     1       6.353  14.816  24.244  0.00  0.00     0.051 A 
HETATM   19  C   UNL     1       5.977  14.829  25.601  0.00  0.00    -0.035 A 
HETATM   20  C   UNL     1       6.927  14.418  26.692  0.00  0.00     0.050 C 
HETATM   21  C   UNL     1       4.764  15.440  25.960  0.00  0.00     0.009 A 
HETATM   22  C   UNL     1       3.966  16.074  25.006  0.00  0.00     0.001 A 
HETATM   23  C   UNL     1       4.397  16.152  23.687  0.00  0.00     0.002 A 
HETATM   24  C   UNL     1       5.587  15.533  23.309  0.00  0.00     0.031 A 
ENDBRANCH   1  18
TORSDOF 4
ENDMDL
MODEL 4
REMARK VINA RESULT:    -7.071      0.569      1.579
REMARK INTER + INTRA:          -9.376
REMARK INTER:                  -8.164
REMARK INTRA:                  -1.212
REMARK UNBOUND:                -1.065
REMARK  4 active torsions:
REMARK  status: ('A' for Active; 'I' for Inactive)
REMARK    1  A    between atoms: C_7  and  N_8 
REMARK    2  A    between atoms: C_14  and  C_15 
REMARK    3  A    between atoms: C_18  and  O_19 
REMARK    4  A    between atoms: C_21  and  O_22 
ROOT
HETATM    1  N   UNL     1       7.234  13.592  24.985  0.00  0.00    -0.244 N 
HETATM    2  C   UNL     1       8.007  14.046  26.034  0.00  0.00     0.349 A 
HETATM    3  O   UNL     1       7.798  14.952  26.825  0.00  0.00    -0.245 OA
HETATM    4  N   UNL     1       9.132  13.233  26.041  0.00  0.00    -0.226 N 
HETATM    5  H   UNL     1       9.912  13.299  26.677  0.00  0.00     0.194 HD
HETATM    6  N   UNL     1       9.113  12.377  24.990  0.00  0.00    -0.151 NA
HETATM    7  C   UNL     1       7.983  12.608  24.370  0.00  0.00     0.171 A 
ENDROOT
BRANCH   7   8
HETATM    8  C   UNL     1       7.666  11.936  23.069  0.00  0.00     0.045 A 
HETATM    9  C   UNL     1       6.557  11.087  22.924  0.00  0.00     0.021 A 
HETATM   10  C   UNL     1       6.187  10.583  21.667  0.00  0.00     0.037 A 
HETATM   11  C   UNL     1       6.901  10.961  20.538  0.00  0.00     0.068 A 
HETATM   12  C   UNL     1       7.990  11.814  20.643  0.00  0.00     0.074 A 
HETATM   13  C   UNL     1       8.384  12.277  21.904  0.00  0.00     0.082 A 
BRANCH  11  14
HETATM   14  O   UNL     1       6.569  10.515  19.294  0.00  0.00    -0.361 OA
HETATM   15  H   UNL     1       7.223   9.855  19.011  0.00  0.00     0.217 HD
ENDBRANCH  11  14
BRANCH  13  16
HETATM   16  O   UNL     1       9.509  13.056  21.970  0.00  0.00    -0.360 OA
HETATM   17  H   UNL     1       9.820  13.258  21.073  0.00  0.00     0.217 HD
ENDBRANCH  13  16
ENDBRANCH   7   8
BRANCH   1  18
HETATM   18  C   UNL     1       5.993  14.163  24.650  0.00  0.00     0.051 A 
HETATM   19  C   UNL     1       4.768  13.565  25.003  0.00  0.00    -0.035 A 
HETATM   20  C   UNL     1       4.682  12.496  26.057  0.00  0.00     0.050 C 
HETATM   21  C   UNL     1       3.577  14.126  24.513  0.00  0.00     0.009 A 
HETATM   22  C   UNL     1       3.593  15.287  23.738  0.00  0.00     0.001 A 
HETATM   23  C   UNL     1       4.797  15.934  23.486  0.00  0.00     0.002 A 
HETATM   24  C   UNL     1       5.990  15.380  23.946  0.00  0.00     0.031 A 
ENDBRANCH   1  18
TORSDOF 4
ENDMDL
MODEL 5
REMARK VINA RESULT:    -7.023      1.631      2.536
REMARK INTER + INTRA:          -9.320
REMARK INTER:                  -8.309
REMARK INTRA:                  -1.011
REMARK UNBOUND:                -1.065
REMARK  4 active torsions:
REMARK  status: ('A' for Active; 'I' for Inactive)
REMARK    1  A    between atoms: C_7  and  N_8 
REMARK    2  A    between atoms: C_14  and  C_15 
REMARK    3  A    between atoms: C_18  and  O_19 
REMARK    4  A    between atoms: C_21  and  O_22 
ROOT
HETATM    1  N   UNL     1       7.189  14.275  24.734  0.00  0.00    -0.244 N 
HETATM    2  C   UNL     1       7.770  14.536  25.959  0.00  0.00     0.349 A 
HETATM    3  O   UNL     1       7.263  14.932  26.997  0.00  0.00    -0.245 OA
HETATM    4  N   UNL     1       9.116  14.240  25.798  0.00  0.00    -0.226 N 
HETATM    5  H   UNL     1       9.835  14.330  26.500  0.00  0.00     0.194 HD
HETATM    6  N   UNL     1       9.385  13.905  24.512  0.00  0.00    -0.151 NA
HETATM    7  C   UNL     1       8.232  13.938  23.894  0.00  0.00     0.171 A 
ENDROOT
BRANCH   7   8
HETATM    8  C   UNL     1       8.148  13.750  22.409  0.00  0.00     0.045 A 
HETATM    9  C   UNL     1       8.482  14.776  21.512  0.00  0.00     0.021 A 
HETATM   10  C   UNL     1       8.542  14.542  20.129  0.00  0.00     0.037 A 
HETATM   11  C   UNL     1       8.309  13.265  19.638  0.00  0.00     0.068 A 
HETATM   12  C   UNL     1       7.996  12.223  20.499  0.00  0.00     0.074 A 
HETATM   13  C   UNL     1       7.891  12.471  21.873  0.00  0.00     0.082 A 
BRANCH  11  14
HETATM   14  O   UNL     1       8.375  12.982  18.307  0.00  0.00    -0.361 OA
HETATM   15  H   UNL     1       7.641  12.390  18.074  0.00  0.00     0.217 HD
ENDBRANCH  11  14
BRANCH  13  16
HETATM   16  O   UNL     1       7.506  11.431  22.676  0.00  0.00    -0.360 OA
HETATM   17  H   UNL     1       6.717  11.683  23.183  0.00  0.00     0.217 HD
ENDBRANCH  13  16
ENDBRANCH   7   8
BRANCH   1  18
HETATM   18  C   UNL     1       5.816  14.450  24.490  0.00  0.00     0.051 A 
HETATM   19  C   UNL     1       4.883  13.407  24.652  0.00  0.00    -0.035 A 
HETATM   20  C   UNL     1       5.209  12.166  25.435  0.00  0.00     0.050 C 
HETATM   21  C   UNL     1       3.552  13.624  24.257  0.00  0.00     0.009 A 
HETATM   22  C   UNL     1       3.140  14.863  23.764  0.00  0.00     0.001 A 
HETATM   23  C   UNL     1       4.040  15.920  23.710  0.00  0.00     0.002 A 
HETATM   24  C   UNL     1       5.369  15.718  24.077  0.00  0.00     0.031 A 
ENDBRANCH   1  18
TORSDOF 4
ENDMDL
MODEL 6
REMARK VINA RESULT:    -6.899      1.991      2.547
REMARK INTER + INTRA:          -9.174
REMARK INTER:                  -7.954
REMARK INTRA:                  -1.220
REMARK UNBOUND:                -1.065
REMARK  4 active torsions:
REMARK  status: ('A' for Active; 'I' for Inactive)
REMARK    1  A    between atoms: C_7  and  N_8 
REMARK    2  A    between atoms: C_14  and  C_15 
REMARK    3  A    between atoms: C_18  and  O_19 
REMARK    4  A    between atoms: C_21  and  O_22 
ROOT
HETATM    1  N   UNL     1       7.323  14.038  24.440  0.00  0.00    -0.244 N 
HETATM    2  C   UNL     1       7.649  14.624  25.647  0.00  0.00     0.349 A 
HETATM    3  O   UNL     1       6.944  14.866  26.614  0.00  0.00    -0.245 OA
HETATM    4  N   UNL     1       9.007  14.896  25.569  0.00  0.00    -0.226 N 
HETATM    5  H   UNL     1       9.569  15.337  26.281  0.00  0.00     0.194 HD
HETATM    6  N   UNL     1       9.489  14.588  24.340  0.00  0.00    -0.151 NA
HETATM    7  C   UNL     1       8.476  14.087  23.681  0.00  0.00     0.171 A 
ENDROOT
BRANCH   7   8
HETATM    8  C   UNL     1       8.593  13.749  22.226  0.00  0.00     0.045 A 
HETATM    9  C   UNL     1       8.622  12.420  21.773  0.00  0.00     0.021 A 
HETATM   10  C   UNL     1       8.583  12.118  20.402  0.00  0.00     0.037 A 
HETATM   11  C   UNL     1       8.471  13.145  19.476  0.00  0.00     0.068 A 
HETATM   12  C   UNL     1       8.420  14.468  19.890  0.00  0.00     0.074 A 
HETATM   13  C   UNL     1       8.506  14.768  21.254  0.00  0.00     0.082 A 
BRANCH  11  14
HETATM   14  O   UNL     1       8.409  12.902  18.137  0.00  0.00    -0.361 OA
HETATM   15  H   UNL     1       9.015  12.174  17.920  0.00  0.00     0.217 HD
ENDBRANCH  11  14
BRANCH  13  16
HETATM   16  O   UNL     1       8.528  16.090  21.612  0.00  0.00    -0.360 OA
HETATM   17  H   UNL     1       9.417  16.453  21.471  0.00  0.00     0.217 HD
ENDBRANCH  13  16
ENDBRANCH   7   8
BRANCH   1  18
HETATM   18  C   UNL     1       6.021  13.608  24.129  0.00  0.00     0.051 A 
HETATM   19  C   UNL     1       5.006  14.502  23.736  0.00  0.00    -0.035 A 
HETATM   20  C   UNL     1       5.315  15.896  23.266  0.00  0.00     0.050 C 
HETATM   21  C   UNL     1       3.699  14.012  23.576  0.00  0.00     0.009 A 
HETATM   22  C   UNL     1       3.412  12.656  23.747  0.00  0.00     0.001 A 
HETATM   23  C   UNL     1       4.438  11.762  24.027  0.00  0.00     0.002 A 
HETATM   24  C   UNL     1       5.737  12.233  24.210  0.00  0.00     0.031 A 
ENDBRANCH   1  18
TORSDOF 4
ENDMDL
MODEL 7
REMARK VINA RESULT:    -6.892      4.911      6.267
REMARK INTER + INTRA:          -9.166
REMARK INTER:                  -8.270
REMARK INTRA:                  -0.896
REMARK UNBOUND:                -1.065
REMARK  4 active torsions:
REMARK  status: ('A' for Active; 'I' for Inactive)
REMARK    1  A    between atoms: C_7  and  N_8 
REMARK    2  A    between atoms: C_14  and  C_15 
REMARK    3  A    between atoms: C_18  and  O_19 
REMARK    4  A    between atoms: C_21  and  O_22 
ROOT
HETATM    1  N   UNL     1       3.161  11.996  24.995  0.00  0.00    -0.244 N 
HETATM    2  C   UNL     1       4.135  11.104  25.398  0.00  0.00     0.349 A 
HETATM    3  O   UNL     1       5.311  11.298  25.664  0.00  0.00    -0.245 OA
HETATM    4  N   UNL     1       3.501   9.872  25.464  0.00  0.00    -0.226 N 
HETATM    5  H   UNL     1       3.928   8.994  25.717  0.00  0.00     0.194 HD
HETATM    6  N   UNL     1       2.220   9.966  25.029  0.00  0.00    -0.151 NA
HETATM    7  C   UNL     1       2.037  11.231  24.749  0.00  0.00     0.171 A 
ENDROOT
BRANCH   7   8
HETATM    8  C   UNL     1       0.767  11.703  24.110  0.00  0.00     0.045 A 
HETATM    9  C   UNL     1       0.767  12.630  23.055  0.00  0.00     0.021 A 
HETATM   10  C   UNL     1      -0.415  12.950  22.368  0.00  0.00     0.037 A 
HETATM   11  C   UNL     1      -1.600  12.312  22.706  0.00  0.00     0.068 A 
HETATM   12  C   UNL     1      -1.632  11.377  23.730  0.00  0.00     0.074 A 
HETATM   13  C   UNL     1      -0.461  11.094  24.444  0.00  0.00     0.082 A 
BRANCH  11  14
HETATM   14  O   UNL     1      -2.768  12.573  22.056  0.00  0.00    -0.361 OA
HETATM   15  H   UNL     1      -2.605  12.561  21.098  0.00  0.00     0.217 HD
ENDBRANCH  11  14
BRANCH  13  16
HETATM   16  O   UNL     1      -0.555  10.222  25.496  0.00  0.00    -0.360 OA
HETATM   17  H   UNL     1       0.291  10.188  25.969  0.00  0.00     0.217 HD
ENDBRANCH  13  16
ENDBRANCH   7   8
BRANCH   1  18
HETATM   18  C   UNL     1       3.412  13.367  24.814  0.00  0.00     0.051 A 
HETATM   19  C   UNL     1       4.191  13.856  23.748  0.00  0.00    -0.035 A 
HETATM   20  C   UNL     1       4.498  13.017  22.539  0.00  0.00     0.050 C 
HETATM   21  C   UNL     1       4.509  15.225  23.716  0.00  0.00     0.009 A 
HETATM   22  C   UNL     1       4.019  16.101  24.686  0.00  0.00     0.001 A 
HETATM   23  C   UNL     1       3.161  15.630  25.673  0.00  0.00     0.002 A 
HETATM   24  C   UNL     1       2.853  14.273  25.733  0.00  0.00     0.031 A 
ENDBRANCH   1  18
TORSDOF 4
ENDMDL
MODEL 8
REMARK VINA RESULT:    -6.762      2.379      4.801
REMARK INTER + INTRA:          -9.012
REMARK INTER:                  -7.747
REMARK INTRA:                  -1.265
REMARK UNBOUND:                -1.065
REMARK  4 active torsions:
REMARK  status: ('A' for Active; 'I' for Inactive)
REMARK    1  A    between atoms: C_7  and  N_8 
REMARK    2  A    between atoms: C_14  and  C_15 
REMARK    3  A    between atoms: C_18  and  O_19 
REMARK    4  A    between atoms: C_21  and  O_22 
ROOT
HETATM    1  N   UNL     1       7.350  14.365  24.920  0.00  0.00    -0.244 N 
HETATM    2  C   UNL     1       8.396  14.247  25.813  0.00  0.00     0.349 A 
HETATM    3  O   UNL     1       9.558  13.927  25.617  0.00  0.00    -0.245 OA
HETATM    4  N   UNL     1       7.866  14.589  27.048  0.00  0.00    -0.226 N 
HETATM    5  H   UNL     1       8.361  14.598  27.928  0.00  0.00     0.194 HD
HETATM    6  N   UNL     1       6.533  14.814  26.954  0.00  0.00    -0.151 NA
HETATM    7  C   UNL     1       6.242  14.671  25.686  0.00  0.00     0.171 A 
ENDROOT
BRANCH   7   8
HETATM    8  C   UNL     1       4.821  14.715  25.211  0.00  0.00     0.045 A 
HETATM    9  C   UNL     1       4.349  15.744  24.382  0.00  0.00     0.021 A 
HETATM   10  C   UNL     1       3.061  15.695  23.824  0.00  0.00     0.037 A 
HETATM   11  C   UNL     1       2.252  14.593  24.061  0.00  0.00     0.068 A 
HETATM   12  C   UNL     1       2.695  13.549  24.860  0.00  0.00     0.074 A 
HETATM   13  C   UNL     1       3.962  13.623  25.452  0.00  0.00     0.082 A 
BRANCH  11  14
HETATM   14  O   UNL     1       1.003  14.489  23.527  0.00  0.00    -0.361 OA
HETATM   15  H   UNL     1       0.669  13.589  23.680  0.00  0.00     0.217 HD
ENDBRANCH  11  14
BRANCH  13  16
HETATM   16  O   UNL     1       4.328  12.606  26.294  0.00  0.00    -0.360 OA
HETATM   17  H   UNL     1       3.878  12.710  27.147  0.00  0.00     0.217 HD
ENDBRANCH  13  16
ENDBRANCH   7   8
BRANCH   1  18
HETATM   18  C   UNL     1       7.488  14.106  23.545  0.00  0.00     0.051 A 
HETATM   19  C   UNL     1       7.349  12.813  23.005  0.00  0.00    -0.035 A 
HETATM   20  C   UNL     1       6.691  11.699  23.772  0.00  0.00     0.050 C 
HETATM   21  C   UNL     1       7.638  12.614  21.644  0.00  0.00     0.009 A 
HETATM   22  C   UNL     1       8.002  13.682  20.822  0.00  0.00     0.001 A 
HETATM   23  C   UNL     1       8.031  14.973  21.337  0.00  0.00     0.002 A 
HETATM   24  C   UNL     1       7.768  15.185  22.689  0.00  0.00     0.031 A 
ENDBRANCH   1  18
TORSDOF 4
ENDMDL
MODEL 9
REMARK VINA RESULT:    -6.619      2.059      5.390
REMARK INTER + INTRA:          -8.844
REMARK INTER:                  -7.779
REMARK INTRA:                  -1.065
REMARK UNBOUND:                -1.065
REMARK  4 active torsions:
REMARK  status: ('A' for Active; 'I' for Inactive)
REMARK    1  A    between atoms: C_7  and  N_8 
REMARK    2  A    between atoms: C_14  and  C_15 
REMARK    3  A    between atoms: C_18  and  O_19 
REMARK    4  A    between atoms: C_21  and  O_22 
ROOT
HETATM    1  N   UNL     1       7.126  13.571  22.061  0.00  0.00    -0.244 N 
HETATM    2  C   UNL     1       8.207  13.685  21.210  0.00  0.00     0.349 A 
HETATM    3  O   UNL     1       8.839  12.818  20.628  0.00  0.00    -0.245 OA
HETATM    4  N   UNL     1       8.460  15.046  21.116  0.00  0.00    -0.226 N 
HETATM    5  H   UNL     1       9.195  15.481  20.579  0.00  0.00     0.194 HD
HETATM    6  N   UNL     1       7.643  15.745  21.942  0.00  0.00    -0.151 NA
HETATM    7  C   UNL     1       6.864  14.854  22.500  0.00  0.00     0.171 A 
ENDROOT
BRANCH   7   8
HETATM    8  C   UNL     1       5.905  15.240  23.585  0.00  0.00     0.045 A 
HETATM    9  C   UNL     1       4.549  15.491  23.322  0.00  0.00     0.021 A 
HETATM   10  C   UNL     1       3.634  15.705  24.365  0.00  0.00     0.037 A 
HETATM   11  C   UNL     1       4.063  15.628  25.682  0.00  0.00     0.068 A 
HETATM   12  C   UNL     1       5.392  15.363  25.978  0.00  0.00     0.074 A 
HETATM   13  C   UNL     1       6.311  15.196  24.935  0.00  0.00     0.082 A 
BRANCH  11  14
HETATM   14  O   UNL     1       3.210  15.808  26.729  0.00  0.00    -0.361 OA
HETATM   15  H   UNL     1       2.509  16.426  26.461  0.00  0.00     0.217 HD
ENDBRANCH  11  14
BRANCH  13  16
HETATM   16  O   UNL     1       7.626  15.011  25.273  0.00  0.00    -0.360 OA
HETATM   17  H   UNL     1       7.719  15.008  26.239  0.00  0.00     0.217 HD
ENDBRANCH  13  16
ENDBRANCH   7   8
BRANCH   1  18
HETATM   18  C   UNL     1       6.558  12.333  22.409  0.00  0.00     0.051 A 
HETATM   19  C   UNL     1       7.180  11.446  23.308  0.00  0.00    -0.035 A 
HETATM   20  C   UNL     1       8.281  11.891  24.230  0.00  0.00     0.050 C 
HETATM   21  C   UNL     1       6.618  10.172  23.498  0.00  0.00     0.009 A 
HETATM   22  C   UNL     1       5.434   9.804  22.855  0.00  0.00     0.001 A 
HETATM   23  C   UNL     1       4.767  10.725  22.055  0.00  0.00     0.002 A 
HETATM   24  C   UNL     1       5.321  11.985  21.839  0.00  0.00     0.031 A 
ENDBRANCH   1  18
TORSDOF 4
ENDMDL
