MODEL 1
REMARK VINA RESULT:    -6.936      0.000      0.000
REMARK INTER + INTRA:          -8.385
REMARK INTER:                  -7.966
REMARK INTRA:                  -0.418
REMARK UNBOUND:                -0.435
REMARK  3 active torsions:
REMARK  status: ('A' for Active; 'I' for Inactive)
REMARK    1  A    between atoms: C_4  and  N_5 
REMARK    2  A    between atoms: N_9  and  C_12 
REMARK    3  A    between atoms: C_12  and  C_13 
ROOT
HETATM    1  C   UNL     1      -3.644  10.921  26.056  0.00  0.00     0.071 C 
HETATM    2  C   UNL     1      -2.796  12.158  26.107  0.00  0.00     0.048 A 
HETATM    3  N   UNL     1      -2.924  12.933  27.215  0.00  0.00    -0.223 NA
HETATM    4  C   UNL     1      -2.230  14.071  27.298  0.00  0.00     0.201 A 
HETATM    5  N   UNL     1      -1.412  14.587  26.373  0.00  0.00    -0.200 NA
HETATM    6  C   UNL     1      -1.236  13.785  25.309  0.00  0.00     0.145 A 
HETATM    7  C   UNL     1      -1.895  12.571  25.110  0.00  0.00     0.036 A 
HETATM    8  N   UNL     1      -0.408  14.017  24.219  0.00  0.00    -0.335 N 
HETATM    9  C   UNL     1      -0.554  12.962  23.336  0.00  0.00     0.094 A 
HETATM   10  C   UNL     1      -1.473  12.072  23.852  0.00  0.00     0.034 A 
ENDROOT
BRANCH   8  11
HETATM   11  C   UNL     1       0.250  15.288  23.861  0.00  0.00     0.189 C 
BRANCH  11  12
HETATM   12  C   UNL     1       1.602  15.215  23.158  0.00  0.00     0.059 C 
HETATM   13  C   UNL     1       1.784  15.507  21.803  0.00  0.00    -0.029 C 
HETATM   14  C   UNL     1       0.607  15.730  20.894  0.00  0.00     0.051 C 
HETATM   15  C   UNL     1       3.090  15.525  21.256  0.00  0.00    -0.047 C 
HETATM   16  C   UNL     1       3.350  16.169  19.918  0.00  0.00     0.049 C 
HETATM   17  C   UNL     1       4.132  14.929  21.975  0.00  0.00    -0.038 C 
HETATM   18  C   UNL     1       3.833  14.509  23.266  0.00  0.00     0.124 C 
HETATM   19  C   UNL     1       5.491  14.660  21.388  0.00  0.00     0.050 C 
HETATM   20  N   UNL     1       2.631  14.698  23.883  0.00  0.00    -0.263 NA
ENDBRANCH  11  12
ENDBRANCH   8  11
BRANCH   4  21
HETATM   21  N   UNL     1      -2.412  14.779  28.476  0.00  0.00    -0.271 NA
HETATM   22  H   UNL     1      -1.658  14.558  29.108  0.00  0.00     0.127 HD
HETATM   23  H   UNL     1      -3.355  14.637  28.808  0.00  0.00     0.127 HD
ENDBRANCH   4  21
TORSDOF 3
ENDMDL
MODEL 2
REMARK VINA RESULT:    -6.816      1.539      2.290
REMARK INTER + INTRA:          -8.248
REMARK INTER:                  -7.802
REMARK INTRA:                  -0.446
REMARK UNBOUND:                -0.435
REMARK  3 active torsions:
REMARK  status: ('A' for Active; 'I' for Inactive)
REMARK    1  A    between atoms: C_4  and  N_5 
REMARK    2  A    between atoms: N_9  and  C_12 
REMARK    3  A    between atoms: C_12  and  C_13 
ROOT
HETATM    1  C   UNL     1      -4.924  10.597  26.628  0.00  0.00     0.071 C 
HETATM    2  C   UNL     1      -3.971  11.722  26.350  0.00  0.00     0.048 A 
HETATM    3  N   UNL     1      -3.626  12.497  27.410  0.00  0.00    -0.223 NA
HETATM    4  C   UNL     1      -2.819  13.544  27.218  0.00  0.00     0.201 A 
HETATM    5  N   UNL     1      -2.308  13.965  26.055  0.00  0.00    -0.200 NA
HETATM    6  C   UNL     1      -2.596  13.157  25.020  0.00  0.00     0.145 A 
HETATM    7  C   UNL     1      -3.419  12.032  25.094  0.00  0.00     0.036 A 
HETATM    8  N   UNL     1      -2.164  13.297  23.709  0.00  0.00    -0.335 N 
HETATM    9  C   UNL     1      -2.721  12.274  22.961  0.00  0.00     0.094 A 
HETATM   10  C   UNL     1      -3.508  11.496  23.785  0.00  0.00     0.034 A 
ENDROOT
BRANCH   8  11
HETATM   11  C   UNL     1      -1.524  14.483  23.109  0.00  0.00     0.189 C 
BRANCH  11  12
HETATM   12  C   UNL     1      -0.053  14.375  22.720  0.00  0.00     0.059 C 
HETATM   13  C   UNL     1       1.001  14.642  23.600  0.00  0.00    -0.029 C 
HETATM   14  C   UNL     1       0.744  15.247  24.953  0.00  0.00     0.051 C 
HETATM   15  C   UNL     1       2.336  14.407  23.193  0.00  0.00    -0.047 C 
HETATM   16  C   UNL     1       3.446  14.345  24.211  0.00  0.00     0.049 C 
HETATM   17  C   UNL     1       2.607  14.240  21.830  0.00  0.00    -0.038 C 
HETATM   18  C   UNL     1       1.507  14.147  20.986  0.00  0.00     0.124 C 
HETATM   19  C   UNL     1       4.000  14.244  21.260  0.00  0.00     0.050 C 
HETATM   20  N   UNL     1       0.209  14.144  21.404  0.00  0.00    -0.263 NA
ENDBRANCH  11  12
ENDBRANCH   8  11
BRANCH   4  21
HETATM   21  N   UNL     1      -2.509  14.259  28.364  0.00  0.00    -0.271 NA
HETATM   22  H   UNL     1      -1.573  14.019  28.654  0.00  0.00     0.127 HD
HETATM   23  H   UNL     1      -3.250  14.142  29.040  0.00  0.00     0.127 HD
ENDBRANCH   4  21
TORSDOF 3
ENDMDL
MODEL 3
REMARK VINA RESULT:    -6.692      2.147      2.756
REMARK INTER + INTRA:          -8.105
REMARK INTER:                  -7.705
REMARK INTRA:                  -0.400
REMARK UNBOUND:                -0.435
REMARK  3 active torsions:
REMARK  status: ('A' for Active; 'I' for Inactive)
REMARK    1  A    between atoms: C_4  and  N_5 
REMARK    2  A    between atoms: N_9  and  C_12 
REMARK    3  A    between atoms: C_12  and  C_13 
ROOT
HETATM    1  C   UNL     1      -4.575  11.152  27.326  0.00  0.00     0.071 C 
HETATM    2  C   UNL     1      -3.874  11.717  26.125  0.00  0.00     0.048 A 
HETATM    3  N   UNL     1      -4.470  12.778  25.522  0.00  0.00    -0.223 NA
HETATM    4  C   UNL     1      -3.919  13.295  24.420  0.00  0.00     0.201 A 
HETATM    5  N   UNL     1      -2.822  12.862  23.787  0.00  0.00    -0.200 NA
HETATM    6  C   UNL     1      -2.199  11.857  24.424  0.00  0.00     0.145 A 
HETATM    7  C   UNL     1      -2.668  11.237  25.584  0.00  0.00     0.036 A 
HETATM    8  N   UNL     1      -1.014  11.239  24.047  0.00  0.00    -0.335 N 
HETATM    9  C   UNL     1      -0.747  10.231  24.956  0.00  0.00     0.094 A 
HETATM   10  C   UNL     1      -1.755  10.199  25.898  0.00  0.00     0.034 A 
ENDROOT
BRANCH   8  11
HETATM   11  C   UNL     1      -0.326  11.362  22.748  0.00  0.00     0.189 C 
BRANCH  11  12
HETATM   12  C   UNL     1       0.751  12.434  22.615  0.00  0.00     0.059 C 
HETATM   13  C   UNL     1       1.239  12.890  21.385  0.00  0.00    -0.029 C 
HETATM   14  C   UNL     1       0.862  12.203  20.102  0.00  0.00     0.051 C 
HETATM   15  C   UNL     1       2.154  13.968  21.347  0.00  0.00    -0.047 C 
HETATM   16  C   UNL     1       2.420  14.701  20.057  0.00  0.00     0.049 C 
HETATM   17  C   UNL     1       2.814  14.336  22.525  0.00  0.00    -0.038 C 
HETATM   18  C   UNL     1       2.387  13.718  23.694  0.00  0.00     0.124 C 
HETATM   19  C   UNL     1       3.985  15.282  22.555  0.00  0.00     0.050 C 
HETATM   20  N   UNL     1       1.344  12.842  23.770  0.00  0.00    -0.263 NA
ENDBRANCH  11  12
ENDBRANCH   8  11
BRANCH   4  21
HETATM   21  N   UNL     1      -4.589  14.388  23.892  0.00  0.00    -0.271 NA
HETATM   22  H   UNL     1      -3.933  15.143  23.769  0.00  0.00     0.127 HD
HETATM   23  H   UNL     1      -5.414  14.572  24.446  0.00  0.00     0.127 HD
ENDBRANCH   4  21
TORSDOF 3
ENDMDL
MODEL 4
REMARK VINA RESULT:    -6.655      1.759      2.754
REMARK INTER + INTRA:          -8.063
REMARK INTER:                  -7.657
REMARK INTRA:                  -0.406
REMARK UNBOUND:                -0.435
REMARK  3 active torsions:
REMARK  status: ('A' for Active; 'I' for Inactive)
REMARK    1  A    between atoms: C_4  and  N_5 
REMARK    2  A    between atoms: N_9  and  C_12 
REMARK    3  A    between atoms: C_12  and  C_13 
ROOT
HETATM    1  C   UNL     1      -3.145  10.605  26.049  0.00  0.00     0.071 C 
HETATM    2  C   UNL     1      -2.819  11.570  24.947  0.00  0.00     0.048 A 
HETATM    3  N   UNL     1      -2.969  11.111  23.678  0.00  0.00    -0.223 NA
HETATM    4  C   UNL     1      -2.649  11.907  22.654  0.00  0.00     0.201 A 
HETATM    5  N   UNL     1      -2.146  13.145  22.723  0.00  0.00    -0.200 NA
HETATM    6  C   UNL     1      -2.063  13.620  23.977  0.00  0.00     0.145 A 
HETATM    7  C   UNL     1      -2.374  12.892  25.126  0.00  0.00     0.036 A 
HETATM    8  N   UNL     1      -1.638  14.884  24.362  0.00  0.00    -0.335 N 
HETATM    9  C   UNL     1      -1.670  14.946  25.744  0.00  0.00     0.094 A 
HETATM   10  C   UNL     1      -2.101  13.731  26.236  0.00  0.00     0.034 A 
ENDROOT
BRANCH   8  11
HETATM   11  C   UNL     1      -0.944  15.880  23.523  0.00  0.00     0.189 C 
BRANCH  11  12
HETATM   12  C   UNL     1       0.500  15.590  23.125  0.00  0.00     0.059 C 
HETATM   13  C   UNL     1       1.009  15.823  21.843  0.00  0.00    -0.029 C 
HETATM   14  C   UNL     1       0.100  16.201  20.707  0.00  0.00     0.051 C 
HETATM   15  C   UNL     1       2.388  15.635  21.589  0.00  0.00    -0.047 C 
HETATM   16  C   UNL     1       3.022  16.204  20.345  0.00  0.00     0.049 C 
HETATM   17  C   UNL     1       3.152  14.905  22.507  0.00  0.00    -0.038 C 
HETATM   18  C   UNL     1       2.526  14.562  23.700  0.00  0.00     0.124 C 
HETATM   19  C   UNL     1       4.549  14.424  22.222  0.00  0.00     0.050 C 
HETATM   20  N   UNL     1       1.262  14.941  24.047  0.00  0.00    -0.263 NA
ENDBRANCH  11  12
ENDBRANCH   8  11
BRANCH   4  21
HETATM   21  N   UNL     1      -2.858  11.356  21.400  0.00  0.00    -0.271 NA
HETATM   22  H   UNL     1      -3.540  11.912  20.910  0.00  0.00     0.127 HD
HETATM   23  H   UNL     1      -3.044  10.367  21.498  0.00  0.00     0.127 HD
ENDBRANCH   4  21
TORSDOF 3
ENDMDL
MODEL 5
REMARK VINA RESULT:    -6.585      2.040      3.270
REMARK INTER + INTRA:          -7.982
REMARK INTER:                  -7.548
REMARK INTRA:                  -0.434
REMARK UNBOUND:                -0.435
REMARK  3 active torsions:
REMARK  status: ('A' for Active; 'I' for Inactive)
REMARK    1  A    between atoms: C_4  and  N_5 
REMARK    2  A    between atoms: N_9  and  C_12 
REMARK    3  A    between atoms: C_12  and  C_13 
ROOT
HETATM    1  C   UNL     1      -5.124  10.705  24.178  0.00  0.00     0.071 C 
HETATM    2  C   UNL     1      -3.695  11.155  24.092  0.00  0.00     0.048 A 
HETATM    3  N   UNL     1      -2.762  10.178  23.943  0.00  0.00    -0.223 NA
HETATM    4  C   UNL     1      -1.470  10.511  23.908  0.00  0.00     0.201 A 
HETATM    5  N   UNL     1      -0.949  11.737  24.040  0.00  0.00    -0.200 NA
HETATM    6  C   UNL     1      -1.876  12.706  24.119  0.00  0.00     0.145 A 
HETATM    7  C   UNL     1      -3.254  12.489  24.157  0.00  0.00     0.036 A 
HETATM    8  N   UNL     1      -1.647  14.073  24.204  0.00  0.00    -0.335 N 
HETATM    9  C   UNL     1      -2.872  14.708  24.306  0.00  0.00     0.094 A 
HETATM   10  C   UNL     1      -3.871  13.757  24.297  0.00  0.00     0.034 A 
ENDROOT
BRANCH   8  11
HETATM   11  C   UNL     1      -0.362  14.740  24.488  0.00  0.00     0.189 C 
BRANCH  11  12
HETATM   12  C   UNL     1       0.563  15.029  23.311  0.00  0.00     0.059 C 
HETATM   13  C   UNL     1       1.932  14.738  23.314  0.00  0.00    -0.029 C 
HETATM   14  C   UNL     1       2.624  14.291  24.572  0.00  0.00     0.051 C 
HETATM   15  C   UNL     1       2.696  14.933  22.139  0.00  0.00    -0.047 C 
HETATM   16  C   UNL     1       4.062  14.310  22.003  0.00  0.00     0.049 C 
HETATM   17  C   UNL     1       2.165  15.719  21.110  0.00  0.00    -0.038 C 
HETATM   18  C   UNL     1       0.840  16.113  21.252  0.00  0.00     0.124 C 
HETATM   19  C   UNL     1       2.977  16.204  19.939  0.00  0.00     0.050 C 
HETATM   20  N   UNL     1       0.025  15.735  22.279  0.00  0.00    -0.263 NA
ENDBRANCH  11  12
ENDBRANCH   8  11
BRANCH   4  21
HETATM   21  N   UNL     1      -0.599   9.448  23.731  0.00  0.00    -0.271 NA
HETATM   22  H   UNL     1       0.114   9.488  24.442  0.00  0.00     0.127 HD
HETATM   23  H   UNL     1      -0.295   9.424  22.767  0.00  0.00     0.127 HD
ENDBRANCH   4  21
TORSDOF 3
ENDMDL
MODEL 6
REMARK VINA RESULT:    -6.513      2.037      3.415
REMARK INTER + INTRA:          -7.900
REMARK INTER:                  -7.569
REMARK INTRA:                  -0.331
REMARK UNBOUND:                -0.435
REMARK  3 active torsions:
REMARK  status: ('A' for Active; 'I' for Inactive)
REMARK    1  A    between atoms: C_4  and  N_5 
REMARK    2  A    between atoms: N_9  and  C_12 
REMARK    3  A    between atoms: C_12  and  C_13 
ROOT
HETATM    1  C   UNL     1      -3.630  10.736  25.561  0.00  0.00     0.071 C 
HETATM    2  C   UNL     1      -3.111  11.632  24.476  0.00  0.00     0.048 A 
HETATM    3  N   UNL     1      -3.026  11.090  23.234  0.00  0.00    -0.223 NA
HETATM    4  C   UNL     1      -2.526  11.822  22.235  0.00  0.00     0.201 A 
HETATM    5  N   UNL     1      -2.046  13.069  22.311  0.00  0.00    -0.200 NA
HETATM    6  C   UNL     1      -2.194  13.625  23.525  0.00  0.00     0.145 A 
HETATM    7  C   UNL     1      -2.708  12.969  24.645  0.00  0.00     0.036 A 
HETATM    8  N   UNL     1      -1.848  14.918  23.897  0.00  0.00    -0.335 N 
HETATM    9  C   UNL     1      -2.132  15.068  25.243  0.00  0.00     0.094 A 
HETATM   10  C   UNL     1      -2.643  13.882  25.727  0.00  0.00     0.034 A 
ENDROOT
BRANCH   8  11
HETATM   11  C   UNL     1      -1.015  15.866  23.134  0.00  0.00     0.189 C 
BRANCH  11  12
HETATM   12  C   UNL     1       0.388  15.418  22.737  0.00  0.00     0.059 C 
HETATM   13  C   UNL     1       1.397  15.127  23.662  0.00  0.00    -0.029 C 
HETATM   14  C   UNL     1       1.215  15.427  25.124  0.00  0.00     0.051 C 
HETATM   15  C   UNL     1       2.635  14.608  23.214  0.00  0.00    -0.047 C 
HETATM   16  C   UNL     1       3.591  13.964  24.186  0.00  0.00     0.049 C 
HETATM   17  C   UNL     1       2.959  14.710  21.857  0.00  0.00    -0.038 C 
HETATM   18  C   UNL     1       1.954  15.166  21.012  0.00  0.00     0.124 C 
HETATM   19  C   UNL     1       4.335  14.433  21.313  0.00  0.00     0.050 C 
HETATM   20  N   UNL     1       0.680  15.452  21.408  0.00  0.00    -0.263 NA
ENDBRANCH  11  12
ENDBRANCH   8  11
BRANCH   4  21
HETATM   21  N   UNL     1      -2.502  11.188  21.003  0.00  0.00    -0.271 NA
HETATM   22  H   UNL     1      -1.565  11.228  20.634  0.00  0.00     0.127 HD
HETATM   23  H   UNL     1      -3.246  11.553  20.426  0.00  0.00     0.127 HD
ENDBRANCH   4  21
TORSDOF 3
ENDMDL
MODEL 7
REMARK VINA RESULT:    -6.507      3.262      7.179
REMARK INTER + INTRA:          -7.893
REMARK INTER:                  -7.373
REMARK INTRA:                  -0.520
REMARK UNBOUND:                -0.435
REMARK  3 active torsions:
REMARK  status: ('A' for Active; 'I' for Inactive)
REMARK    1  A    between atoms: C_4  and  N_5 
REMARK    2  A    between atoms: N_9  and  C_12 
REMARK    3  A    between atoms: C_12  and  C_13 
ROOT
HETATM    1  C   UNL     1       1.277  16.204  21.259  0.00  0.00     0.071 C 
HETATM    2  C   UNL     1       0.031  15.369  21.245  0.00  0.00     0.048 A 
HETATM    3  N   UNL     1      -1.144  16.039  21.118  0.00  0.00    -0.223 NA
HETATM    4  C   UNL     1      -2.291  15.356  21.147  0.00  0.00     0.201 A 
HETATM    5  N   UNL     1      -2.440  14.038  21.325  0.00  0.00    -0.200 NA
HETATM    6  C   UNL     1      -1.275  13.371  21.383  0.00  0.00     0.145 A 
HETATM    7  C   UNL     1      -0.014  13.968  21.355  0.00  0.00     0.036 A 
HETATM    8  N   UNL     1      -1.107  11.998  21.504  0.00  0.00    -0.335 N 
HETATM    9  C   UNL     1       0.250  11.736  21.565  0.00  0.00     0.094 A 
HETATM   10  C   UNL     1       0.940  12.928  21.493  0.00  0.00     0.034 A 
ENDROOT
BRANCH   8  11
HETATM   11  C   UNL     1      -2.140  11.006  21.858  0.00  0.00     0.189 C 
BRANCH  11  12
HETATM   12  C   UNL     1      -2.747  11.081  23.255  0.00  0.00     0.059 C 
HETATM   13  C   UNL     1      -2.120  10.574  24.398  0.00  0.00    -0.029 C 
HETATM   14  C   UNL     1      -0.874   9.740  24.290  0.00  0.00     0.051 C 
HETATM   15  C   UNL     1      -2.699  10.787  25.672  0.00  0.00    -0.047 C 
HETATM   16  C   UNL     1      -1.890  10.571  26.926  0.00  0.00     0.049 C 
HETATM   17  C   UNL     1      -4.036  11.193  25.747  0.00  0.00    -0.038 C 
HETATM   18  C   UNL     1      -4.651  11.526  24.546  0.00  0.00     0.124 C 
HETATM   19  C   UNL     1      -4.826  11.199  27.028  0.00  0.00     0.050 C 
HETATM   20  N   UNL     1      -4.025  11.542  23.335  0.00  0.00    -0.263 NA
ENDBRANCH  11  12
ENDBRANCH   8  11
BRANCH   4  21
HETATM   21  N   UNL     1      -3.432  16.126  20.987  0.00  0.00    -0.271 NA
HETATM   22  H   UNL     1      -3.787  15.993  20.053  0.00  0.00     0.127 HD
HETATM   23  H   UNL     1      -3.238  17.073  21.282  0.00  0.00     0.127 HD
ENDBRANCH   4  21
TORSDOF 3
ENDMDL
MODEL 8
REMARK VINA RESULT:    -6.379      3.210      5.256
REMARK INTER + INTRA:          -7.746
REMARK INTER:                  -7.311
REMARK INTRA:                  -0.435
REMARK UNBOUND:                -0.435
REMARK  3 active torsions:
REMARK  status: ('A' for Active; 'I' for Inactive)
REMARK    1  A    between atoms: C_4  and  N_5 
REMARK    2  A    between atoms: N_9  and  C_12 
REMARK    3  A    between atoms: C_12  and  C_13 
ROOT
HETATM    1  C   UNL     1      -0.976   8.109  27.492  0.00  0.00     0.071 C 
HETATM    2  C   UNL     1      -0.899   9.310  26.596  0.00  0.00     0.048 A 
HETATM    3  N   UNL     1      -0.078   9.208  25.520  0.00  0.00    -0.223 NA
HETATM    4  C   UNL     1       0.071  10.261  24.711  0.00  0.00     0.201 A 
HETATM    5  N   UNL     1      -0.488  11.470  24.850  0.00  0.00    -0.200 NA
HETATM    6  C   UNL     1      -1.351  11.545  25.877  0.00  0.00     0.145 A 
HETATM    7  C   UNL     1      -1.599  10.515  26.786  0.00  0.00     0.036 A 
HETATM    8  N   UNL     1      -2.122  12.642  26.238  0.00  0.00    -0.335 N 
HETATM    9  C   UNL     1      -2.840  12.307  27.372  0.00  0.00     0.094 A 
HETATM   10  C   UNL     1      -2.523  11.015  27.737  0.00  0.00     0.034 A 
ENDROOT
BRANCH   8  11
HETATM   11  C   UNL     1      -1.976  14.026  25.751  0.00  0.00     0.189 C 
BRANCH  11  12
HETATM   12  C   UNL     1      -2.476  14.340  24.344  0.00  0.00     0.059 C 
HETATM   13  C   UNL     1      -1.750  15.096  23.418  0.00  0.00    -0.029 C 
HETATM   14  C   UNL     1      -0.496  15.819  23.823  0.00  0.00     0.051 C 
HETATM   15  C   UNL     1      -2.235  15.244  22.096  0.00  0.00    -0.047 C 
HETATM   16  C   UNL     1      -1.327  15.740  21.000  0.00  0.00     0.049 C 
HETATM   17  C   UNL     1      -3.572  14.930  21.827  0.00  0.00    -0.038 C 
HETATM   18  C   UNL     1      -4.286  14.326  22.856  0.00  0.00     0.124 C 
HETATM   19  C   UNL     1      -4.261  15.288  20.538  0.00  0.00     0.050 C 
HETATM   20  N   UNL     1      -3.755  13.972  24.062  0.00  0.00    -0.263 NA
ENDBRANCH  11  12
ENDBRANCH   8  11
BRANCH   4  21
HETATM   21  N   UNL     1       0.911  10.051  23.629  0.00  0.00    -0.271 NA
HETATM   22  H   UNL     1       0.350   9.903  22.805  0.00  0.00     0.127 HD
HETATM   23  H   UNL     1       1.588   9.340  23.867  0.00  0.00     0.127 HD
ENDBRANCH   4  21
TORSDOF 3
ENDMDL
MODEL 9
REMARK VINA RESULT:    -5.304      3.738      5.171
REMARK INTER + INTRA:          -6.515
REMARK INTER:                  -6.156
REMARK INTRA:                  -0.359
REMARK UNBOUND:                -0.435
REMARK  3 active torsions:
REMARK  status: ('A' for Active; 'I' for Inactive)
REMARK    1  A    between atoms: C_4  and  N_5 
REMARK    2  A    between atoms: N_9  and  C_12 
REMARK    3  A    between atoms: C_12  and  C_13 
ROOT
HETATM    1  C   UNL     1       0.375   7.780  25.706  0.00  0.00     0.071 C 
HETATM    2  C   UNL     1      -0.549   8.947  25.888  0.00  0.00     0.048 A 
HETATM    3  N   UNL     1      -0.951   9.207  27.159  0.00  0.00    -0.223 NA
HETATM    4  C   UNL     1      -1.812  10.204  27.380  0.00  0.00     0.201 A 
HETATM    5  N   UNL     1      -2.381  10.996  26.463  0.00  0.00    -0.200 NA
HETATM    6  C   UNL     1      -1.930  10.780  25.216  0.00  0.00     0.145 A 
HETATM    7  C   UNL     1      -1.027   9.778  24.858  0.00  0.00     0.036 A 
HETATM    8  N   UNL     1      -2.287  11.477  24.069  0.00  0.00    -0.335 N 
HETATM    9  C   UNL     1      -1.622  10.909  22.997  0.00  0.00     0.094 A 
HETATM   10  C   UNL     1      -0.857   9.855  23.453  0.00  0.00     0.034 A 
ENDROOT
BRANCH   8  11
HETATM   11  C   UNL     1      -3.414  12.415  23.917  0.00  0.00     0.189 C 
BRANCH  11  12
HETATM   12  C   UNL     1      -3.361  13.408  22.760  0.00  0.00     0.059 C 
HETATM   13  C   UNL     1      -2.464  14.480  22.703  0.00  0.00    -0.029 C 
HETATM   14  C   UNL     1      -1.611  14.838  23.888  0.00  0.00     0.051 C 
HETATM   15  C   UNL     1      -2.403  15.285  21.541  0.00  0.00    -0.047 C 
HETATM   16  C   UNL     1      -1.231  16.204  21.307  0.00  0.00     0.049 C 
HETATM   17  C   UNL     1      -3.452  15.220  20.617  0.00  0.00    -0.038 C 
HETATM   18  C   UNL     1      -4.404  14.230  20.830  0.00  0.00     0.124 C 
HETATM   19  C   UNL     1      -3.624  16.204  19.491  0.00  0.00     0.050 C 
HETATM   20  N   UNL     1      -4.344  13.299  21.825  0.00  0.00    -0.263 NA
ENDBRANCH  11  12
ENDBRANCH   8  11
BRANCH   4  21
HETATM   21  N   UNL     1      -2.143  10.404  28.711  0.00  0.00    -0.271 NA
HETATM   22  H   UNL     1      -1.405  10.033  29.289  0.00  0.00     0.127 HD
HETATM   23  H   UNL     1      -3.080  10.064  28.875  0.00  0.00     0.127 HD
ENDBRANCH   4  21
TORSDOF 3
ENDMDL
