REMARK  3 active torsions:
REMARK  status: ('A' for Active; 'I' for Inactive)
REMARK    1  A    between atoms: C_4  and  N_5 
REMARK    2  A    between atoms: N_9  and  C_12 
REMARK    3  A    between atoms: C_12  and  C_13 
ROOT
HETATM    1  C   UNL     1       0.032  -1.952   0.222  0.00  0.00     0.071 C 
HETATM    2  C   UNL     1       1.398  -2.056  -0.390  0.00  0.00     0.048 A 
HETATM    3  N   UNL     1       1.452  -2.070  -1.747  0.00  0.00    -0.223 NA
HETATM    4  C   UNL     1       2.635  -2.209  -2.351  0.00  0.00     0.201 A 
HETATM    5  N   UNL     1       3.826  -2.376  -1.763  0.00  0.00    -0.200 NA
HETATM    6  C   UNL     1       3.777  -2.294  -0.423  0.00  0.00     0.145 A 
HETATM    7  C   UNL     1       2.607  -2.142   0.323  0.00  0.00     0.036 A 
HETATM    8  N   UNL     1       4.849  -2.369   0.456  0.00  0.00    -0.335 N 
HETATM    9  C   UNL     1       4.355  -2.277   1.745  0.00  0.00     0.094 A 
HETATM   10  C   UNL     1       2.982  -2.155   1.690  0.00  0.00     0.034 A 
ENDROOT
BRANCH   8  11
HETATM   11  C   UNL     1       6.221  -2.812   0.144  0.00  0.00     0.189 C 
BRANCH  11  12
HETATM   12  C   UNL     1       7.295  -1.740  -0.011  0.00  0.00     0.059 C 
HETATM   13  C   UNL     1       7.320  -0.818  -1.063  0.00  0.00    -0.029 C 
HETATM   14  C   UNL     1       6.381  -0.951  -2.230  0.00  0.00     0.051 C 
HETATM   15  C   UNL     1       8.286   0.216  -1.070  0.00  0.00    -0.047 C 
HETATM   16  C   UNL     1       8.123   1.409  -1.977  0.00  0.00     0.049 C 
HETATM   17  C   UNL     1       9.398   0.108  -0.227  0.00  0.00    -0.038 C 
HETATM   18  C   UNL     1       9.382  -0.937   0.689  0.00  0.00     0.124 C 
HETATM   19  C   UNL     1      10.604   1.002  -0.333  0.00  0.00     0.050 C 
HETATM   20  N   UNL     1       8.343  -1.805   0.855  0.00  0.00    -0.263 NA
ENDBRANCH  11  12
ENDBRANCH   8  11
BRANCH   4  21
HETATM   21  N   UNL     1       2.588  -2.189  -3.736  0.00  0.00    -0.271 NA
HETATM   22  H   UNL     1       1.660  -2.446  -4.034  0.00  0.00     0.127 HD
HETATM   23  H   UNL     1       3.361  -2.726  -4.103  0.00  0.00     0.127 HD
ENDBRANCH   4  21
TORSDOF 3
