MODEL 1
REMARK VINA RESULT:    -9.542      0.000      0.000
REMARK INTER + INTRA:         -13.766
REMARK INTER:                 -12.344
REMARK INTRA:                  -1.422
REMARK UNBOUND:                -1.155
REMARK  6 active torsions:
REMARK  status: ('A' for Active; 'I' for Inactive)
REMARK    1  A    between atoms: N_8  and  C_9 
REMARK    2  A    between atoms: C_14  and  N_15 
REMARK       I    between atoms: N_15  and  C_17 
REMARK    3  A    between atoms: C_17  and  C_19 
REMARK    4  A    between atoms: C_21  and  O_22 
REMARK    5  A    between atoms: C_29  and  C_30 
REMARK    6  A    between atoms: C_30  and  C_31 
ROOT
HETATM    1  C   UNL     1       7.412  14.860  24.942  0.00  0.00     0.066 C 
HETATM    2  C   UNL     1       8.213  15.366  23.891  0.00  0.00     0.035 C 
HETATM    3  C   UNL     1       8.057  14.517  26.151  0.00  0.00     0.083 C 
HETATM    4  C   UNL     1       9.446  14.570  26.299  0.00  0.00     0.069 C 
HETATM    5  C   UNL     1      10.188  14.899  25.163  0.00  0.00     0.065 A 
HETATM    6  C   UNL     1       9.615  15.258  23.949  0.00  0.00     0.020 A 
HETATM    7  N   UNL     1      11.539  14.975  24.952  0.00  0.00    -0.277 N 
HETATM    8  H   UNL     1      12.278  14.842  25.633  0.00  0.00     0.189 HD
HETATM    9  N   UNL     1      11.883  15.226  23.678  0.00  0.00    -0.178 NA
HETATM   10  C   UNL     1      10.713  15.383  23.035  0.00  0.00     0.071 A 
ENDROOT
BRANCH   1  11
HETATM   11  C   UNL     1       5.921  14.648  24.817  0.00  0.00     0.260 C 
HETATM   12  N   UNL     1       5.380  13.485  24.183  0.00  0.00    -0.318 N 
HETATM   13  C   UNL     1       6.258  12.406  23.712  0.00  0.00     0.159 C 
HETATM   14  O   UNL     1       5.238  15.523  25.358  0.00  0.00    -0.267 OA
BRANCH  12  15
HETATM   15  C   UNL     1       3.949  13.214  24.071  0.00  0.00     0.037 A 
HETATM   16  C   UNL     1       3.407  12.008  24.539  0.00  0.00     0.032 A 
HETATM   17  C   UNL     1       2.019  11.785  24.656  0.00  0.00     0.031 A 
HETATM   18  C   UNL     1       1.089  12.738  24.260  0.00  0.00     0.030 A 
HETATM   19  C   UNL     1       1.630  13.880  23.654  0.00  0.00     0.031 A 
HETATM   20  C   UNL     1       3.023  14.125  23.567  0.00  0.00     0.032 A 
BRANCH  18  21
HETATM   21  N   UNL     1      -0.276  12.564  24.408  0.00  0.00    -0.378 N 
HETATM   22  C   UNL     1      -0.937  12.442  25.719  0.00  0.00     0.150 C 
HETATM   23  C   UNL     1      -1.979  11.304  25.650  0.00  0.00     0.252 C 
HETATM   24  N   UNL     1      -2.921  11.495  24.480  0.00  0.00    -0.072 N 
HETATM   25  H   UNL     1      -3.521  12.311  24.658  0.00  0.00     0.277 HD
HETATM   26  H   UNL     1      -3.540  10.679  24.404  0.00  0.00     0.277 HD
HETATM   27  C   UNL     1      -2.192  11.691  23.166  0.00  0.00     0.252 C 
HETATM   28  C   UNL     1      -1.191  12.853  23.289  0.00  0.00     0.150 C 
ENDBRANCH  18  21
ENDBRANCH  12  15
ENDBRANCH   1  11
BRANCH   3  29
HETATM   29  O   UNL     1       7.374  14.103  27.273  0.00  0.00    -0.360 OA
HETATM   30  H   UNL     1       7.784  13.267  27.586  0.00  0.00     0.217 HD
ENDBRANCH   3  29
BRANCH  10  31
HETATM   31  C   UNL     1      10.732  15.650  21.547  0.00  0.00     0.100 C 
BRANCH  31  32
HETATM   32  C   UNL     1      10.043  14.541  20.753  0.00  0.00    -0.052 A 
HETATM   33  C   UNL     1       8.905  14.755  19.961  0.00  0.00     0.007 A 
HETATM   34  C   UNL     1       8.306  13.708  19.255  0.00  0.00     0.001 A 
HETATM   35  C   UNL     1       8.771  12.405  19.394  0.00  0.00     0.007 A 
HETATM   36  C   UNL     1       9.816  12.126  20.277  0.00  0.00    -0.061 A 
HETATM   37  C   UNL     1      10.473  13.200  20.916  0.00  0.00     0.014 A 
HETATM   38  C   UNL     1      10.193  10.691  20.525  0.00  0.00     0.048 C 
ENDBRANCH  31  32
ENDBRANCH  10  31
TORSDOF 6
ENDMDL
MODEL 2
REMARK VINA RESULT:    -9.110      5.154      6.730
REMARK INTER + INTRA:         -13.194
REMARK INTER:                 -11.844
REMARK INTRA:                  -1.351
REMARK UNBOUND:                -1.155
REMARK  6 active torsions:
REMARK  status: ('A' for Active; 'I' for Inactive)
REMARK    1  A    between atoms: N_8  and  C_9 
REMARK    2  A    between atoms: C_14  and  N_15 
REMARK       I    between atoms: N_15  and  C_17 
REMARK    3  A    between atoms: C_17  and  C_19 
REMARK    4  A    between atoms: C_21  and  O_22 
REMARK    5  A    between atoms: C_29  and  C_30 
REMARK    6  A    between atoms: C_30  and  C_31 
ROOT
HETATM    1  C   UNL     1       8.315  10.681  22.802  0.00  0.00     0.066 C 
HETATM    2  C   UNL     1       8.158  11.505  23.941  0.00  0.00     0.035 C 
HETATM    3  C   UNL     1       9.462  10.880  22.001  0.00  0.00     0.083 C 
HETATM    4  C   UNL     1      10.374  11.912  22.245  0.00  0.00     0.069 C 
HETATM    5  C   UNL     1      10.057  12.802  23.273  0.00  0.00     0.065 A 
HETATM    6  C   UNL     1       8.953  12.655  24.104  0.00  0.00     0.020 A 
HETATM    7  N   UNL     1      10.688  13.933  23.720  0.00  0.00    -0.277 N 
HETATM    8  H   UNL     1      11.567  14.319  23.395  0.00  0.00     0.189 HD
HETATM    9  N   UNL     1      10.017  14.593  24.679  0.00  0.00    -0.178 NA
HETATM   10  C   UNL     1       8.932  13.835  24.917  0.00  0.00     0.071 A 
ENDROOT
BRANCH   1  11
HETATM   11  C   UNL     1       7.307   9.631  22.395  0.00  0.00     0.260 C 
HETATM   12  N   UNL     1       6.050   9.985  21.812  0.00  0.00    -0.318 N 
HETATM   13  C   UNL     1       5.731  11.384  21.500  0.00  0.00     0.159 C 
HETATM   14  O   UNL     1       7.695   8.468  22.555  0.00  0.00    -0.267 OA
BRANCH  12  15
HETATM   15  C   UNL     1       5.059   9.009  21.367  0.00  0.00     0.037 A 
HETATM   16  C   UNL     1       4.970   8.639  20.017  0.00  0.00     0.032 A 
HETATM   17  C   UNL     1       4.190   7.552  19.569  0.00  0.00     0.031 A 
HETATM   18  C   UNL     1       3.409   6.804  20.441  0.00  0.00     0.030 A 
HETATM   19  C   UNL     1       3.382   7.269  21.762  0.00  0.00     0.031 A 
HETATM   20  C   UNL     1       4.191   8.336  22.225  0.00  0.00     0.032 A 
BRANCH  18  21
HETATM   21  N   UNL     1       2.672   5.705  20.035  0.00  0.00    -0.378 N 
HETATM   22  C   UNL     1       3.225   4.341  19.970  0.00  0.00     0.150 C 
HETATM   23  C   UNL     1       2.758   3.673  18.658  0.00  0.00     0.252 C 
HETATM   24  N   UNL     1       1.253   3.755  18.508  0.00  0.00    -0.072 N 
HETATM   25  H   UNL     1       0.810   3.153  19.214  0.00  0.00     0.277 HD
HETATM   26  H   UNL     1       0.982   3.389  17.588  0.00  0.00     0.277 HD
HETATM   27  C   UNL     1       0.725   5.167  18.658  0.00  0.00     0.252 C 
HETATM   28  C   UNL     1       1.200   5.767  19.992  0.00  0.00     0.150 C 
ENDBRANCH  18  21
ENDBRANCH  12  15
ENDBRANCH   1  11
BRANCH   3  29
HETATM   29  O   UNL     1       9.771  10.082  20.923  0.00  0.00    -0.360 OA
HETATM   30  H   UNL     1      10.726   9.858  20.974  0.00  0.00     0.217 HD
ENDBRANCH   3  29
BRANCH  10  31
HETATM   31  C   UNL     1       7.924  14.312  25.938  0.00  0.00     0.100 C 
BRANCH  31  32
HETATM   32  C   UNL     1       6.649  14.844  25.286  0.00  0.00    -0.052 A 
HETATM   33  C   UNL     1       6.571  15.211  23.935  0.00  0.00     0.007 A 
HETATM   34  C   UNL     1       5.382  15.697  23.384  0.00  0.00     0.001 A 
HETATM   35  C   UNL     1       4.269  15.917  24.186  0.00  0.00     0.007 A 
HETATM   36  C   UNL     1       4.344  15.692  25.563  0.00  0.00    -0.061 A 
HETATM   37  C   UNL     1       5.517  15.117  26.095  0.00  0.00     0.014 A 
HETATM   38  C   UNL     1       3.177  16.086  26.427  0.00  0.00     0.048 C 
ENDBRANCH  31  32
ENDBRANCH  10  31
TORSDOF 6
ENDMDL
MODEL 3
REMARK VINA RESULT:    -9.031      2.823      4.587
REMARK INTER + INTRA:         -13.091
REMARK INTER:                 -11.935
REMARK INTRA:                  -1.155
REMARK UNBOUND:                -1.155
REMARK  6 active torsions:
REMARK  status: ('A' for Active; 'I' for Inactive)
REMARK    1  A    between atoms: N_8  and  C_9 
REMARK    2  A    between atoms: C_14  and  N_15 
REMARK       I    between atoms: N_15  and  C_17 
REMARK    3  A    between atoms: C_17  and  C_19 
REMARK    4  A    between atoms: C_21  and  O_22 
REMARK    5  A    between atoms: C_29  and  C_30 
REMARK    6  A    between atoms: C_30  and  C_31 
ROOT
HETATM    1  C   UNL     1       9.572  14.858  21.416  0.00  0.00     0.066 C 
HETATM    2  C   UNL     1      10.004  13.551  21.094  0.00  0.00     0.035 C 
HETATM    3  C   UNL     1      10.470  15.923  21.182  0.00  0.00     0.083 C 
HETATM    4  C   UNL     1      11.781  15.712  20.743  0.00  0.00     0.069 C 
HETATM    5  C   UNL     1      12.199  14.385  20.625  0.00  0.00     0.065 A 
HETATM    6  C   UNL     1      11.362  13.295  20.828  0.00  0.00     0.020 A 
HETATM    7  N   UNL     1      13.411  13.842  20.289  0.00  0.00    -0.277 N 
HETATM    8  H   UNL     1      14.252  14.335  20.008  0.00  0.00     0.189 HD
HETATM    9  N   UNL     1      13.459  12.503  20.384  0.00  0.00    -0.178 NA
HETATM   10  C   UNL     1      12.212  12.143  20.736  0.00  0.00     0.071 A 
ENDROOT
BRANCH   1  11
HETATM   11  C   UNL     1       8.218  15.157  22.019  0.00  0.00     0.260 C 
HETATM   12  N   UNL     1       7.787  14.541  23.236  0.00  0.00    -0.318 N 
HETATM   13  C   UNL     1       8.686  13.664  23.996  0.00  0.00     0.159 C 
HETATM   14  O   UNL     1       7.568  16.010  21.405  0.00  0.00    -0.267 OA
BRANCH  12  15
HETATM   15  C   UNL     1       6.507  14.825  23.879  0.00  0.00     0.037 A 
HETATM   16  C   UNL     1       5.336  14.964  23.120  0.00  0.00     0.032 A 
HETATM   17  C   UNL     1       4.049  15.019  23.697  0.00  0.00     0.031 A 
HETATM   18  C   UNL     1       3.864  14.992  25.073  0.00  0.00     0.030 A 
HETATM   19  C   UNL     1       5.041  15.004  25.832  0.00  0.00     0.031 A 
HETATM   20  C   UNL     1       6.334  14.913  25.259  0.00  0.00     0.032 A 
BRANCH  18  21
HETATM   21  N   UNL     1       2.611  14.996  25.663  0.00  0.00    -0.378 N 
HETATM   22  C   UNL     1       2.312  15.709  26.917  0.00  0.00     0.150 C 
HETATM   23  C   UNL     1       1.446  14.799  27.816  0.00  0.00     0.252 C 
HETATM   24  N   UNL     1       0.231  14.290  27.070  0.00  0.00    -0.072 N 
HETATM   25  H   UNL     1      -0.411  15.074  26.894  0.00  0.00     0.277 HD
HETATM   26  H   UNL     1      -0.273  13.617  27.659  0.00  0.00     0.277 HD
HETATM   27  C   UNL     1       0.584  13.632  25.752  0.00  0.00     0.252 C 
HETATM   28  C   UNL     1       1.421  14.595  24.892  0.00  0.00     0.150 C 
ENDBRANCH  18  21
ENDBRANCH  12  15
ENDBRANCH   1  11
BRANCH   3  29
HETATM   29  O   UNL     1      10.132  17.245  21.368  0.00  0.00    -0.360 OA
HETATM   30  H   UNL     1       9.157  17.297  21.471  0.00  0.00     0.217 HD
ENDBRANCH   3  29
BRANCH  10  31
HETATM   31  C   UNL     1      11.917  10.679  20.966  0.00  0.00     0.100 C 
BRANCH  31  32
HETATM   32  C   UNL     1      10.979  10.458  22.152  0.00  0.00    -0.052 A 
HETATM   33  C   UNL     1      11.393  10.551  23.488  0.00  0.00     0.007 A 
HETATM   34  C   UNL     1      10.499  10.336  24.540  0.00  0.00     0.001 A 
HETATM   35  C   UNL     1       9.193   9.931  24.287  0.00  0.00     0.007 A 
HETATM   36  C   UNL     1       8.776   9.695  22.975  0.00  0.00    -0.061 A 
HETATM   37  C   UNL     1       9.657  10.001  21.916  0.00  0.00     0.014 A 
HETATM   38  C   UNL     1       7.411   9.108  22.742  0.00  0.00     0.048 C 
ENDBRANCH  31  32
ENDBRANCH  10  31
TORSDOF 6
ENDMDL
MODEL 4
REMARK VINA RESULT:    -8.955      5.598      7.220
REMARK INTER + INTRA:         -12.989
REMARK INTER:                 -12.035
REMARK INTRA:                  -0.955
REMARK UNBOUND:                -1.155
REMARK  6 active torsions:
REMARK  status: ('A' for Active; 'I' for Inactive)
REMARK    1  A    between atoms: N_8  and  C_9 
REMARK    2  A    between atoms: C_14  and  N_15 
REMARK       I    between atoms: N_15  and  C_17 
REMARK    3  A    between atoms: C_17  and  C_19 
REMARK    4  A    between atoms: C_21  and  O_22 
REMARK    5  A    between atoms: C_29  and  C_30 
REMARK    6  A    between atoms: C_30  and  C_31 
ROOT
HETATM    1  C   UNL     1       6.875  11.038  21.667  0.00  0.00     0.066 C 
HETATM    2  C   UNL     1       6.371  12.273  22.138  0.00  0.00     0.035 C 
HETATM    3  C   UNL     1       8.233  10.743  21.920  0.00  0.00     0.083 C 
HETATM    4  C   UNL     1       9.097  11.663  22.524  0.00  0.00     0.069 C 
HETATM    5  C   UNL     1       8.579  12.931  22.793  0.00  0.00     0.065 A 
HETATM    6  C   UNL     1       7.251  13.279  22.580  0.00  0.00     0.020 A 
HETATM    7  N   UNL     1       9.162  14.058  23.309  0.00  0.00    -0.277 N 
HETATM    8  H   UNL     1      10.112  14.162  23.646  0.00  0.00     0.189 HD
HETATM    9  N   UNL     1       8.357  15.134  23.325  0.00  0.00    -0.178 NA
HETATM   10  C   UNL     1       7.179  14.683  22.859  0.00  0.00     0.071 A 
ENDROOT
BRANCH   1  11
HETATM   11  C   UNL     1       6.040  10.047  20.890  0.00  0.00     0.260 C 
HETATM   12  N   UNL     1       5.464   8.897  21.517  0.00  0.00    -0.318 N 
HETATM   13  C   UNL     1       5.586   8.688  22.965  0.00  0.00     0.159 C 
HETATM   14  O   UNL     1       5.858  10.355  19.707  0.00  0.00    -0.267 OA
BRANCH  12  15
HETATM   15  C   UNL     1       4.618   7.931  20.820  0.00  0.00     0.037 A 
HETATM   16  C   UNL     1       3.576   7.273  21.490  0.00  0.00     0.032 A 
HETATM   17  C   UNL     1       2.600   6.504  20.822  0.00  0.00     0.031 A 
HETATM   18  C   UNL     1       2.640   6.304  19.448  0.00  0.00     0.030 A 
HETATM   19  C   UNL     1       3.764   6.837  18.803  0.00  0.00     0.031 A 
HETATM   20  C   UNL     1       4.727   7.640  19.462  0.00  0.00     0.032 A 
BRANCH  18  21
HETATM   21  N   UNL     1       1.670   5.595  18.763  0.00  0.00    -0.378 N 
HETATM   22  C   UNL     1       0.549   4.909  19.429  0.00  0.00     0.150 C 
HETATM   23  C   UNL     1       0.361   3.516  18.787  0.00  0.00     0.252 C 
HETATM   24  N   UNL     1       0.236   3.620  17.282  0.00  0.00    -0.072 N 
HETATM   25  H   UNL     1      -0.655   4.076  17.046  0.00  0.00     0.277 HD
HETATM   26  H   UNL     1       0.207   2.678  16.877  0.00  0.00     0.277 HD
HETATM   27  C   UNL     1       1.373   4.398  16.651  0.00  0.00     0.252 C 
HETATM   28  C   UNL     1       1.492   5.782  17.311  0.00  0.00     0.150 C 
ENDBRANCH  18  21
ENDBRANCH  12  15
ENDBRANCH   1  11
BRANCH   3  29
HETATM   29  O   UNL     1       8.812   9.538  21.593  0.00  0.00    -0.360 OA
HETATM   30  H   UNL     1       9.761   9.700  21.400  0.00  0.00     0.217 HD
ENDBRANCH   3  29
BRANCH  10  31
HETATM   31  C   UNL     1       6.036  15.661  22.712  0.00  0.00     0.100 C 
BRANCH  31  32
HETATM   32  C   UNL     1       4.978  15.480  23.800  0.00  0.00    -0.052 A 
HETATM   33  C   UNL     1       5.259  15.570  25.171  0.00  0.00     0.007 A 
HETATM   34  C   UNL     1       4.258  15.393  26.129  0.00  0.00     0.001 A 
HETATM   35  C   UNL     1       2.971  15.031  25.748  0.00  0.00     0.007 A 
HETATM   36  C   UNL     1       2.679  14.798  24.402  0.00  0.00    -0.061 A 
HETATM   37  C   UNL     1       3.671  15.067  23.435  0.00  0.00     0.014 A 
HETATM   38  C   UNL     1       1.324  14.256  24.037  0.00  0.00     0.048 C 
ENDBRANCH  31  32
ENDBRANCH  10  31
TORSDOF 6
ENDMDL
MODEL 5
REMARK VINA RESULT:    -8.948      1.435      1.926
REMARK INTER + INTRA:         -12.980
REMARK INTER:                 -11.463
REMARK INTRA:                  -1.517
REMARK UNBOUND:                -1.155
REMARK  6 active torsions:
REMARK  status: ('A' for Active; 'I' for Inactive)
REMARK    1  A    between atoms: N_8  and  C_9 
REMARK    2  A    between atoms: C_14  and  N_15 
REMARK       I    between atoms: N_15  and  C_17 
REMARK    3  A    between atoms: C_17  and  C_19 
REMARK    4  A    between atoms: C_21  and  O_22 
REMARK    5  A    between atoms: C_29  and  C_30 
REMARK    6  A    between atoms: C_30  and  C_31 
ROOT
HETATM    1  C   UNL     1       7.488  13.656  25.219  0.00  0.00     0.066 C 
HETATM    2  C   UNL     1       8.346  13.137  24.221  0.00  0.00     0.035 C 
HETATM    3  C   UNL     1       8.073  14.418  26.256  0.00  0.00     0.083 C 
HETATM    4  C   UNL     1       9.456  14.584  26.372  0.00  0.00     0.069 C 
HETATM    5  C   UNL     1      10.252  13.889  25.460  0.00  0.00     0.065 A 
HETATM    6  C   UNL     1       9.740  13.135  24.411  0.00  0.00     0.020 A 
HETATM    7  N   UNL     1      11.613  13.784  25.339  0.00  0.00    -0.277 N 
HETATM    8  H   UNL     1      12.320  14.254  25.893  0.00  0.00     0.189 HD
HETATM    9  N   UNL     1      12.015  12.927  24.385  0.00  0.00    -0.178 NA
HETATM   10  C   UNL     1      10.876  12.497  23.813  0.00  0.00     0.071 A 
ENDROOT
BRANCH   1  11
HETATM   11  C   UNL     1       5.997  13.410  25.238  0.00  0.00     0.260 C 
HETATM   12  N   UNL     1       5.080  14.311  24.609  0.00  0.00    -0.318 N 
HETATM   13  C   UNL     1       5.564  15.463  23.839  0.00  0.00     0.159 C 
HETATM   14  O   UNL     1       5.665  12.351  25.781  0.00  0.00    -0.267 OA
BRANCH  12  15
HETATM   15  C   UNL     1       3.636  14.099  24.566  0.00  0.00     0.037 A 
HETATM   16  C   UNL     1       3.029  13.510  23.447  0.00  0.00     0.032 A 
HETATM   17  C   UNL     1       1.684  13.085  23.439  0.00  0.00     0.031 A 
HETATM   18  C   UNL     1       0.851  13.272  24.534  0.00  0.00     0.030 A 
HETATM   19  C   UNL     1       1.416  13.994  25.594  0.00  0.00     0.031 A 
HETATM   20  C   UNL     1       2.775  14.392  25.622  0.00  0.00     0.032 A 
BRANCH  18  21
HETATM   21  N   UNL     1      -0.458  12.822  24.570  0.00  0.00    -0.378 N 
HETATM   22  C   UNL     1      -1.153  12.458  25.817  0.00  0.00     0.150 C 
HETATM   23  C   UNL     1      -1.940  11.148  25.588  0.00  0.00     0.252 C 
HETATM   24  N   UNL     1      -2.834  11.254  24.371  0.00  0.00    -0.072 N 
HETATM   25  H   UNL     1      -3.595  11.918  24.565  0.00  0.00     0.277 HD
HETATM   26  H   UNL     1      -3.271  10.342  24.189  0.00  0.00     0.277 HD
HETATM   27  C   UNL     1      -2.088  11.703  23.131  0.00  0.00     0.252 C 
HETATM   28  C   UNL     1      -1.349  13.023  23.413  0.00  0.00     0.150 C 
ENDBRANCH  18  21
ENDBRANCH  12  15
ENDBRANCH   1  11
BRANCH   3  29
HETATM   29  O   UNL     1       7.333  15.050  27.230  0.00  0.00    -0.360 OA
HETATM   30  H   UNL     1       7.229  14.429  27.983  0.00  0.00     0.217 HD
ENDBRANCH   3  29
BRANCH  10  31
HETATM   31  C   UNL     1      10.964  11.477  22.702  0.00  0.00     0.100 C 
BRANCH  31  32
HETATM   32  C   UNL     1      10.109  11.862  21.495  0.00  0.00    -0.052 A 
HETATM   33  C   UNL     1      10.334  13.014  20.729  0.00  0.00     0.007 A 
HETATM   34  C   UNL     1       9.522  13.327  19.635  0.00  0.00     0.001 A 
HETATM   35  C   UNL     1       8.410  12.549  19.335  0.00  0.00     0.007 A 
HETATM   36  C   UNL     1       8.070  11.469  20.154  0.00  0.00    -0.061 A 
HETATM   37  C   UNL     1       8.945  11.107  21.200  0.00  0.00     0.014 A 
HETATM   38  C   UNL     1       6.778  10.743  19.898  0.00  0.00     0.048 C 
ENDBRANCH  31  32
ENDBRANCH  10  31
TORSDOF 6
ENDMDL
MODEL 6
REMARK VINA RESULT:    -8.916      1.565      2.398
REMARK INTER + INTRA:         -12.938
REMARK INTER:                 -11.650
REMARK INTRA:                  -1.288
REMARK UNBOUND:                -1.155
REMARK  6 active torsions:
REMARK  status: ('A' for Active; 'I' for Inactive)
REMARK    1  A    between atoms: N_8  and  C_9 
REMARK    2  A    between atoms: C_14  and  N_15 
REMARK       I    between atoms: N_15  and  C_17 
REMARK    3  A    between atoms: C_17  and  C_19 
REMARK    4  A    between atoms: C_21  and  O_22 
REMARK    5  A    between atoms: C_29  and  C_30 
REMARK    6  A    between atoms: C_30  and  C_31 
ROOT
HETATM    1  C   UNL     1       9.906  14.750  25.120  0.00  0.00     0.066 C 
HETATM    2  C   UNL     1      10.458  15.106  23.867  0.00  0.00     0.035 C 
HETATM    3  C   UNL     1      10.795  14.321  26.131  0.00  0.00     0.083 C 
HETATM    4  C   UNL     1      12.163  14.150  25.899  0.00  0.00     0.069 C 
HETATM    5  C   UNL     1      12.608  14.339  24.590  0.00  0.00     0.065 A 
HETATM    6  C   UNL     1      11.789  14.772  23.554  0.00  0.00     0.020 A 
HETATM    7  N   UNL     1      13.846  14.192  24.022  0.00  0.00    -0.277 N 
HETATM    8  H   UNL     1      14.714  13.950  24.488  0.00  0.00     0.189 HD
HETATM    9  N   UNL     1      13.865  14.368  22.690  0.00  0.00    -0.178 NA
HETATM   10  C   UNL     1      12.601  14.706  22.375  0.00  0.00     0.071 A 
ENDROOT
BRANCH   1  11
HETATM   11  C   UNL     1       8.422  14.781  25.409  0.00  0.00     0.260 C 
HETATM   12  N   UNL     1       7.465  14.286  24.469  0.00  0.00    -0.318 N 
HETATM   13  C   UNL     1       7.896  13.640  23.223  0.00  0.00     0.159 C 
HETATM   14  O   UNL     1       8.135  15.207  26.533  0.00  0.00    -0.267 OA
BRANCH  12  15
HETATM   15  C   UNL     1       6.025  14.257  24.716  0.00  0.00     0.037 A 
HETATM   16  C   UNL     1       5.210  15.336  24.341  0.00  0.00     0.032 A 
HETATM   17  C   UNL     1       3.801  15.273  24.354  0.00  0.00     0.031 A 
HETATM   18  C   UNL     1       3.123  14.143  24.796  0.00  0.00     0.030 A 
HETATM   19  C   UNL     1       3.937  13.125  25.310  0.00  0.00     0.031 A 
HETATM   20  C   UNL     1       5.353  13.168  25.266  0.00  0.00     0.032 A 
BRANCH  18  21
HETATM   21  N   UNL     1       1.743  14.038  24.774  0.00  0.00    -0.378 N 
HETATM   22  C   UNL     1       0.916  14.021  25.993  0.00  0.00     0.150 C 
HETATM   23  C   UNL     1      -0.166  12.927  25.849  0.00  0.00     0.252 C 
HETATM   24  N   UNL     1      -0.940  13.090  24.559  0.00  0.00    -0.072 N 
HETATM   25  H   UNL     1      -1.516  13.941  24.613  0.00  0.00     0.277 HD
HETATM   26  H   UNL     1      -1.584  12.299  24.446  0.00  0.00     0.277 HD
HETATM   27  C   UNL     1      -0.041  13.177  23.341  0.00  0.00     0.252 C 
HETATM   28  C   UNL     1       0.993  14.299  23.532  0.00  0.00     0.150 C 
ENDBRANCH  18  21
ENDBRANCH  12  15
ENDBRANCH   1  11
BRANCH   3  29
HETATM   29  O   UNL     1      10.388  14.037  27.415  0.00  0.00    -0.360 OA
HETATM   30  H   UNL     1      11.093  14.337  28.030  0.00  0.00     0.217 HD
ENDBRANCH   3  29
BRANCH  10  31
HETATM   31  C   UNL     1      12.256  14.948  20.924  0.00  0.00     0.100 C 
BRANCH  31  32
HETATM   32  C   UNL     1      10.998  14.194  20.496  0.00  0.00    -0.052 A 
HETATM   33  C   UNL     1       9.810  14.833  20.115  0.00  0.00     0.007 A 
HETATM   34  C   UNL     1       8.682  14.100  19.735  0.00  0.00     0.001 A 
HETATM   35  C   UNL     1       8.681  12.712  19.816  0.00  0.00     0.007 A 
HETATM   36  C   UNL     1       9.797  12.040  20.320  0.00  0.00    -0.061 A 
HETATM   37  C   UNL     1      10.961  12.781  20.614  0.00  0.00     0.014 A 
HETATM   38  C   UNL     1       9.710  10.555  20.543  0.00  0.00     0.048 C 
ENDBRANCH  31  32
ENDBRANCH  10  31
TORSDOF 6
ENDMDL
MODEL 7
REMARK VINA RESULT:    -8.853      2.118      3.044
REMARK INTER + INTRA:         -12.856
REMARK INTER:                 -11.510
REMARK INTRA:                  -1.346
REMARK UNBOUND:                -1.155
REMARK  6 active torsions:
REMARK  status: ('A' for Active; 'I' for Inactive)
REMARK    1  A    between atoms: N_8  and  C_9 
REMARK    2  A    between atoms: C_14  and  N_15 
REMARK       I    between atoms: N_15  and  C_17 
REMARK    3  A    between atoms: C_17  and  C_19 
REMARK    4  A    between atoms: C_21  and  O_22 
REMARK    5  A    between atoms: C_29  and  C_30 
REMARK    6  A    between atoms: C_30  and  C_31 
ROOT
HETATM    1  C   UNL     1       9.014  13.604  25.579  0.00  0.00     0.066 C 
HETATM    2  C   UNL     1       9.883  12.800  24.806  0.00  0.00     0.035 C 
HETATM    3  C   UNL     1       9.592  14.443  26.557  0.00  0.00     0.083 C 
HETATM    4  C   UNL     1      10.962  14.428  26.840  0.00  0.00     0.069 C 
HETATM    5  C   UNL     1      11.732  13.477  26.169  0.00  0.00     0.065 A 
HETATM    6  C   UNL     1      11.227  12.632  25.188  0.00  0.00     0.020 A 
HETATM    7  N   UNL     1      13.062  13.158  26.258  0.00  0.00    -0.277 N 
HETATM    8  H   UNL     1      13.768  13.613  26.827  0.00  0.00     0.189 HD
HETATM    9  N   UNL     1      13.425  12.099  25.516  0.00  0.00    -0.178 NA
HETATM   10  C   UNL     1      12.304  11.743  24.863  0.00  0.00     0.071 A 
ENDROOT
BRANCH   1  11
HETATM   11  C   UNL     1       7.510  13.580  25.426  0.00  0.00     0.260 C 
HETATM   12  N   UNL     1       6.853  14.289  24.371  0.00  0.00    -0.318 N 
HETATM   13  C   UNL     1       7.626  14.991  23.339  0.00  0.00     0.159 C 
HETATM   14  O   UNL     1       6.929  12.857  26.242  0.00  0.00    -0.267 OA
BRANCH  12  15
HETATM   15  C   UNL     1       5.409  14.268  24.157  0.00  0.00     0.037 A 
HETATM   16  C   UNL     1       4.808  13.244  23.410  0.00  0.00     0.032 A 
HETATM   17  C   UNL     1       3.411  13.053  23.354  0.00  0.00     0.031 A 
HETATM   18  C   UNL     1       2.530  13.909  24.002  0.00  0.00     0.030 A 
HETATM   19  C   UNL     1       3.124  15.016  24.622  0.00  0.00     0.031 A 
HETATM   20  C   UNL     1       4.527  15.193  24.711  0.00  0.00     0.032 A 
BRANCH  18  21
HETATM   21  N   UNL     1       1.159  13.716  24.003  0.00  0.00    -0.378 N 
HETATM   22  C   UNL     1       0.332  13.812  25.218  0.00  0.00     0.150 C 
HETATM   23  C   UNL     1      -0.680  12.644  25.229  0.00  0.00     0.252 C 
HETATM   24  N   UNL     1      -1.460  12.585  23.933  0.00  0.00    -0.072 N 
HETATM   25  H   UNL     1      -2.087  13.398  23.878  0.00  0.00     0.277 HD
HETATM   26  H   UNL     1      -2.054  11.748  23.931  0.00  0.00     0.277 HD
HETATM   27  C   UNL     1      -0.566  12.564  22.710  0.00  0.00     0.252 C 
HETATM   28  C   UNL     1       0.397  13.763  22.743  0.00  0.00     0.150 C 
ENDBRANCH  18  21
ENDBRANCH  12  15
ENDBRANCH   1  11
BRANCH   3  29
HETATM   29  O   UNL     1       8.860  15.336  27.307  0.00  0.00    -0.360 OA
HETATM   30  H   UNL     1       8.725  14.945  28.198  0.00  0.00     0.217 HD
ENDBRANCH   3  29
BRANCH  10  31
HETATM   31  C   UNL     1      12.350  10.541  23.947  0.00  0.00     0.100 C 
BRANCH  31  32
HETATM   32  C   UNL     1      12.483  10.940  22.478  0.00  0.00    -0.052 A 
HETATM   33  C   UNL     1      13.717  11.131  21.841  0.00  0.00     0.007 A 
HETATM   34  C   UNL     1      13.788  11.499  20.494  0.00  0.00     0.001 A 
HETATM   35  C   UNL     1      12.631  11.776  19.775  0.00  0.00     0.007 A 
HETATM   36  C   UNL     1      11.387  11.730  20.407  0.00  0.00    -0.061 A 
HETATM   37  C   UNL     1      11.318  11.270  21.740  0.00  0.00     0.014 A 
HETATM   38  C   UNL     1      10.170  12.185  19.649  0.00  0.00     0.048 C 
ENDBRANCH  31  32
ENDBRANCH  10  31
TORSDOF 6
ENDMDL
MODEL 8
REMARK VINA RESULT:    -8.711      2.182      4.185
REMARK INTER + INTRA:         -12.668
REMARK INTER:                 -12.128
REMARK INTRA:                  -0.540
REMARK UNBOUND:                -1.155
REMARK  6 active torsions:
REMARK  status: ('A' for Active; 'I' for Inactive)
REMARK    1  A    between atoms: N_8  and  C_9 
REMARK    2  A    between atoms: C_14  and  N_15 
REMARK       I    between atoms: N_15  and  C_17 
REMARK    3  A    between atoms: C_17  and  C_19 
REMARK    4  A    between atoms: C_21  and  O_22 
REMARK    5  A    between atoms: C_29  and  C_30 
REMARK    6  A    between atoms: C_30  and  C_31 
ROOT
HETATM    1  C   UNL     1       7.484  12.294  21.941  0.00  0.00     0.066 C 
HETATM    2  C   UNL     1       8.434  13.170  22.515  0.00  0.00     0.035 C 
HETATM    3  C   UNL     1       7.844  11.622  20.752  0.00  0.00     0.083 C 
HETATM    4  C   UNL     1       9.051  11.870  20.090  0.00  0.00     0.069 C 
HETATM    5  C   UNL     1       9.858  12.882  20.611  0.00  0.00     0.065 A 
HETATM    6  C   UNL     1       9.567  13.571  21.782  0.00  0.00     0.020 A 
HETATM    7  N   UNL     1      11.046  13.409  20.177  0.00  0.00    -0.277 N 
HETATM    8  H   UNL     1      11.601  13.109  19.383  0.00  0.00     0.189 HD
HETATM    9  N   UNL     1      11.476  14.460  20.896  0.00  0.00    -0.178 NA
HETATM   10  C   UNL     1      10.568  14.593  21.879  0.00  0.00     0.071 A 
ENDROOT
BRANCH   1  11
HETATM   11  C   UNL     1       6.106  12.073  22.523  0.00  0.00     0.260 C 
HETATM   12  N   UNL     1       5.301  13.164  22.979  0.00  0.00    -0.318 N 
HETATM   13  C   UNL     1       5.748  14.552  22.811  0.00  0.00     0.159 C 
HETATM   14  O   UNL     1       5.733  10.895  22.506  0.00  0.00    -0.267 OA
BRANCH  12  15
HETATM   15  C   UNL     1       3.950  13.007  23.512  0.00  0.00     0.037 A 
HETATM   16  C   UNL     1       3.077  14.102  23.593  0.00  0.00     0.032 A 
HETATM   17  C   UNL     1       1.705  13.969  23.891  0.00  0.00     0.031 A 
HETATM   18  C   UNL     1       1.135  12.735  24.178  0.00  0.00     0.030 A 
HETATM   19  C   UNL     1       2.037  11.665  24.244  0.00  0.00     0.031 A 
HETATM   20  C   UNL     1       3.409  11.786  23.911  0.00  0.00     0.032 A 
BRANCH  18  21
HETATM   21  N   UNL     1      -0.217  12.571  24.426  0.00  0.00    -0.378 N 
HETATM   22  C   UNL     1      -0.781  12.455  25.782  0.00  0.00     0.150 C 
HETATM   23  C   UNL     1      -1.833  11.324  25.792  0.00  0.00     0.252 C 
HETATM   24  N   UNL     1      -2.856  11.519  24.694  0.00  0.00    -0.072 N 
HETATM   25  H   UNL     1      -3.436  12.339  24.913  0.00  0.00     0.277 HD
HETATM   26  H   UNL     1      -3.484  10.707  24.665  0.00  0.00     0.277 HD
HETATM   27  C   UNL     1      -2.225  11.707  23.330  0.00  0.00     0.252 C 
HETATM   28  C   UNL     1      -1.210  12.863  23.377  0.00  0.00     0.150 C 
ENDBRANCH  18  21
ENDBRANCH  12  15
ENDBRANCH   1  11
BRANCH   3  29
HETATM   29  O   UNL     1       7.041  10.678  20.151  0.00  0.00    -0.360 OA
HETATM   30  H   UNL     1       7.566  10.237  19.449  0.00  0.00     0.217 HD
ENDBRANCH   3  29
BRANCH  10  31
HETATM   31  C   UNL     1      10.732  15.723  22.869  0.00  0.00     0.100 C 
BRANCH  31  32
HETATM   32  C   UNL     1      10.735  15.229  24.315  0.00  0.00    -0.052 A 
HETATM   33  C   UNL     1       9.693  15.484  25.218  0.00  0.00     0.007 A 
HETATM   34  C   UNL     1       9.743  15.013  26.533  0.00  0.00     0.001 A 
HETATM   35  C   UNL     1      10.874  14.358  27.007  0.00  0.00     0.007 A 
HETATM   36  C   UNL     1      11.989  14.201  26.181  0.00  0.00    -0.061 A 
HETATM   37  C   UNL     1      11.896  14.598  24.830  0.00  0.00     0.014 A 
HETATM   38  C   UNL     1      13.252  13.631  26.767  0.00  0.00     0.048 C 
ENDBRANCH  31  32
ENDBRANCH  10  31
TORSDOF 6
ENDMDL
MODEL 9
REMARK VINA RESULT:    -8.695      2.333      4.619
REMARK INTER + INTRA:         -12.646
REMARK INTER:                 -11.340
REMARK INTRA:                  -1.306
REMARK UNBOUND:                -1.155
REMARK  6 active torsions:
REMARK  status: ('A' for Active; 'I' for Inactive)
REMARK    1  A    between atoms: N_8  and  C_9 
REMARK    2  A    between atoms: C_14  and  N_15 
REMARK       I    between atoms: N_15  and  C_17 
REMARK    3  A    between atoms: C_17  and  C_19 
REMARK    4  A    between atoms: C_21  and  O_22 
REMARK    5  A    between atoms: C_29  and  C_30 
REMARK    6  A    between atoms: C_30  and  C_31 
ROOT
HETATM    1  C   UNL     1       8.631  13.542  21.975  0.00  0.00     0.066 C 
HETATM    2  C   UNL     1       9.701  12.868  22.607  0.00  0.00     0.035 C 
HETATM    3  C   UNL     1       8.950  14.486  20.974  0.00  0.00     0.083 C 
HETATM    4  C   UNL     1      10.269  14.833  20.667  0.00  0.00     0.069 C 
HETATM    5  C   UNL     1      11.270  14.267  21.459  0.00  0.00     0.065 A 
HETATM    6  C   UNL     1      11.024  13.324  22.450  0.00  0.00     0.020 A 
HETATM    7  N   UNL     1      12.628  14.441  21.467  0.00  0.00    -0.277 N 
HETATM    8  H   UNL     1      13.181  15.009  20.835  0.00  0.00     0.189 HD
HETATM    9  N   UNL     1      13.260  13.791  22.459  0.00  0.00    -0.178 NA
HETATM   10  C   UNL     1      12.287  13.112  23.093  0.00  0.00     0.071 A 
ENDROOT
BRANCH   1  11
HETATM   11  C   UNL     1       7.181  13.320  22.342  0.00  0.00     0.260 C 
HETATM   12  N   UNL     1       6.591  13.952  23.482  0.00  0.00    -0.318 N 
HETATM   13  C   UNL     1       7.351  14.917  24.287  0.00  0.00     0.159 C 
HETATM   14  O   UNL     1       6.560  12.610  21.545  0.00  0.00    -0.267 OA
BRANCH  12  15
HETATM   15  C   UNL     1       5.188  13.801  23.857  0.00  0.00     0.037 A 
HETATM   16  C   UNL     1       4.282  14.859  23.690  0.00  0.00     0.032 A 
HETATM   17  C   UNL     1       2.886  14.702  23.827  0.00  0.00     0.031 A 
HETATM   18  C   UNL     1       2.319  13.488  24.192  0.00  0.00     0.030 A 
HETATM   19  C   UNL     1       3.234  12.474  24.504  0.00  0.00     0.031 A 
HETATM   20  C   UNL     1       4.634  12.615  24.334  0.00  0.00     0.032 A 
BRANCH  18  21
HETATM   21  N   UNL     1       0.951  13.295  24.287  0.00  0.00    -0.378 N 
HETATM   22  C   UNL     1       0.166  13.656  25.480  0.00  0.00     0.150 C 
HETATM   23  C   UNL     1      -0.830  12.516  25.788  0.00  0.00     0.252 C 
HETATM   24  N   UNL     1      -1.655  12.165  24.568  0.00  0.00    -0.072 N 
HETATM   25  H   UNL     1      -2.293  12.942  24.355  0.00  0.00     0.277 HD
HETATM   26  H   UNL     1      -2.238  11.346  24.775  0.00  0.00     0.277 HD
HETATM   27  C   UNL     1      -0.803  11.874  23.348  0.00  0.00     0.252 C 
HETATM   28  C   UNL     1       0.145  13.055  23.077  0.00  0.00     0.150 C 
ENDBRANCH  18  21
ENDBRANCH  12  15
ENDBRANCH   1  11
BRANCH   3  29
HETATM   29  O   UNL     1       7.995  15.137  20.226  0.00  0.00    -0.360 OA
HETATM   30  H   UNL     1       7.127  15.017  20.670  0.00  0.00     0.217 HD
ENDBRANCH   3  29
BRANCH  10  31
HETATM   31  C   UNL     1      12.651  12.285  24.304  0.00  0.00     0.100 C 
BRANCH  31  32
HETATM   32  C   UNL     1      12.437  13.049  25.611  0.00  0.00    -0.052 A 
HETATM   33  C   UNL     1      13.290  12.936  26.717  0.00  0.00     0.007 A 
HETATM   34  C   UNL     1      13.050  13.652  27.893  0.00  0.00     0.001 A 
HETATM   35  C   UNL     1      11.904  14.426  28.028  0.00  0.00     0.007 A 
HETATM   36  C   UNL     1      10.958  14.460  27.001  0.00  0.00    -0.061 A 
HETATM   37  C   UNL     1      11.251  13.807  25.784  0.00  0.00     0.014 A 
HETATM   38  C   UNL     1       9.657  15.177  27.236  0.00  0.00     0.048 C 
ENDBRANCH  31  32
ENDBRANCH  10  31
TORSDOF 6
ENDMDL
