MODEL 1
REMARK VINA RESULT:    -8.318      0.000      0.000
REMARK INTER + INTRA:         -12.067
REMARK INTER:                  -9.628
REMARK INTRA:                  -2.439
REMARK UNBOUND:                -1.074
REMARK  6 active torsions:
REMARK  status: ('A' for Active; 'I' for Inactive)
REMARK    1  A    between atoms: C_7  and  C_8 
REMARK    2  A    between atoms: C_8  and  C_9 
REMARK    3  A    between atoms: C_16  and  C_20 
REMARK    4  A    between atoms: C_17  and  O_19 
REMARK       I    between atoms: C_20  and  N_22 
REMARK    5  A    between atoms: N_22  and  C_24 
REMARK    6  A    between atoms: C_27  and  O_28 
ROOT
HETATM    1  C   UNL     1       1.422   5.173  16.229  0.00  0.00     0.071 C 
HETATM    2  N   UNL     1       0.272   5.737  15.820  0.00  0.00    -0.178 NA
HETATM    3  N   UNL     1       0.352   6.999  16.260  0.00  0.00    -0.277 N 
HETATM    4  H   UNL     1      -0.418   7.626  16.061  0.00  0.00     0.189 HD
HETATM    5  C   UNL     1       2.240   6.107  16.940  0.00  0.00     0.020 C 
HETATM    6  C   UNL     1       1.458   7.255  17.021  0.00  0.00     0.065 C 
HETATM    7  C   UNL     1       3.500   6.098  17.577  0.00  0.00     0.035 C 
HETATM    8  C   UNL     1       3.891   7.221  18.334  0.00  0.00     0.066 C 
HETATM    9  C   UNL     1       2.997   8.291  18.503  0.00  0.00     0.083 C 
HETATM   10  C   UNL     1       1.800   8.366  17.793  0.00  0.00     0.069 C 
ENDROOT
BRANCH   8  11
HETATM   11  C   UNL     1       5.217   7.271  19.018  0.00  0.00     0.260 C 
HETATM   12  O   UNL     1       6.073   7.962  18.456  0.00  0.00    -0.267 OA
HETATM   13  N   UNL     1       5.437   6.614  20.249  0.00  0.00    -0.318 N 
HETATM   14  C   UNL     1       6.644   6.962  20.993  0.00  0.00     0.159 C 
BRANCH  13  15
HETATM   15  C   UNL     1       4.643   5.539  20.763  0.00  0.00     0.037 A 
HETATM   16  C   UNL     1       3.405   5.782  21.363  0.00  0.00     0.032 A 
HETATM   17  C   UNL     1       2.694   4.751  21.979  0.00  0.00     0.039 A 
HETATM   18  C   UNL     1       3.171   3.443  21.961  0.00  0.00     0.068 A 
HETATM   19  C   UNL     1       4.356   3.165  21.283  0.00  0.00     0.039 A 
HETATM   20  C   UNL     1       5.081   4.208  20.679  0.00  0.00     0.032 A 
BRANCH  18  21
HETATM   21  O   UNL     1       2.432   2.563  22.696  0.00  0.00    -0.356 OA
HETATM   22  C   UNL     1       3.071   1.372  23.128  0.00  0.00     0.210 C 
ENDBRANCH  18  21
ENDBRANCH  13  15
ENDBRANCH   8  11
BRANCH   9  23
HETATM   23  O   UNL     1       3.217   9.304  19.400  0.00  0.00    -0.360 OA
HETATM   24  H   UNL     1       2.351   9.507  19.817  0.00  0.00     0.217 HD
ENDBRANCH   9  23
BRANCH   1  25
HETATM   25  C   UNL     1       1.624   3.701  16.048  0.00  0.00     0.100 C 
BRANCH  25  26
HETATM   26  C   UNL     1       1.352   3.028  17.368  0.00  0.00    -0.052 A 
HETATM   27  C   UNL     1       2.264   2.085  17.870  0.00  0.00     0.014 A 
HETATM   28  C   UNL     1       2.008   1.406  19.069  0.00  0.00    -0.061 A 
HETATM   29  C   UNL     1       2.908   0.296  19.516  0.00  0.00     0.048 C 
HETATM   30  C   UNL     1       0.846   1.708  19.795  0.00  0.00     0.007 A 
HETATM   31  C   UNL     1      -0.029   2.689  19.329  0.00  0.00     0.001 A 
HETATM   32  C   UNL     1       0.220   3.337  18.124  0.00  0.00     0.007 A 
ENDBRANCH  25  26
ENDBRANCH   1  25
TORSDOF 6
ENDMDL
MODEL 2
REMARK VINA RESULT:    -8.263      3.263      5.929
REMARK INTER + INTRA:         -11.994
REMARK INTER:                 -10.739
REMARK INTRA:                  -1.255
REMARK UNBOUND:                -1.074
REMARK  6 active torsions:
REMARK  status: ('A' for Active; 'I' for Inactive)
REMARK    1  A    between atoms: C_7  and  C_8 
REMARK    2  A    between atoms: C_8  and  C_9 
REMARK    3  A    between atoms: C_16  and  C_20 
REMARK    4  A    between atoms: C_17  and  O_19 
REMARK       I    between atoms: C_20  and  N_22 
REMARK    5  A    between atoms: N_22  and  C_24 
REMARK    6  A    between atoms: C_27  and  O_28 
ROOT
HETATM    1  C   UNL     1       4.107   7.898  19.119  0.00  0.00     0.071 C 
HETATM    2  N   UNL     1       5.246   8.166  18.457  0.00  0.00    -0.178 NA
HETATM    3  N   UNL     1       6.193   7.546  19.173  0.00  0.00    -0.277 N 
HETATM    4  H   UNL     1       7.152   7.608  18.854  0.00  0.00     0.189 HD
HETATM    5  C   UNL     1       4.349   7.089  20.274  0.00  0.00     0.020 C 
HETATM    6  C   UNL     1       5.734   6.968  20.323  0.00  0.00     0.065 C 
HETATM    7  C   UNL     1       3.581   6.513  21.308  0.00  0.00     0.035 C 
HETATM    8  C   UNL     1       4.243   5.900  22.392  0.00  0.00     0.066 C 
HETATM    9  C   UNL     1       5.645   5.939  22.461  0.00  0.00     0.083 C 
HETATM   10  C   UNL     1       6.420   6.402  21.399  0.00  0.00     0.069 C 
ENDROOT
BRANCH   8  11
HETATM   11  C   UNL     1       3.481   5.263  23.506  0.00  0.00     0.260 C 
HETATM   12  O   UNL     1       3.354   4.037  23.424  0.00  0.00    -0.267 OA
HETATM   13  N   UNL     1       2.999   6.021  24.597  0.00  0.00    -0.318 N 
HETATM   14  C   UNL     1       2.542   5.291  25.776  0.00  0.00     0.159 C 
BRANCH  13  15
HETATM   15  C   UNL     1       2.795   7.438  24.590  0.00  0.00     0.037 A 
HETATM   16  C   UNL     1       1.548   7.987  24.899  0.00  0.00     0.032 A 
HETATM   17  C   UNL     1       1.316   9.357  24.765  0.00  0.00     0.039 A 
HETATM   18  C   UNL     1       2.337  10.220  24.376  0.00  0.00     0.068 A 
HETATM   19  C   UNL     1       3.613   9.704  24.157  0.00  0.00     0.039 A 
HETATM   20  C   UNL     1       3.840   8.321  24.274  0.00  0.00     0.032 A 
BRANCH  18  21
HETATM   21  O   UNL     1       1.939  11.510  24.179  0.00  0.00    -0.356 OA
HETATM   22  C   UNL     1       0.596  11.838  24.501  0.00  0.00     0.210 C 
ENDBRANCH  18  21
ENDBRANCH  13  15
ENDBRANCH   8  11
BRANCH   9  23
HETATM   23  O   UNL     1       6.341   5.568  23.582  0.00  0.00    -0.360 OA
HETATM   24  H   UNL     1       5.951   4.720  23.891  0.00  0.00     0.217 HD
ENDBRANCH   9  23
BRANCH   1  25
HETATM   25  C   UNL     1       2.835   8.564  18.694  0.00  0.00     0.100 C 
BRANCH  25  26
HETATM   26  C   UNL     1       2.052   7.583  17.862  0.00  0.00    -0.052 A 
HETATM   27  C   UNL     1       1.150   6.706  18.486  0.00  0.00     0.014 A 
HETATM   28  C   UNL     1       0.448   5.747  17.741  0.00  0.00    -0.061 A 
HETATM   29  C   UNL     1      -0.392   4.719  18.433  0.00  0.00     0.048 C 
HETATM   30  C   UNL     1       0.621   5.697  16.350  0.00  0.00     0.007 A 
HETATM   31  C   UNL     1       1.469   6.609  15.722  0.00  0.00     0.001 A 
HETATM   32  C   UNL     1       2.182   7.538  16.473  0.00  0.00     0.007 A 
ENDBRANCH  25  26
ENDBRANCH   1  25
TORSDOF 6
ENDMDL
MODEL 3
REMARK VINA RESULT:    -8.017      6.222      9.232
REMARK INTER + INTRA:         -11.670
REMARK INTER:                 -10.431
REMARK INTRA:                  -1.239
REMARK UNBOUND:                -1.074
REMARK  6 active torsions:
REMARK  status: ('A' for Active; 'I' for Inactive)
REMARK    1  A    between atoms: C_7  and  C_8 
REMARK    2  A    between atoms: C_8  and  C_9 
REMARK    3  A    between atoms: C_16  and  C_20 
REMARK    4  A    between atoms: C_17  and  O_19 
REMARK       I    between atoms: C_20  and  N_22 
REMARK    5  A    between atoms: N_22  and  C_24 
REMARK    6  A    between atoms: C_27  and  O_28 
ROOT
HETATM    1  C   UNL     1       2.845   7.772  23.893  0.00  0.00     0.071 C 
HETATM    2  N   UNL     1       2.765   6.519  23.410  0.00  0.00    -0.178 NA
HETATM    3  N   UNL     1       1.692   6.002  24.020  0.00  0.00    -0.277 N 
HETATM    4  H   UNL     1       1.429   5.048  23.803  0.00  0.00     0.189 HD
HETATM    5  C   UNL     1       1.795   8.042  24.826  0.00  0.00     0.020 C 
HETATM    6  C   UNL     1       1.127   6.829  24.952  0.00  0.00     0.065 C 
HETATM    7  C   UNL     1       1.378   9.132  25.621  0.00  0.00     0.035 C 
HETATM    8  C   UNL     1       0.351   8.934  26.566  0.00  0.00     0.066 C 
HETATM    9  C   UNL     1      -0.184   7.650  26.752  0.00  0.00     0.083 C 
HETATM   10  C   UNL     1       0.134   6.591  25.903  0.00  0.00     0.069 C 
ENDROOT
BRANCH   8  11
HETATM   11  C   UNL     1      -0.139  10.054  27.424  0.00  0.00     0.260 C 
HETATM   12  O   UNL     1      -0.021   9.876  28.640  0.00  0.00    -0.267 OA
HETATM   13  N   UNL     1      -0.642  11.248  26.861  0.00  0.00    -0.318 N 
HETATM   14  C   UNL     1      -0.808  12.395  27.749  0.00  0.00     0.159 C 
BRANCH  13  15
HETATM   15  C   UNL     1      -1.130  11.386  25.522  0.00  0.00     0.037 A 
HETATM   16  C   UNL     1      -0.365  12.019  24.539  0.00  0.00     0.032 A 
HETATM   17  C   UNL     1      -0.893  12.269  23.272  0.00  0.00     0.039 A 
HETATM   18  C   UNL     1      -2.174  11.843  22.934  0.00  0.00     0.068 A 
HETATM   19  C   UNL     1      -2.916  11.124  23.869  0.00  0.00     0.039 A 
HETATM   20  C   UNL     1      -2.390  10.889  25.153  0.00  0.00     0.032 A 
BRANCH  18  21
HETATM   21  O   UNL     1      -2.599  12.253  21.704  0.00  0.00    -0.356 OA
HETATM   22  C   UNL     1      -1.661  12.925  20.878  0.00  0.00     0.210 C 
ENDBRANCH  18  21
ENDBRANCH  13  15
ENDBRANCH   8  11
BRANCH   9  23
HETATM   23  O   UNL     1      -1.016   7.339  27.797  0.00  0.00    -0.360 OA
HETATM   24  H   UNL     1      -0.474   7.384  28.615  0.00  0.00     0.217 HD
ENDBRANCH   9  23
BRANCH   1  25
HETATM   25  C   UNL     1       4.032   8.618  23.548  0.00  0.00     0.100 C 
BRANCH  25  26
HETATM   26  C   UNL     1       4.510   8.213  22.179  0.00  0.00    -0.052 A 
HETATM   27  C   UNL     1       3.792   8.618  21.042  0.00  0.00     0.014 A 
HETATM   28  C   UNL     1       4.187   8.211  19.760  0.00  0.00    -0.061 A 
HETATM   29  C   UNL     1       3.330   8.520  18.572  0.00  0.00     0.048 C 
HETATM   30  C   UNL     1       5.338   7.423  19.614  0.00  0.00     0.007 A 
HETATM   31  C   UNL     1       6.087   7.072  20.737  0.00  0.00     0.001 A 
HETATM   32  C   UNL     1       5.672   7.459  22.007  0.00  0.00     0.007 A 
ENDBRANCH  25  26
ENDBRANCH   1  25
TORSDOF 6
ENDMDL
MODEL 4
REMARK VINA RESULT:    -8.002      3.170      6.707
REMARK INTER + INTRA:         -11.649
REMARK INTER:                 -10.155
REMARK INTRA:                  -1.493
REMARK UNBOUND:                -1.074
REMARK  6 active torsions:
REMARK  status: ('A' for Active; 'I' for Inactive)
REMARK    1  A    between atoms: C_7  and  C_8 
REMARK    2  A    between atoms: C_8  and  C_9 
REMARK    3  A    between atoms: C_16  and  C_20 
REMARK    4  A    between atoms: C_17  and  O_19 
REMARK       I    between atoms: C_20  and  N_22 
REMARK    5  A    between atoms: N_22  and  C_24 
REMARK    6  A    between atoms: C_27  and  O_28 
ROOT
HETATM    1  C   UNL     1       4.397   6.847  23.225  0.00  0.00     0.071 C 
HETATM    2  N   UNL     1       5.587   6.372  23.633  0.00  0.00    -0.178 NA
HETATM    3  N   UNL     1       6.293   6.244  22.503  0.00  0.00    -0.277 N 
HETATM    4  H   UNL     1       7.243   5.899  22.568  0.00  0.00     0.189 HD
HETATM    5  C   UNL     1       4.361   7.022  21.806  0.00  0.00     0.020 C 
HETATM    6  C   UNL     1       5.584   6.522  21.368  0.00  0.00     0.065 C 
HETATM    7  C   UNL     1       3.429   7.470  20.845  0.00  0.00     0.035 C 
HETATM    8  C   UNL     1       3.736   7.328  19.476  0.00  0.00     0.066 C 
HETATM    9  C   UNL     1       4.921   6.680  19.094  0.00  0.00     0.083 C 
HETATM   10  C   UNL     1       5.901   6.334  20.022  0.00  0.00     0.069 C 
ENDROOT
BRANCH   8  11
HETATM   11  C   UNL     1       2.792   7.796  18.418  0.00  0.00     0.260 C 
HETATM   12  O   UNL     1       2.831   9.007  18.177  0.00  0.00    -0.267 OA
HETATM   13  N   UNL     1       1.966   6.891  17.715  0.00  0.00    -0.318 N 
HETATM   14  C   UNL     1       1.311   7.378  16.505  0.00  0.00     0.159 C 
BRANCH  13  15
HETATM   15  C   UNL     1       1.611   5.579  18.164  0.00  0.00     0.037 A 
HETATM   16  C   UNL     1       0.607   5.392  19.118  0.00  0.00     0.032 A 
HETATM   17  C   UNL     1       0.353   4.127  19.650  0.00  0.00     0.039 A 
HETATM   18  C   UNL     1       1.051   3.009  19.203  0.00  0.00     0.068 A 
HETATM   19  C   UNL     1       1.989   3.160  18.182  0.00  0.00     0.039 A 
HETATM   20  C   UNL     1       2.258   4.439  17.661  0.00  0.00     0.032 A 
BRANCH  18  21
HETATM   21  O   UNL     1       0.778   1.862  19.889  0.00  0.00    -0.356 OA
HETATM   22  C   UNL     1       1.691   1.473  20.904  0.00  0.00     0.210 C 
ENDBRANCH  18  21
ENDBRANCH  13  15
ENDBRANCH   8  11
BRANCH   9  23
HETATM   23  O   UNL     1       5.177   6.309  17.799  0.00  0.00    -0.360 OA
HETATM   24  H   UNL     1       5.405   7.129  17.308  0.00  0.00     0.217 HD
ENDBRANCH   9  23
BRANCH   1  25
HETATM   25  C   UNL     1       3.277   6.973  24.211  0.00  0.00     0.100 C 
BRANCH  25  26
HETATM   26  C   UNL     1       2.917   8.431  24.323  0.00  0.00    -0.052 A 
HETATM   27  C   UNL     1       1.660   8.800  24.829  0.00  0.00     0.014 A 
HETATM   28  C   UNL     1       1.280  10.148  24.894  0.00  0.00    -0.061 A 
HETATM   29  C   UNL     1      -0.115  10.521  25.290  0.00  0.00     0.048 C 
HETATM   30  C   UNL     1       2.187  11.138  24.487  0.00  0.00     0.007 A 
HETATM   31  C   UNL     1       3.458  10.775  24.043  0.00  0.00     0.001 A 
HETATM   32  C   UNL     1       3.815   9.434  23.956  0.00  0.00     0.007 A 
ENDBRANCH  25  26
ENDBRANCH   1  25
TORSDOF 6
ENDMDL
MODEL 5
REMARK VINA RESULT:    -7.884      8.078     10.326
REMARK INTER + INTRA:         -11.493
REMARK INTER:                  -9.939
REMARK INTRA:                  -1.553
REMARK UNBOUND:                -1.074
REMARK  6 active torsions:
REMARK  status: ('A' for Active; 'I' for Inactive)
REMARK    1  A    between atoms: C_7  and  C_8 
REMARK    2  A    between atoms: C_8  and  C_9 
REMARK    3  A    between atoms: C_16  and  C_20 
REMARK    4  A    between atoms: C_17  and  O_19 
REMARK       I    between atoms: C_20  and  N_22 
REMARK    5  A    between atoms: N_22  and  C_24 
REMARK    6  A    between atoms: C_27  and  O_28 
ROOT
HETATM    1  C   UNL     1      -1.058  10.019  26.293  0.00  0.00     0.071 C 
HETATM    2  N   UNL     1      -2.256  10.441  26.733  0.00  0.00    -0.178 NA
HETATM    3  N   UNL     1      -2.162  10.360  28.066  0.00  0.00    -0.277 N 
HETATM    4  H   UNL     1      -2.962  10.638  28.621  0.00  0.00     0.189 HD
HETATM    5  C   UNL     1      -0.195   9.668  27.378  0.00  0.00     0.020 C 
HETATM    6  C   UNL     1      -0.991   9.812  28.510  0.00  0.00     0.065 C 
HETATM    7  C   UNL     1       1.123   9.184  27.533  0.00  0.00     0.035 C 
HETATM    8  C   UNL     1       1.562   8.795  28.815  0.00  0.00     0.066 C 
HETATM    9  C   UNL     1       0.665   8.823  29.895  0.00  0.00     0.083 C 
HETATM   10  C   UNL     1      -0.599   9.400  29.784  0.00  0.00     0.069 C 
ENDROOT
BRANCH   8  11
HETATM   11  C   UNL     1       2.949   8.289  29.038  0.00  0.00     0.260 C 
HETATM   12  O   UNL     1       3.774   9.145  29.372  0.00  0.00    -0.267 OA
HETATM   13  N   UNL     1       3.259   6.916  28.927  0.00  0.00    -0.318 N 
HETATM   14  C   UNL     1       4.544   6.470  29.456  0.00  0.00     0.159 C 
BRANCH  13  15
HETATM   15  C   UNL     1       2.476   5.948  28.220  0.00  0.00     0.037 A 
HETATM   16  C   UNL     1       1.548   5.145  28.888  0.00  0.00     0.032 A 
HETATM   17  C   UNL     1       0.882   4.115  28.222  0.00  0.00     0.039 A 
HETATM   18  C   UNL     1       1.079   3.899  26.861  0.00  0.00     0.068 A 
HETATM   19  C   UNL     1       1.927   4.751  26.156  0.00  0.00     0.039 A 
HETATM   20  C   UNL     1       2.613   5.776  26.833  0.00  0.00     0.032 A 
BRANCH  18  21
HETATM   21  O   UNL     1       0.451   2.792  26.370  0.00  0.00    -0.356 OA
HETATM   22  C   UNL     1      -0.900   2.583  26.751  0.00  0.00     0.210 C 
ENDBRANCH  18  21
ENDBRANCH  13  15
ENDBRANCH   8  11
BRANCH   9  23
HETATM   23  O   UNL     1       0.950   8.254  31.109  0.00  0.00    -0.360 OA
HETATM   24  H   UNL     1       0.474   7.394  31.138  0.00  0.00     0.217 HD
ENDBRANCH   9  23
BRANCH   1  25
HETATM   25  C   UNL     1      -0.841   9.824  24.824  0.00  0.00     0.100 C 
BRANCH  25  26
HETATM   26  C   UNL     1      -0.718  11.183  24.188  0.00  0.00    -0.052 A 
HETATM   27  C   UNL     1      -1.510  11.503  23.073  0.00  0.00     0.014 A 
HETATM   28  C   UNL     1      -1.378  12.742  22.429  0.00  0.00    -0.061 A 
HETATM   29  C   UNL     1      -2.113  13.014  21.154  0.00  0.00     0.048 C 
HETATM   30  C   UNL     1      -0.472  13.686  22.936  0.00  0.00     0.007 A 
HETATM   31  C   UNL     1       0.269  13.392  24.080  0.00  0.00     0.001 A 
HETATM   32  C   UNL     1       0.151  12.150  24.695  0.00  0.00     0.007 A 
ENDBRANCH  25  26
ENDBRANCH   1  25
TORSDOF 6
ENDMDL
MODEL 6
REMARK VINA RESULT:    -7.820      3.080      6.129
REMARK INTER + INTRA:         -11.409
REMARK INTER:                  -9.072
REMARK INTRA:                  -2.338
REMARK UNBOUND:                -1.074
REMARK  6 active torsions:
REMARK  status: ('A' for Active; 'I' for Inactive)
REMARK    1  A    between atoms: C_7  and  C_8 
REMARK    2  A    between atoms: C_8  and  C_9 
REMARK    3  A    between atoms: C_16  and  C_20 
REMARK    4  A    between atoms: C_17  and  O_19 
REMARK       I    between atoms: C_20  and  N_22 
REMARK    5  A    between atoms: N_22  and  C_24 
REMARK    6  A    between atoms: C_27  and  O_28 
ROOT
HETATM    1  C   UNL     1       4.503   8.152  21.949  0.00  0.00     0.071 C 
HETATM    2  N   UNL     1       3.715   9.088  22.507  0.00  0.00    -0.178 NA
HETATM    3  N   UNL     1       3.037   8.424  23.451  0.00  0.00    -0.277 N 
HETATM    4  H   UNL     1       2.372   8.938  24.016  0.00  0.00     0.189 HD
HETATM    5  C   UNL     1       4.314   6.874  22.562  0.00  0.00     0.020 C 
HETATM    6  C   UNL     1       3.278   7.078  23.468  0.00  0.00     0.065 C 
HETATM    7  C   UNL     1       4.838   5.572  22.413  0.00  0.00     0.035 C 
HETATM    8  C   UNL     1       4.246   4.511  23.129  0.00  0.00     0.066 C 
HETATM    9  C   UNL     1       3.108   4.753  23.915  0.00  0.00     0.083 C 
HETATM   10  C   UNL     1       2.648   6.045  24.162  0.00  0.00     0.069 C 
ENDROOT
BRANCH   8  11
HETATM   11  C   UNL     1       4.767   3.116  23.019  0.00  0.00     0.260 C 
HETATM   12  O   UNL     1       5.708   2.844  23.772  0.00  0.00    -0.267 OA
HETATM   13  N   UNL     1       4.172   2.174  22.151  0.00  0.00    -0.318 N 
HETATM   14  C   UNL     1       4.536   0.771  22.327  0.00  0.00     0.159 C 
BRANCH  13  15
HETATM   15  C   UNL     1       3.346   2.495  21.026  0.00  0.00     0.037 A 
HETATM   16  C   UNL     1       3.901   2.700  19.761  0.00  0.00     0.032 A 
HETATM   17  C   UNL     1       3.113   3.140  18.696  0.00  0.00     0.039 A 
HETATM   18  C   UNL     1       1.743   3.331  18.852  0.00  0.00     0.068 A 
HETATM   19  C   UNL     1       1.155   3.039  20.081  0.00  0.00     0.039 A 
HETATM   20  C   UNL     1       1.953   2.614  21.158  0.00  0.00     0.032 A 
BRANCH  18  21
HETATM   21  O   UNL     1       1.122   3.869  17.763  0.00  0.00    -0.356 OA
HETATM   22  C   UNL     1       0.008   4.717  17.997  0.00  0.00     0.210 C 
ENDBRANCH  18  21
ENDBRANCH  13  15
ENDBRANCH   8  11
BRANCH   9  23
HETATM   23  O   UNL     1       2.353   3.743  24.454  0.00  0.00    -0.360 OA
HETATM   24  H   UNL     1       1.452   3.827  24.070  0.00  0.00     0.217 HD
ENDBRANCH   9  23
BRANCH   1  25
HETATM   25  C   UNL     1       5.306   8.497  20.733  0.00  0.00     0.100 C 
BRANCH  25  26
HETATM   26  C   UNL     1       4.665   7.829  19.546  0.00  0.00    -0.052 A 
HETATM   27  C   UNL     1       3.490   8.367  18.996  0.00  0.00     0.014 A 
HETATM   28  C   UNL     1       2.843   7.734  17.925  0.00  0.00    -0.061 A 
HETATM   29  C   UNL     1       1.513   8.228  17.447  0.00  0.00     0.048 C 
HETATM   30  C   UNL     1       3.405   6.574  17.372  0.00  0.00     0.007 A 
HETATM   31  C   UNL     1       4.605   6.075  17.877  0.00  0.00     0.001 A 
HETATM   32  C   UNL     1       5.224   6.694  18.958  0.00  0.00     0.007 A 
ENDBRANCH  25  26
ENDBRANCH   1  25
TORSDOF 6
ENDMDL
MODEL 7
REMARK VINA RESULT:    -7.733      3.664      7.938
REMARK INTER + INTRA:         -11.294
REMARK INTER:                  -9.734
REMARK INTRA:                  -1.560
REMARK UNBOUND:                -1.074
REMARK  6 active torsions:
REMARK  status: ('A' for Active; 'I' for Inactive)
REMARK    1  A    between atoms: C_7  and  C_8 
REMARK    2  A    between atoms: C_8  and  C_9 
REMARK    3  A    between atoms: C_16  and  C_20 
REMARK    4  A    between atoms: C_17  and  O_19 
REMARK       I    between atoms: C_20  and  N_22 
REMARK    5  A    between atoms: N_22  and  C_24 
REMARK    6  A    between atoms: C_27  and  O_28 
ROOT
HETATM    1  C   UNL     1       3.257   6.897  25.229  0.00  0.00     0.071 C 
HETATM    2  N   UNL     1       4.353   6.935  26.007  0.00  0.00    -0.178 NA
HETATM    3  N   UNL     1       5.203   6.087  25.417  0.00  0.00    -0.277 N 
HETATM    4  H   UNL     1       6.116   5.954  25.834  0.00  0.00     0.189 HD
HETATM    5  C   UNL     1       3.429   6.005  24.124  0.00  0.00     0.020 C 
HETATM    6  C   UNL     1       4.674   5.425  24.343  0.00  0.00     0.065 C 
HETATM    7  C   UNL     1       2.664   5.572  23.020  0.00  0.00     0.035 C 
HETATM    8  C   UNL     1       3.152   4.517  22.222  0.00  0.00     0.066 C 
HETATM    9  C   UNL     1       4.346   3.870  22.579  0.00  0.00     0.083 C 
HETATM   10  C   UNL     1       5.168   4.355  23.595  0.00  0.00     0.069 C 
ENDROOT
BRANCH   8  11
HETATM   11  C   UNL     1       2.390   4.027  21.035  0.00  0.00     0.260 C 
HETATM   12  O   UNL     1       1.787   2.962  21.199  0.00  0.00    -0.267 OA
HETATM   13  N   UNL     1       2.330   4.776  19.838  0.00  0.00    -0.318 N 
HETATM   14  C   UNL     1       1.329   4.386  18.849  0.00  0.00     0.159 C 
BRANCH  13  15
HETATM   15  C   UNL     1       3.257   5.798  19.457  0.00  0.00     0.037 A 
HETATM   16  C   UNL     1       4.622   5.525  19.342  0.00  0.00     0.032 A 
HETATM   17  C   UNL     1       5.539   6.550  19.100  0.00  0.00     0.039 A 
HETATM   18  C   UNL     1       5.112   7.861  18.908  0.00  0.00     0.068 A 
HETATM   19  C   UNL     1       3.746   8.137  18.923  0.00  0.00     0.039 A 
HETATM   20  C   UNL     1       2.825   7.107  19.186  0.00  0.00     0.032 A 
BRANCH  18  21
HETATM   21  O   UNL     1       6.121   8.771  18.793  0.00  0.00    -0.356 OA
HETATM   22  C   UNL     1       7.240   8.620  19.654  0.00  0.00     0.210 C 
ENDBRANCH  18  21
ENDBRANCH  13  15
ENDBRANCH   8  11
BRANCH   9  23
HETATM   23  O   UNL     1       4.761   2.704  21.989  0.00  0.00    -0.360 OA
HETATM   24  H   UNL     1       4.607   2.804  21.024  0.00  0.00     0.217 HD
ENDBRANCH   9  23
BRANCH   1  25
HETATM   25  C   UNL     1       2.018   7.615  25.667  0.00  0.00     0.100 C 
BRANCH  25  26
HETATM   26  C   UNL     1       2.068   9.013  25.111  0.00  0.00    -0.052 A 
HETATM   27  C   UNL     1       3.148   9.401  24.301  0.00  0.00     0.014 A 
HETATM   28  C   UNL     1       3.246  10.712  23.814  0.00  0.00    -0.061 A 
HETATM   29  C   UNL     1       4.475  11.157  23.083  0.00  0.00     0.048 C 
HETATM   30  C   UNL     1       2.227  11.631  24.106  0.00  0.00     0.007 A 
HETATM   31  C   UNL     1       1.123  11.229  24.857  0.00  0.00     0.001 A 
HETATM   32  C   UNL     1       1.049   9.934  25.359  0.00  0.00     0.007 A 
ENDBRANCH  25  26
ENDBRANCH   1  25
TORSDOF 6
ENDMDL
MODEL 8
REMARK VINA RESULT:    -7.689      4.508      7.898
REMARK INTER + INTRA:         -11.235
REMARK INTER:                  -9.537
REMARK INTRA:                  -1.698
REMARK UNBOUND:                -1.074
REMARK  6 active torsions:
REMARK  status: ('A' for Active; 'I' for Inactive)
REMARK    1  A    between atoms: C_7  and  C_8 
REMARK    2  A    between atoms: C_8  and  C_9 
REMARK    3  A    between atoms: C_16  and  C_20 
REMARK    4  A    between atoms: C_17  and  O_19 
REMARK       I    between atoms: C_20  and  N_22 
REMARK    5  A    between atoms: N_22  and  C_24 
REMARK    6  A    between atoms: C_27  and  O_28 
ROOT
HETATM    1  C   UNL     1       1.394   8.549  25.134  0.00  0.00     0.071 C 
HETATM    2  N   UNL     1       2.045   9.628  25.603  0.00  0.00    -0.178 NA
HETATM    3  N   UNL     1       3.329   9.388  25.311  0.00  0.00    -0.277 N 
HETATM    4  H   UNL     1       4.018  10.082  25.572  0.00  0.00     0.189 HD
HETATM    5  C   UNL     1       2.294   7.615  24.531  0.00  0.00     0.020 C 
HETATM    6  C   UNL     1       3.554   8.158  24.759  0.00  0.00     0.065 C 
HETATM    7  C   UNL     1       2.201   6.359  23.893  0.00  0.00     0.035 C 
HETATM    8  C   UNL     1       3.387   5.665  23.575  0.00  0.00     0.066 C 
HETATM    9  C   UNL     1       4.628   6.195  23.963  0.00  0.00     0.083 C 
HETATM   10  C   UNL     1       4.744   7.480  24.491  0.00  0.00     0.069 C 
ENDROOT
BRANCH   8  11
HETATM   11  C   UNL     1       3.348   4.340  22.888  0.00  0.00     0.260 C 
HETATM   12  O   UNL     1       3.150   3.370  23.626  0.00  0.00    -0.267 OA
HETATM   13  N   UNL     1       3.474   4.233  21.485  0.00  0.00    -0.318 N 
HETATM   14  C   UNL     1       3.121   2.957  20.871  0.00  0.00     0.159 C 
BRANCH  13  15
HETATM   15  C   UNL     1       4.046   5.229  20.630  0.00  0.00     0.037 A 
HETATM   16  C   UNL     1       5.429   5.325  20.463  0.00  0.00     0.032 A 
HETATM   17  C   UNL     1       5.991   6.376  19.735  0.00  0.00     0.039 A 
HETATM   18  C   UNL     1       5.186   7.322  19.108  0.00  0.00     0.068 A 
HETATM   19  C   UNL     1       3.801   7.188  19.183  0.00  0.00     0.039 A 
HETATM   20  C   UNL     1       3.236   6.140  19.932  0.00  0.00     0.032 A 
BRANCH  18  21
HETATM   21  O   UNL     1       5.871   8.351  18.530  0.00  0.00    -0.356 OA
HETATM   22  C   UNL     1       7.031   8.821  19.197  0.00  0.00     0.210 C 
ENDBRANCH  18  21
ENDBRANCH  13  15
ENDBRANCH   8  11
BRANCH   9  23
HETATM   23  O   UNL     1       5.794   5.478  23.890  0.00  0.00    -0.360 OA
HETATM   24  H   UNL     1       5.666   4.798  23.193  0.00  0.00     0.217 HD
ENDBRANCH   9  23
BRANCH   1  25
HETATM   25  C   UNL     1      -0.067   8.389  25.421  0.00  0.00     0.100 C 
BRANCH  25  26
HETATM   26  C   UNL     1      -0.216   7.383  26.531  0.00  0.00    -0.052 A 
HETATM   27  C   UNL     1       0.190   7.719  27.833  0.00  0.00     0.014 A 
HETATM   28  C   UNL     1       0.112   6.783  28.874  0.00  0.00    -0.061 A 
HETATM   29  C   UNL     1       0.688   7.100  30.220  0.00  0.00     0.048 C 
HETATM   30  C   UNL     1      -0.420   5.511  28.616  0.00  0.00     0.007 A 
HETATM   31  C   UNL     1      -0.880   5.198  27.337  0.00  0.00     0.001 A 
HETATM   32  C   UNL     1      -0.773   6.124  26.305  0.00  0.00     0.007 A 
ENDBRANCH  25  26
ENDBRANCH   1  25
TORSDOF 6
ENDMDL
MODEL 9
REMARK VINA RESULT:    -7.569      4.281      7.649
REMARK INTER + INTRA:         -11.077
REMARK INTER:                 -10.003
REMARK INTRA:                  -1.074
REMARK UNBOUND:                -1.074
REMARK  6 active torsions:
REMARK  status: ('A' for Active; 'I' for Inactive)
REMARK    1  A    between atoms: C_7  and  C_8 
REMARK    2  A    between atoms: C_8  and  C_9 
REMARK    3  A    between atoms: C_16  and  C_20 
REMARK    4  A    between atoms: C_17  and  O_19 
REMARK       I    between atoms: C_20  and  N_22 
REMARK    5  A    between atoms: N_22  and  C_24 
REMARK    6  A    between atoms: C_27  and  O_28 
ROOT
HETATM    1  C   UNL     1       3.344   9.270  23.578  0.00  0.00     0.071 C 
HETATM    2  N   UNL     1       3.819  10.411  23.049  0.00  0.00    -0.178 NA
HETATM    3  N   UNL     1       4.474  10.014  21.951  0.00  0.00    -0.277 N 
HETATM    4  H   UNL     1       4.920  10.720  21.378  0.00  0.00     0.189 HD
HETATM    5  C   UNL     1       3.708   8.134  22.788  0.00  0.00     0.020 C 
HETATM    6  C   UNL     1       4.528   8.657  21.793  0.00  0.00     0.065 C 
HETATM    7  C   UNL     1       3.505   6.738  22.836  0.00  0.00     0.035 C 
HETATM    8  C   UNL     1       4.196   5.915  21.922  0.00  0.00     0.066 C 
HETATM    9  C   UNL     1       5.125   6.487  21.037  0.00  0.00     0.083 C 
HETATM   10  C   UNL     1       5.254   7.868  20.900  0.00  0.00     0.069 C 
ENDROOT
BRANCH   8  11
HETATM   11  C   UNL     1       4.010   4.434  21.918  0.00  0.00     0.260 C 
HETATM   12  O   UNL     1       4.754   3.808  22.679  0.00  0.00    -0.267 OA
HETATM   13  N   UNL     1       3.007   3.820  21.136  0.00  0.00    -0.318 N 
HETATM   14  C   UNL     1       2.691   2.423  21.419  0.00  0.00     0.159 C 
BRANCH  13  15
HETATM   15  C   UNL     1       2.369   4.413  19.999  0.00  0.00     0.037 A 
HETATM   16  C   UNL     1       3.029   4.506  18.771  0.00  0.00     0.032 A 
HETATM   17  C   UNL     1       2.458   5.200  17.703  0.00  0.00     0.039 A 
HETATM   18  C   UNL     1       1.191   5.766  17.813  0.00  0.00     0.068 A 
HETATM   19  C   UNL     1       0.476   5.599  18.998  0.00  0.00     0.039 A 
HETATM   20  C   UNL     1       1.061   4.917  20.080  0.00  0.00     0.032 A 
BRANCH  18  21
HETATM   21  O   UNL     1       0.809   6.507  16.733  0.00  0.00    -0.356 OA
HETATM   22  C   UNL     1       1.829   6.972  15.864  0.00  0.00     0.210 C 
ENDBRANCH  18  21
ENDBRANCH  13  15
ENDBRANCH   8  11
BRANCH   9  23
HETATM   23  O   UNL     1       5.989   5.736  20.284  0.00  0.00    -0.360 OA
HETATM   24  H   UNL     1       6.852   6.206  20.288  0.00  0.00     0.217 HD
ENDBRANCH   9  23
BRANCH   1  25
HETATM   25  C   UNL     1       2.677   9.302  24.918  0.00  0.00     0.100 C 
BRANCH  25  26
HETATM   26  C   UNL     1       1.420  10.122  24.793  0.00  0.00    -0.052 A 
HETATM   27  C   UNL     1       1.511  11.504  24.561  0.00  0.00     0.014 A 
HETATM   28  C   UNL     1       0.358  12.298  24.493  0.00  0.00    -0.061 A 
HETATM   29  C   UNL     1       0.472  13.788  24.399  0.00  0.00     0.048 C 
HETATM   30  C   UNL     1      -0.901  11.693  24.617  0.00  0.00     0.007 A 
HETATM   31  C   UNL     1      -0.994  10.312  24.785  0.00  0.00     0.001 A 
HETATM   32  C   UNL     1       0.156   9.537  24.879  0.00  0.00     0.007 A 
ENDBRANCH  25  26
ENDBRANCH   1  25
TORSDOF 6
ENDMDL
