MODEL 1
REMARK VINA RESULT:    -8.892      0.000      0.000
REMARK INTER + INTRA:         -12.338
REMARK INTER:                 -11.241
REMARK INTRA:                  -1.097
REMARK UNBOUND:                -1.106
REMARK  5 active torsions:
REMARK  status: ('A' for Active; 'I' for Inactive)
REMARK       I    between atoms: C_2  and  N_4 
REMARK    1  A    between atoms: C_8  and  N_9 
REMARK       I    between atoms: N_9  and  C_10 
REMARK    2  A    between atoms: C_10  and  C_12 
REMARK    3  A    between atoms: C_13  and  O_14 
REMARK    4  A    between atoms: C_20  and  C_21 
REMARK    5  A    between atoms: C_21  and  C_22 
ROOT
HETATM    1  C   UNL     1       7.315  11.708  21.886  0.00  0.00     0.066 C 
HETATM    2  C   UNL     1       8.592  11.487  22.448  0.00  0.00     0.083 C 
HETATM    3  C   UNL     1       9.079  12.237  23.522  0.00  0.00     0.069 C 
HETATM    4  C   UNL     1       8.283  13.292  23.962  0.00  0.00     0.065 C 
HETATM    5  N   UNL     1       8.452  14.197  24.970  0.00  0.00    -0.277 N 
HETATM    6  H   UNL     1       9.193  14.217  25.660  0.00  0.00     0.189 HD
HETATM    7  N   UNL     1       7.525  15.165  25.000  0.00  0.00    -0.178 NA
HETATM    8  C   UNL     1       6.729  14.889  23.956  0.00  0.00     0.071 C 
HETATM    9  C   UNL     1       7.060  13.616  23.386  0.00  0.00     0.020 C 
HETATM   10  C   UNL     1       6.521  12.739  22.425  0.00  0.00     0.035 C 
ENDROOT
BRANCH   1  11
HETATM   11  C   UNL     1       6.859  10.814  20.766  0.00  0.00     0.260 C 
HETATM   12  N   UNL     1       6.050   9.660  20.979  0.00  0.00    -0.318 N 
HETATM   13  C   UNL     1       5.411   9.438  22.275  0.00  0.00     0.159 C 
HETATM   14  O   UNL     1       7.189  11.236  19.649  0.00  0.00    -0.267 OA
BRANCH  12  15
HETATM   15  C   UNL     1       5.632   8.836  19.852  0.00  0.00     0.037 C 
HETATM   16  C   UNL     1       4.850   9.362  18.810  0.00  0.00     0.039 C 
HETATM   17  C   UNL     1       4.232   8.509  17.905  0.00  0.00    -0.027 C 
HETATM   18  C   UNL     1       4.478   7.145  17.906  0.00  0.00     0.043 C 
HETATM   19  C   UNL     1       3.134   8.864  16.954  0.00  0.00     0.061 C 
HETATM   20  N   UNL     1       3.720   6.507  16.913  0.00  0.00    -0.318 N 
HETATM   21  C   UNL     1       5.353   6.605  18.818  0.00  0.00     0.032 C 
HETATM   22  C   UNL     1       3.746   5.153  16.614  0.00  0.00     0.220 C 
HETATM   23  C   UNL     1       2.930   7.540  16.209  0.00  0.00     0.137 C 
HETATM   24  O   UNL     1       4.410   4.306  17.212  0.00  0.00    -0.273 OA
HETATM   25  C   UNL     1       2.892   4.745  15.440  0.00  0.00     0.117 C 
HETATM   26  C   UNL     1       5.913   7.449  19.788  0.00  0.00     0.032 C 
ENDBRANCH  12  15
ENDBRANCH   1  11
BRANCH   2  27
HETATM   27  O   UNL     1       9.462  10.522  21.996  0.00  0.00    -0.360 OA
HETATM   28  H   UNL     1      10.145  10.969  21.446  0.00  0.00     0.217 HD
ENDBRANCH   2  27
BRANCH   8  29
HETATM   29  C   UNL     1       5.717  15.904  23.496  0.00  0.00     0.100 C 
BRANCH  29  30
HETATM   30  C   UNL     1       4.328  15.365  23.829  0.00  0.00    -0.052 A 
HETATM   31  C   UNL     1       3.498  14.789  22.846  0.00  0.00     0.014 A 
HETATM   32  C   UNL     1       2.241  14.248  23.159  0.00  0.00    -0.061 A 
HETATM   33  C   UNL     1       1.460  13.500  22.119  0.00  0.00     0.048 C 
HETATM   34  C   UNL     1       1.768  14.346  24.468  0.00  0.00     0.007 A 
HETATM   35  C   UNL     1       2.536  14.984  25.442  0.00  0.00     0.001 A 
HETATM   36  C   UNL     1       3.806  15.485  25.128  0.00  0.00     0.007 A 
ENDBRANCH  29  30
ENDBRANCH   8  29
TORSDOF 5
ENDMDL
MODEL 2
REMARK VINA RESULT:    -8.891      2.353      3.763
REMARK INTER + INTRA:         -12.336
REMARK INTER:                 -11.575
REMARK INTRA:                  -0.761
REMARK UNBOUND:                -1.106
REMARK  5 active torsions:
REMARK  status: ('A' for Active; 'I' for Inactive)
REMARK       I    between atoms: C_2  and  N_4 
REMARK    1  A    between atoms: C_8  and  N_9 
REMARK       I    between atoms: N_9  and  C_10 
REMARK    2  A    between atoms: C_10  and  C_12 
REMARK    3  A    between atoms: C_13  and  O_14 
REMARK    4  A    between atoms: C_20  and  C_21 
REMARK    5  A    between atoms: C_21  and  C_22 
ROOT
HETATM    1  C   UNL     1       9.150  10.971  23.260  0.00  0.00     0.066 C 
HETATM    2  C   UNL     1      10.477  10.526  23.068  0.00  0.00     0.083 C 
HETATM    3  C   UNL     1      11.535  10.958  23.871  0.00  0.00     0.069 C 
HETATM    4  C   UNL     1      11.244  11.936  24.820  0.00  0.00     0.065 C 
HETATM    5  N   UNL     1      12.025  12.559  25.751  0.00  0.00    -0.277 N 
HETATM    6  H   UNL     1      12.992  12.357  25.975  0.00  0.00     0.189 HD
HETATM    7  N   UNL     1      11.414  13.558  26.400  0.00  0.00    -0.178 NA
HETATM    8  C   UNL     1      10.188  13.601  25.857  0.00  0.00     0.071 C 
HETATM    9  C   UNL     1       9.977  12.480  24.990  0.00  0.00     0.020 C 
HETATM   10  C   UNL     1       8.902  11.901  24.288  0.00  0.00     0.035 C 
ENDROOT
BRANCH   1  11
HETATM   11  C   UNL     1       8.069  10.406  22.378  0.00  0.00     0.260 C 
HETATM   12  N   UNL     1       7.441  11.160  21.346  0.00  0.00    -0.318 N 
HETATM   13  C   UNL     1       8.002  12.444  20.927  0.00  0.00     0.159 C 
HETATM   14  O   UNL     1       7.854   9.205  22.592  0.00  0.00    -0.267 OA
BRANCH  12  15
HETATM   15  C   UNL     1       6.405  10.556  20.518  0.00  0.00     0.037 C 
HETATM   16  C   UNL     1       5.725   9.397  20.928  0.00  0.00     0.039 C 
HETATM   17  C   UNL     1       4.956   8.683  20.018  0.00  0.00    -0.027 C 
HETATM   18  C   UNL     1       4.715   9.158  18.737  0.00  0.00     0.043 C 
HETATM   19  C   UNL     1       4.437   7.292  20.189  0.00  0.00     0.061 C 
HETATM   20  N   UNL     1       3.933   8.247  18.013  0.00  0.00    -0.318 N 
HETATM   21  C   UNL     1       5.243  10.363  18.342  0.00  0.00     0.032 C 
HETATM   22  C   UNL     1       3.477   8.419  16.714  0.00  0.00     0.220 C 
HETATM   23  C   UNL     1       3.635   7.099  18.897  0.00  0.00     0.137 C 
HETATM   24  O   UNL     1       3.736   9.382  15.992  0.00  0.00    -0.273 OA
HETATM   25  C   UNL     1       2.581   7.318  16.205  0.00  0.00     0.117 C 
HETATM   26  C   UNL     1       6.091  11.046  19.227  0.00  0.00     0.032 C 
ENDBRANCH  12  15
ENDBRANCH   1  11
BRANCH   2  27
HETATM   27  O   UNL     1      10.843   9.633  22.088  0.00  0.00    -0.360 OA
HETATM   28  H   UNL     1      11.133   8.804  22.534  0.00  0.00     0.217 HD
ENDBRANCH   2  27
BRANCH   8  29
HETATM   29  C   UNL     1       9.283  14.770  26.139  0.00  0.00     0.100 C 
BRANCH  29  30
HETATM   30  C   UNL     1       8.586  15.149  24.834  0.00  0.00    -0.052 A 
HETATM   31  C   UNL     1       7.181  15.188  24.725  0.00  0.00     0.014 A 
HETATM   32  C   UNL     1       6.539  15.584  23.542  0.00  0.00    -0.061 A 
HETATM   33  C   UNL     1       5.049  15.769  23.516  0.00  0.00     0.048 C 
HETATM   34  C   UNL     1       7.311  15.879  22.418  0.00  0.00     0.007 A 
HETATM   35  C   UNL     1       8.700  15.769  22.476  0.00  0.00     0.001 A 
HETATM   36  C   UNL     1       9.333  15.412  23.674  0.00  0.00     0.007 A 
ENDBRANCH  29  30
ENDBRANCH   8  29
TORSDOF 5
ENDMDL
MODEL 3
REMARK VINA RESULT:    -8.826      4.813      6.480
REMARK INTER + INTRA:         -12.254
REMARK INTER:                 -11.496
REMARK INTRA:                  -0.758
REMARK UNBOUND:                -1.106
REMARK  5 active torsions:
REMARK  status: ('A' for Active; 'I' for Inactive)
REMARK       I    between atoms: C_2  and  N_4 
REMARK    1  A    between atoms: C_8  and  N_9 
REMARK       I    between atoms: N_9  and  C_10 
REMARK    2  A    between atoms: C_10  and  C_12 
REMARK    3  A    between atoms: C_13  and  O_14 
REMARK    4  A    between atoms: C_20  and  C_21 
REMARK    5  A    between atoms: C_21  and  C_22 
ROOT
HETATM    1  C   UNL     1       7.588   9.234  23.606  0.00  0.00     0.066 C 
HETATM    2  C   UNL     1       8.823   8.564  23.755  0.00  0.00     0.083 C 
HETATM    3  C   UNL     1      10.039   9.143  23.382  0.00  0.00     0.069 C 
HETATM    4  C   UNL     1       9.976  10.386  22.757  0.00  0.00     0.065 C 
HETATM    5  N   UNL     1      10.953  11.215  22.285  0.00  0.00    -0.277 N 
HETATM    6  H   UNL     1      11.954  11.097  22.374  0.00  0.00     0.189 HD
HETATM    7  N   UNL     1      10.493  12.278  21.612  0.00  0.00    -0.178 NA
HETATM    8  C   UNL     1       9.160  12.127  21.632  0.00  0.00     0.071 C 
HETATM    9  C   UNL     1       8.783  11.050  22.499  0.00  0.00     0.020 C 
HETATM   10  C   UNL     1       7.594  10.523  23.040  0.00  0.00     0.035 C 
ENDROOT
BRANCH   1  11
HETATM   11  C   UNL     1       6.337   8.548  24.086  0.00  0.00     0.260 C 
HETATM   12  N   UNL     1       5.284   9.239  24.751  0.00  0.00    -0.318 N 
HETATM   13  C   UNL     1       5.258  10.701  24.768  0.00  0.00     0.159 C 
HETATM   14  O   UNL     1       6.292   7.352  23.766  0.00  0.00    -0.267 OA
BRANCH  12  15
HETATM   15  C   UNL     1       4.093   8.523  25.187  0.00  0.00     0.037 C 
HETATM   16  C   UNL     1       2.823   8.829  24.668  0.00  0.00     0.039 C 
HETATM   17  C   UNL     1       1.681   8.342  25.290  0.00  0.00    -0.027 C 
HETATM   18  C   UNL     1       1.752   7.434  26.336  0.00  0.00     0.043 C 
HETATM   19  C   UNL     1       0.279   8.816  25.075  0.00  0.00     0.061 C 
HETATM   20  N   UNL     1       0.468   7.116  26.801  0.00  0.00    -0.318 N 
HETATM   21  C   UNL     1       2.975   6.993  26.780  0.00  0.00     0.032 C 
HETATM   22  C   UNL     1       0.168   6.216  27.812  0.00  0.00     0.220 C 
HETATM   23  C   UNL     1      -0.511   7.870  25.987  0.00  0.00     0.137 C 
HETATM   24  O   UNL     1       0.998   5.597  28.480  0.00  0.00    -0.273 OA
HETATM   25  C   UNL     1      -1.304   6.000  28.055  0.00  0.00     0.117 C 
HETATM   26  C   UNL     1       4.133   7.547  26.212  0.00  0.00     0.032 C 
ENDBRANCH  12  15
ENDBRANCH   1  11
BRANCH   2  27
HETATM   27  O   UNL     1       8.940   7.297  24.278  0.00  0.00    -0.360 OA
HETATM   28  H   UNL     1       8.095   7.084  24.736  0.00  0.00     0.217 HD
ENDBRANCH   2  27
BRANCH   8  29
HETATM   29  C   UNL     1       8.294  12.986  20.749  0.00  0.00     0.100 C 
BRANCH  29  30
HETATM   30  C   UNL     1       7.439  13.873  21.652  0.00  0.00    -0.052 A 
HETATM   31  C   UNL     1       6.085  13.581  21.913  0.00  0.00     0.014 A 
HETATM   32  C   UNL     1       5.311  14.366  22.781  0.00  0.00    -0.061 A 
HETATM   33  C   UNL     1       3.925  13.931  23.161  0.00  0.00     0.048 C 
HETATM   34  C   UNL     1       5.876  15.509  23.348  0.00  0.00     0.007 A 
HETATM   35  C   UNL     1       7.189  15.865  23.041  0.00  0.00     0.001 A 
HETATM   36  C   UNL     1       7.966  15.052  22.204  0.00  0.00     0.007 A 
ENDBRANCH  29  30
ENDBRANCH   8  29
TORSDOF 5
ENDMDL
MODEL 4
REMARK VINA RESULT:    -8.786      2.277      4.427
REMARK INTER + INTRA:         -12.203
REMARK INTER:                 -11.810
REMARK INTRA:                  -0.393
REMARK UNBOUND:                -1.106
REMARK  5 active torsions:
REMARK  status: ('A' for Active; 'I' for Inactive)
REMARK       I    between atoms: C_2  and  N_4 
REMARK    1  A    between atoms: C_8  and  N_9 
REMARK       I    between atoms: N_9  and  C_10 
REMARK    2  A    between atoms: C_10  and  C_12 
REMARK    3  A    between atoms: C_13  and  O_14 
REMARK    4  A    between atoms: C_20  and  C_21 
REMARK    5  A    between atoms: C_21  and  C_22 
ROOT
HETATM    1  C   UNL     1       4.349  12.662  21.853  0.00  0.00     0.066 C 
HETATM    2  C   UNL     1       3.102  13.159  22.294  0.00  0.00     0.083 C 
HETATM    3  C   UNL     1       2.995  14.242  23.170  0.00  0.00     0.069 C 
HETATM    4  C   UNL     1       4.185  14.758  23.679  0.00  0.00     0.065 C 
HETATM    5  N   UNL     1       4.434  15.795  24.531  0.00  0.00    -0.277 N 
HETATM    6  H   UNL     1       3.764  16.453  24.910  0.00  0.00     0.189 HD
HETATM    7  N   UNL     1       5.716  15.904  24.903  0.00  0.00    -0.178 NA
HETATM    8  C   UNL     1       6.326  14.884  24.281  0.00  0.00     0.071 C 
HETATM    9  C   UNL     1       5.436  14.248  23.355  0.00  0.00     0.020 C 
HETATM   10  C   UNL     1       5.519  13.276  22.339  0.00  0.00     0.035 C 
ENDROOT
BRANCH   1  11
HETATM   11  C   UNL     1       4.360  11.526  20.866  0.00  0.00     0.260 C 
HETATM   12  N   UNL     1       4.920  10.250  21.163  0.00  0.00    -0.318 N 
HETATM   13  C   UNL     1       5.282   9.907  22.537  0.00  0.00     0.159 C 
HETATM   14  O   UNL     1       3.759  11.796  19.817  0.00  0.00    -0.267 OA
BRANCH  12  15
HETATM   15  C   UNL     1       4.894   9.186  20.168  0.00  0.00     0.037 C 
HETATM   16  C   UNL     1       4.923   9.469  18.792  0.00  0.00     0.039 C 
HETATM   17  C   UNL     1       4.616   8.476  17.871  0.00  0.00    -0.027 C 
HETATM   18  C   UNL     1       4.418   7.159  18.258  0.00  0.00     0.043 C 
HETATM   19  C   UNL     1       4.290   8.673  16.425  0.00  0.00     0.061 C 
HETATM   20  N   UNL     1       4.102   6.362  17.149  0.00  0.00    -0.318 N 
HETATM   21  C   UNL     1       4.525   6.810  19.582  0.00  0.00     0.032 C 
HETATM   22  C   UNL     1       3.876   4.993  17.168  0.00  0.00     0.220 C 
HETATM   23  C   UNL     1       4.105   7.228  15.949  0.00  0.00     0.137 C 
HETATM   24  O   UNL     1       3.876   4.288  18.178  0.00  0.00    -0.273 OA
HETATM   25  C   UNL     1       3.638   4.370  15.817  0.00  0.00     0.117 C 
HETATM   26  C   UNL     1       4.751   7.823  20.526  0.00  0.00     0.032 C 
ENDBRANCH  12  15
ENDBRANCH   1  11
BRANCH   2  27
HETATM   27  O   UNL     1       1.894  12.633  21.901  0.00  0.00    -0.360 OA
HETATM   28  H   UNL     1       1.799  12.793  20.934  0.00  0.00     0.217 HD
ENDBRANCH   2  27
BRANCH   8  29
HETATM   29  C   UNL     1       7.734  14.509  24.659  0.00  0.00     0.100 C 
BRANCH  29  30
HETATM   30  C   UNL     1       8.677  15.139  23.636  0.00  0.00    -0.052 A 
HETATM   31  C   UNL     1      10.078  15.055  23.766  0.00  0.00     0.014 A 
HETATM   32  C   UNL     1      10.946  15.590  22.802  0.00  0.00    -0.061 A 
HETATM   33  C   UNL     1      12.424  15.338  22.892  0.00  0.00     0.048 C 
HETATM   34  C   UNL     1      10.410  16.288  21.720  0.00  0.00     0.007 A 
HETATM   35  C   UNL     1       9.030  16.456  21.611  0.00  0.00     0.001 A 
HETATM   36  C   UNL     1       8.170  15.883  22.558  0.00  0.00     0.007 A 
ENDBRANCH  29  30
ENDBRANCH   8  29
TORSDOF 5
ENDMDL
MODEL 5
REMARK VINA RESULT:    -8.776      4.454      6.768
REMARK INTER + INTRA:         -12.191
REMARK INTER:                 -10.713
REMARK INTRA:                  -1.478
REMARK UNBOUND:                -1.106
REMARK  5 active torsions:
REMARK  status: ('A' for Active; 'I' for Inactive)
REMARK       I    between atoms: C_2  and  N_4 
REMARK    1  A    between atoms: C_8  and  N_9 
REMARK       I    between atoms: N_9  and  C_10 
REMARK    2  A    between atoms: C_10  and  C_12 
REMARK    3  A    between atoms: C_13  and  O_14 
REMARK    4  A    between atoms: C_20  and  C_21 
REMARK    5  A    between atoms: C_21  and  C_22 
ROOT
HETATM    1  C   UNL     1       6.089  10.497  22.180  0.00  0.00     0.066 C 
HETATM    2  C   UNL     1       5.735  10.664  20.822  0.00  0.00     0.083 C 
HETATM    3  C   UNL     1       6.596  11.252  19.891  0.00  0.00     0.069 C 
HETATM    4  C   UNL     1       7.794  11.765  20.380  0.00  0.00     0.065 C 
HETATM    5  N   UNL     1       8.840  12.381  19.756  0.00  0.00    -0.277 N 
HETATM    6  H   UNL     1       8.967  12.519  18.761  0.00  0.00     0.189 HD
HETATM    7  N   UNL     1       9.769  12.866  20.591  0.00  0.00    -0.178 NA
HETATM    8  C   UNL     1       9.300  12.569  21.812  0.00  0.00     0.071 C 
HETATM    9  C   UNL     1       8.153  11.714  21.722  0.00  0.00     0.020 C 
HETATM   10  C   UNL     1       7.349  10.964  22.601  0.00  0.00     0.035 C 
ENDROOT
BRANCH   1  11
HETATM   11  C   UNL     1       5.116   9.804  23.095  0.00  0.00     0.260 C 
HETATM   12  N   UNL     1       4.315  10.502  24.043  0.00  0.00    -0.318 N 
HETATM   13  C   UNL     1       4.216  11.960  23.992  0.00  0.00     0.159 C 
HETATM   14  O   UNL     1       5.030   8.588  22.871  0.00  0.00    -0.267 OA
BRANCH  12  15
HETATM   15  C   UNL     1       3.384   9.776  24.898  0.00  0.00     0.037 C 
HETATM   16  C   UNL     1       3.820   9.112  26.057  0.00  0.00     0.039 C 
HETATM   17  C   UNL     1       2.985   8.204  26.694  0.00  0.00    -0.027 C 
HETATM   18  C   UNL     1       1.666   8.030  26.305  0.00  0.00     0.043 C 
HETATM   19  C   UNL     1       3.386   7.195  27.722  0.00  0.00     0.061 C 
HETATM   20  N   UNL     1       1.046   7.046  27.088  0.00  0.00    -0.318 N 
HETATM   21  C   UNL     1       1.154   8.769  25.265  0.00  0.00     0.032 C 
HETATM   22  C   UNL     1      -0.279   6.645  26.993  0.00  0.00     0.220 C 
HETATM   23  C   UNL     1       2.039   6.551  28.067  0.00  0.00     0.137 C 
HETATM   24  O   UNL     1      -1.091   7.068  26.171  0.00  0.00    -0.273 OA
HETATM   25  C   UNL     1      -0.708   5.625  28.017  0.00  0.00     0.117 C 
HETATM   26  C   UNL     1       2.016   9.625  24.564  0.00  0.00     0.032 C 
ENDBRANCH  12  15
ENDBRANCH   1  11
BRANCH   2  27
HETATM   27  O   UNL     1       4.529  10.263  20.298  0.00  0.00    -0.360 OA
HETATM   28  H   UNL     1       3.818  10.629  20.872  0.00  0.00     0.217 HD
ENDBRANCH   2  27
BRANCH   8  29
HETATM   29  C   UNL     1       9.936  13.185  23.030  0.00  0.00     0.100 C 
BRANCH  29  30
HETATM   30  C   UNL     1       8.842  13.905  23.816  0.00  0.00    -0.052 A 
HETATM   31  C   UNL     1       7.851  14.676  23.175  0.00  0.00     0.014 A 
HETATM   32  C   UNL     1       6.816  15.297  23.890  0.00  0.00    -0.061 A 
HETATM   33  C   UNL     1       5.691  15.971  23.160  0.00  0.00     0.048 C 
HETATM   34  C   UNL     1       6.807  15.210  25.283  0.00  0.00     0.007 A 
HETATM   35  C   UNL     1       7.823  14.522  25.946  0.00  0.00     0.001 A 
HETATM   36  C   UNL     1       8.829  13.870  25.220  0.00  0.00     0.007 A 
ENDBRANCH  29  30
ENDBRANCH   8  29
TORSDOF 5
ENDMDL
MODEL 6
REMARK VINA RESULT:    -8.662      2.315      4.802
REMARK INTER + INTRA:         -12.046
REMARK INTER:                 -11.074
REMARK INTRA:                  -0.972
REMARK UNBOUND:                -1.106
REMARK  5 active torsions:
REMARK  status: ('A' for Active; 'I' for Inactive)
REMARK       I    between atoms: C_2  and  N_4 
REMARK    1  A    between atoms: C_8  and  N_9 
REMARK       I    between atoms: N_9  and  C_10 
REMARK    2  A    between atoms: C_10  and  C_12 
REMARK    3  A    between atoms: C_13  and  O_14 
REMARK    4  A    between atoms: C_20  and  C_21 
REMARK    5  A    between atoms: C_21  and  C_22 
ROOT
HETATM    1  C   UNL     1       5.849  12.292  21.113  0.00  0.00     0.066 C 
HETATM    2  C   UNL     1       4.926  12.916  21.981  0.00  0.00     0.083 C 
HETATM    3  C   UNL     1       5.254  14.044  22.738  0.00  0.00     0.069 C 
HETATM    4  C   UNL     1       6.577  14.476  22.678  0.00  0.00     0.065 C 
HETATM    5  N   UNL     1       7.217  15.525  23.273  0.00  0.00    -0.277 N 
HETATM    6  H   UNL     1       6.803  16.257  23.838  0.00  0.00     0.189 HD
HETATM    7  N   UNL     1       8.543  15.539  23.084  0.00  0.00    -0.178 NA
HETATM    8  C   UNL     1       8.780  14.442  22.349  0.00  0.00     0.071 C 
HETATM    9  C   UNL     1       7.552  13.844  21.915  0.00  0.00     0.020 C 
HETATM   10  C   UNL     1       7.151  12.823  21.033  0.00  0.00     0.035 C 
ENDROOT
BRANCH   1  11
HETATM   11  C   UNL     1       5.385  11.115  20.298  0.00  0.00     0.260 C 
HETATM   12  N   UNL     1       5.900   9.799  20.478  0.00  0.00    -0.318 N 
HETATM   13  C   UNL     1       6.723   9.484  21.644  0.00  0.00     0.159 C 
HETATM   14  O   UNL     1       4.458  11.401  19.527  0.00  0.00    -0.267 OA
BRANCH  12  15
HETATM   15  C   UNL     1       5.406   8.697  19.663  0.00  0.00     0.037 C 
HETATM   16  C   UNL     1       5.497   8.725  18.261  0.00  0.00     0.039 C 
HETATM   17  C   UNL     1       4.778   7.814  17.499  0.00  0.00    -0.027 C 
HETATM   18  C   UNL     1       4.074   6.771  18.082  0.00  0.00     0.043 C 
HETATM   19  C   UNL     1       4.509   7.897  16.030  0.00  0.00     0.061 C 
HETATM   20  N   UNL     1       3.419   6.010  17.103  0.00  0.00    -0.318 N 
HETATM   21  C   UNL     1       4.077   6.620  19.448  0.00  0.00     0.032 C 
HETATM   22  C   UNL     1       2.655   4.875  17.331  0.00  0.00     0.220 C 
HETATM   23  C   UNL     1       3.732   6.599  15.783  0.00  0.00     0.137 C 
HETATM   24  O   UNL     1       2.404   4.399  18.439  0.00  0.00    -0.273 OA
HETATM   25  C   UNL     1       2.134   4.200  16.088  0.00  0.00     0.117 C 
HETATM   26  C   UNL     1       4.731   7.587  20.226  0.00  0.00     0.032 C 
ENDBRANCH  12  15
ENDBRANCH   1  11
BRANCH   2  27
HETATM   27  O   UNL     1       3.633  12.480  22.154  0.00  0.00    -0.360 OA
HETATM   28  H   UNL     1       3.671  11.533  22.420  0.00  0.00     0.217 HD
ENDBRANCH   2  27
BRANCH   8  29
HETATM   29  C   UNL     1      10.194  13.963  22.151  0.00  0.00     0.100 C 
BRANCH  29  30
HETATM   30  C   UNL     1      10.809  13.737  23.531  0.00  0.00    -0.052 A 
HETATM   31  C   UNL     1      11.946  14.448  23.963  0.00  0.00     0.014 A 
HETATM   32  C   UNL     1      12.484  14.279  25.248  0.00  0.00    -0.061 A 
HETATM   33  C   UNL     1      13.593  15.170  25.728  0.00  0.00     0.048 C 
HETATM   34  C   UNL     1      11.920  13.328  26.099  0.00  0.00     0.007 A 
HETATM   35  C   UNL     1      10.844  12.553  25.665  0.00  0.00     0.001 A 
HETATM   36  C   UNL     1      10.290  12.758  24.394  0.00  0.00     0.007 A 
ENDBRANCH  29  30
ENDBRANCH   8  29
TORSDOF 5
ENDMDL
MODEL 7
REMARK VINA RESULT:    -8.655      5.240      7.466
REMARK INTER + INTRA:         -12.038
REMARK INTER:                 -11.063
REMARK INTRA:                  -0.974
REMARK UNBOUND:                -1.106
REMARK  5 active torsions:
REMARK  status: ('A' for Active; 'I' for Inactive)
REMARK       I    between atoms: C_2  and  N_4 
REMARK    1  A    between atoms: C_8  and  N_9 
REMARK       I    between atoms: N_9  and  C_10 
REMARK    2  A    between atoms: C_10  and  C_12 
REMARK    3  A    between atoms: C_13  and  O_14 
REMARK    4  A    between atoms: C_20  and  C_21 
REMARK    5  A    between atoms: C_21  and  C_22 
ROOT
HETATM    1  C   UNL     1       5.560   9.404  23.043  0.00  0.00     0.066 C 
HETATM    2  C   UNL     1       5.328   8.949  21.726  0.00  0.00     0.083 C 
HETATM    3  C   UNL     1       5.959   9.517  20.616  0.00  0.00     0.069 C 
HETATM    4  C   UNL     1       6.762  10.630  20.851  0.00  0.00     0.065 C 
HETATM    5  N   UNL     1       7.512  11.403  20.012  0.00  0.00    -0.277 N 
HETATM    6  H   UNL     1       7.682  11.251  19.025  0.00  0.00     0.189 HD
HETATM    7  N   UNL     1       8.045  12.486  20.592  0.00  0.00    -0.178 NA
HETATM    8  C   UNL     1       7.609  12.427  21.860  0.00  0.00     0.071 C 
HETATM    9  C   UNL     1       6.952  11.179  22.114  0.00  0.00     0.020 C 
HETATM   10  C   UNL     1       6.446  10.483  23.228  0.00  0.00     0.035 C 
ENDROOT
BRANCH   1  11
HETATM   11  C   UNL     1       4.875   8.693  24.179  0.00  0.00     0.260 C 
HETATM   12  N   UNL     1       3.715   9.207  24.825  0.00  0.00    -0.318 N 
HETATM   13  C   UNL     1       2.984  10.331  24.240  0.00  0.00     0.159 C 
HETATM   14  O   UNL     1       5.376   7.586  24.424  0.00  0.00    -0.267 OA
BRANCH  12  15
HETATM   15  C   UNL     1       3.090   8.469  25.915  0.00  0.00     0.037 C 
HETATM   16  C   UNL     1       1.781   7.971  25.806  0.00  0.00     0.039 C 
HETATM   17  C   UNL     1       1.109   7.526  26.937  0.00  0.00    -0.027 C 
HETATM   18  C   UNL     1       1.743   7.420  28.166  0.00  0.00     0.043 C 
HETATM   19  C   UNL     1      -0.359   7.272  27.058  0.00  0.00     0.061 C 
HETATM   20  N   UNL     1       0.846   6.969  29.145  0.00  0.00    -0.318 N 
HETATM   21  C   UNL     1       3.069   7.759  28.285  0.00  0.00     0.032 C 
HETATM   22  C   UNL     1       1.152   6.718  30.475  0.00  0.00     0.220 C 
HETATM   23  C   UNL     1      -0.467   6.758  28.498  0.00  0.00     0.137 C 
HETATM   24  O   UNL     1       2.252   6.902  30.997  0.00  0.00    -0.273 OA
HETATM   25  C   UNL     1       0.017   6.158  31.293  0.00  0.00     0.117 C 
HETATM   26  C   UNL     1       3.728   8.290  27.166  0.00  0.00     0.032 C 
ENDBRANCH  12  15
ENDBRANCH   1  11
BRANCH   2  27
HETATM   27  O   UNL     1       4.475   7.915  21.420  0.00  0.00    -0.360 OA
HETATM   28  H   UNL     1       3.737   8.286  20.884  0.00  0.00     0.217 HD
ENDBRANCH   2  27
BRANCH   8  29
HETATM   29  C   UNL     1       7.779  13.616  22.767  0.00  0.00     0.100 C 
BRANCH  29  30
HETATM   30  C   UNL     1       6.398  14.219  23.014  0.00  0.00    -0.052 A 
HETATM   31  C   UNL     1       5.226  13.624  22.503  0.00  0.00     0.014 A 
HETATM   32  C   UNL     1       3.951  14.148  22.770  0.00  0.00    -0.061 A 
HETATM   33  C   UNL     1       2.722  13.397  22.347  0.00  0.00     0.048 C 
HETATM   34  C   UNL     1       3.844  15.331  23.502  0.00  0.00     0.007 A 
HETATM   35  C   UNL     1       4.993  15.983  23.948  0.00  0.00     0.001 A 
HETATM   36  C   UNL     1       6.259  15.430  23.711  0.00  0.00     0.007 A 
ENDBRANCH  29  30
ENDBRANCH   8  29
TORSDOF 5
ENDMDL
MODEL 8
REMARK VINA RESULT:    -8.566      1.763      2.626
REMARK INTER + INTRA:         -11.926
REMARK INTER:                 -10.631
REMARK INTRA:                  -1.295
REMARK UNBOUND:                -1.106
REMARK  5 active torsions:
REMARK  status: ('A' for Active; 'I' for Inactive)
REMARK       I    between atoms: C_2  and  N_4 
REMARK    1  A    between atoms: C_8  and  N_9 
REMARK       I    between atoms: N_9  and  C_10 
REMARK    2  A    between atoms: C_10  and  C_12 
REMARK    3  A    between atoms: C_13  and  O_14 
REMARK    4  A    between atoms: C_20  and  C_21 
REMARK    5  A    between atoms: C_21  and  C_22 
ROOT
HETATM    1  C   UNL     1       5.852  10.717  20.678  0.00  0.00     0.066 C 
HETATM    2  C   UNL     1       7.027  11.391  20.276  0.00  0.00     0.083 C 
HETATM    3  C   UNL     1       7.836  12.089  21.177  0.00  0.00     0.069 C 
HETATM    4  C   UNL     1       7.380  12.181  22.490  0.00  0.00     0.065 C 
HETATM    5  N   UNL     1       7.916  12.769  23.598  0.00  0.00    -0.277 N 
HETATM    6  H   UNL     1       8.826  13.207  23.682  0.00  0.00     0.189 HD
HETATM    7  N   UNL     1       7.107  12.768  24.666  0.00  0.00    -0.178 NA
HETATM    8  C   UNL     1       5.989  12.169  24.230  0.00  0.00     0.071 C 
HETATM    9  C   UNL     1       6.184  11.619  22.921  0.00  0.00     0.020 C 
HETATM   10  C   UNL     1       5.483  10.778  22.036  0.00  0.00     0.035 C 
ENDROOT
BRANCH   1  11
HETATM   11  C   UNL     1       5.077   9.948  19.644  0.00  0.00     0.260 C 
HETATM   12  N   UNL     1       5.288   8.561  19.394  0.00  0.00    -0.318 N 
HETATM   13  C   UNL     1       6.094   7.762  20.314  0.00  0.00     0.159 C 
HETATM   14  O   UNL     1       4.190  10.625  19.107  0.00  0.00    -0.267 OA
BRANCH  12  15
HETATM   15  C   UNL     1       4.500   7.867  18.384  0.00  0.00     0.037 C 
HETATM   16  C   UNL     1       3.439   7.016  18.739  0.00  0.00     0.039 C 
HETATM   17  C   UNL     1       2.891   6.156  17.798  0.00  0.00    -0.027 C 
HETATM   18  C   UNL     1       3.261   6.207  16.462  0.00  0.00     0.043 C 
HETATM   19  C   UNL     1       2.001   4.986  18.071  0.00  0.00     0.061 C 
HETATM   20  N   UNL     1       2.583   5.226  15.725  0.00  0.00    -0.318 N 
HETATM   21  C   UNL     1       4.192   7.127  16.043  0.00  0.00     0.032 C 
HETATM   22  C   UNL     1       2.687   5.018  14.357  0.00  0.00     0.220 C 
HETATM   23  C   UNL     1       1.698   4.489  16.654  0.00  0.00     0.137 C 
HETATM   24  O   UNL     1       3.431   5.641  13.600  0.00  0.00    -0.273 OA
HETATM   25  C   UNL     1       1.780   3.947  13.807  0.00  0.00     0.117 C 
HETATM   26  C   UNL     1       4.811   7.939  17.004  0.00  0.00     0.032 C 
ENDBRANCH  12  15
ENDBRANCH   1  11
BRANCH   2  27
HETATM   27  O   UNL     1       7.480  11.416  18.978  0.00  0.00    -0.360 OA
HETATM   28  H   UNL     1       8.372  11.833  18.981  0.00  0.00     0.217 HD
ENDBRANCH   2  27
BRANCH   8  29
HETATM   29  C   UNL     1       4.739  12.214  25.067  0.00  0.00     0.100 C 
BRANCH  29  30
HETATM   30  C   UNL     1       3.743  13.141  24.373  0.00  0.00    -0.052 A 
HETATM   31  C   UNL     1       2.496  12.678  23.907  0.00  0.00     0.014 A 
HETATM   32  C   UNL     1       1.559  13.537  23.314  0.00  0.00    -0.061 A 
HETATM   33  C   UNL     1       0.182  13.041  22.980  0.00  0.00     0.048 C 
HETATM   34  C   UNL     1       1.899  14.876  23.114  0.00  0.00     0.007 A 
HETATM   35  C   UNL     1       3.158  15.341  23.492  0.00  0.00     0.001 A 
HETATM   36  C   UNL     1       4.071  14.484  24.120  0.00  0.00     0.007 A 
ENDBRANCH  29  30
ENDBRANCH   8  29
TORSDOF 5
ENDMDL
MODEL 9
REMARK VINA RESULT:    -8.482      4.813      7.720
REMARK INTER + INTRA:         -11.819
REMARK INTER:                 -10.714
REMARK INTRA:                  -1.106
REMARK UNBOUND:                -1.106
REMARK  5 active torsions:
REMARK  status: ('A' for Active; 'I' for Inactive)
REMARK       I    between atoms: C_2  and  N_4 
REMARK    1  A    between atoms: C_8  and  N_9 
REMARK       I    between atoms: N_9  and  C_10 
REMARK    2  A    between atoms: C_10  and  C_12 
REMARK    3  A    between atoms: C_13  and  O_14 
REMARK    4  A    between atoms: C_20  and  C_21 
REMARK    5  A    between atoms: C_21  and  C_22 
ROOT
HETATM    1  C   UNL     1       6.154  12.205  23.462  0.00  0.00     0.066 C 
HETATM    2  C   UNL     1       5.745  13.427  22.885  0.00  0.00     0.083 C 
HETATM    3  C   UNL     1       6.558  14.153  22.011  0.00  0.00     0.069 C 
HETATM    4  C   UNL     1       7.848  13.668  21.805  0.00  0.00     0.065 C 
HETATM    5  N   UNL     1       8.873  14.119  21.026  0.00  0.00    -0.277 N 
HETATM    6  H   UNL     1       8.853  14.889  20.368  0.00  0.00     0.189 HD
HETATM    7  N   UNL     1      10.025  13.457  21.197  0.00  0.00    -0.178 NA
HETATM    8  C   UNL     1       9.743  12.547  22.142  0.00  0.00     0.071 C 
HETATM    9  C   UNL     1       8.338  12.522  22.420  0.00  0.00     0.020 C 
HETATM   10  C   UNL     1       7.441  11.722  23.154  0.00  0.00     0.035 C 
ENDROOT
BRANCH   1  11
HETATM   11  C   UNL     1       5.186  11.470  24.348  0.00  0.00     0.260 C 
HETATM   12  N   UNL     1       4.535  10.267  23.951  0.00  0.00    -0.318 N 
HETATM   13  C   UNL     1       4.977   9.551  22.755  0.00  0.00     0.159 C 
HETATM   14  O   UNL     1       5.089  11.975  25.476  0.00  0.00    -0.267 OA
BRANCH  12  15
HETATM   15  C   UNL     1       3.612   9.595  24.857  0.00  0.00     0.037 C 
HETATM   16  C   UNL     1       4.076   8.858  25.960  0.00  0.00     0.039 C 
HETATM   17  C   UNL     1       3.216   8.004  26.637  0.00  0.00    -0.027 C 
HETATM   18  C   UNL     1       1.860   7.957  26.350  0.00  0.00     0.043 C 
HETATM   19  C   UNL     1       3.605   6.931  27.603  0.00  0.00     0.061 C 
HETATM   20  N   UNL     1       1.219   7.003  27.154  0.00  0.00    -0.318 N 
HETATM   21  C   UNL     1       1.337   8.770  25.374  0.00  0.00     0.032 C 
HETATM   22  C   UNL     1      -0.139   6.720  27.154  0.00  0.00     0.220 C 
HETATM   23  C   UNL     1       2.236   6.393  28.037  0.00  0.00     0.137 C 
HETATM   24  O   UNL     1      -0.972   7.238  26.410  0.00  0.00    -0.273 OA
HETATM   25  C   UNL     1      -0.576   5.707  28.181  0.00  0.00     0.117 C 
HETATM   26  C   UNL     1       2.215   9.572  24.629  0.00  0.00     0.032 C 
ENDBRANCH  12  15
ENDBRANCH   1  11
BRANCH   2  27
HETATM   27  O   UNL     1       4.519  14.006  23.123  0.00  0.00    -0.360 OA
HETATM   28  H   UNL     1       3.979  13.360  23.633  0.00  0.00     0.217 HD
ENDBRANCH   2  27
BRANCH   8  29
HETATM   29  C   UNL     1      10.858  11.780  22.801  0.00  0.00     0.100 C 
BRANCH  29  30
HETATM   30  C   UNL     1      11.228  12.508  24.091  0.00  0.00    -0.052 A 
HETATM   31  C   UNL     1      12.149  13.575  24.105  0.00  0.00     0.014 A 
HETATM   32  C   UNL     1      12.453  14.278  25.281  0.00  0.00    -0.061 A 
HETATM   33  C   UNL     1      13.310  15.509  25.226  0.00  0.00     0.048 C 
HETATM   34  C   UNL     1      11.883  13.863  26.486  0.00  0.00     0.007 A 
HETATM   35  C   UNL     1      11.033  12.758  26.512  0.00  0.00     0.001 A 
HETATM   36  C   UNL     1      10.704  12.088  25.325  0.00  0.00     0.007 A 
ENDBRANCH  29  30
ENDBRANCH   8  29
TORSDOF 5
ENDMDL
