MODEL 1
REMARK VINA RESULT:    -6.969      0.000      0.000
REMARK INTER + INTRA:          -9.238
REMARK INTER:                  -8.179
REMARK INTRA:                  -1.059
REMARK UNBOUND:                -1.046
REMARK  4 active torsions:
REMARK  status: ('A' for Active; 'I' for Inactive)
REMARK    1  A    between atoms: O_1  and  C_2 
REMARK    2  A    between atoms: C_4  and  O_5 
REMARK    3  A    between atoms: C_6  and  C_10 
REMARK    4  A    between atoms: N_16  and  C_17 
ROOT
HETATM    1  C   UNL     1       8.244  13.468  23.544  0.00  0.00     0.172 A 
HETATM    2  N   UNL     1       9.450  13.319  24.034  0.00  0.00    -0.151 NA
HETATM    3  N   UNL     1       9.477  14.084  25.156  0.00  0.00    -0.226 N 
HETATM    4  H   UNL     1      10.227  14.035  25.832  0.00  0.00     0.194 HD
HETATM    5  C   UNL     1       8.249  14.687  25.370  0.00  0.00     0.349 A 
HETATM    6  O   UNL     1       7.951  15.327  26.366  0.00  0.00    -0.245 OA
HETATM    7  N   UNL     1       7.466  14.327  24.286  0.00  0.00    -0.241 N 
ENDROOT
BRANCH   1   8
HETATM    8  C   UNL     1       7.824  12.804  22.274  0.00  0.00     0.047 A 
HETATM    9  C   UNL     1       8.516  13.044  21.071  0.00  0.00     0.082 A 
HETATM   10  C   UNL     1       8.185  12.366  19.892  0.00  0.00     0.075 A 
HETATM   11  C   UNL     1       7.158  11.428  19.908  0.00  0.00     0.085 A 
HETATM   12  C   UNL     1       6.415  11.227  21.071  0.00  0.00     0.045 A 
HETATM   13  C   UNL     1       6.718  11.944  22.234  0.00  0.00     0.040 A 
HETATM   14 BR   UNL     1       5.013   9.950  21.141  0.00  0.00    -0.048 Br
BRANCH   9  15
HETATM   15  O   UNL     1       9.558  13.929  21.021  0.00  0.00    -0.360 OA
HETATM   16  H   UNL     1      10.287  13.627  21.587  0.00  0.00     0.217 HD
ENDBRANCH   9  15
BRANCH  11  17
HETATM   17  O   UNL     1       6.884  10.703  18.782  0.00  0.00    -0.359 OA
HETATM   18  H   UNL     1       6.159  10.081  18.962  0.00  0.00     0.217 HD
ENDBRANCH  11  17
ENDBRANCH   1   8
BRANCH   7  19
HETATM   19  C   UNL     1       6.092  14.642  24.262  0.00  0.00     0.084 A 
HETATM   20  C   UNL     1       5.116  13.812  24.818  0.00  0.00     0.143 A 
HETATM   21  F   UNL     1       5.454  12.655  25.404  0.00  0.00    -0.204 F 
HETATM   22  C   UNL     1       3.773  14.193  24.834  0.00  0.00     0.044 A 
HETATM   23  C   UNL     1       3.392  15.419  24.281  0.00  0.00     0.003 A 
HETATM   24  C   UNL     1       4.349  16.252  23.717  0.00  0.00     0.002 A 
HETATM   25  C   UNL     1       5.692  15.873  23.714  0.00  0.00     0.033 A 
ENDBRANCH   7  19
TORSDOF 4
ENDMDL
MODEL 2
REMARK VINA RESULT:    -6.795      1.001      1.431
REMARK INTER + INTRA:          -9.033
REMARK INTER:                  -8.060
REMARK INTRA:                  -0.973
REMARK UNBOUND:                -1.046
REMARK  4 active torsions:
REMARK  status: ('A' for Active; 'I' for Inactive)
REMARK    1  A    between atoms: O_1  and  C_2 
REMARK    2  A    between atoms: C_4  and  O_5 
REMARK    3  A    between atoms: C_6  and  C_10 
REMARK    4  A    between atoms: N_16  and  C_17 
ROOT
HETATM    1  C   UNL     1       8.236  13.476  23.564  0.00  0.00     0.172 A 
HETATM    2  N   UNL     1       9.457  13.383  24.027  0.00  0.00    -0.151 NA
HETATM    3  N   UNL     1       9.459  14.103  25.180  0.00  0.00    -0.226 N 
HETATM    4  H   UNL     1      10.223  14.074  25.840  0.00  0.00     0.194 HD
HETATM    5  C   UNL     1       8.201  14.619  25.438  0.00  0.00     0.349 A 
HETATM    6  O   UNL     1       7.882  15.199  26.464  0.00  0.00    -0.245 OA
HETATM    7  N   UNL     1       7.420  14.255  24.353  0.00  0.00    -0.241 N 
ENDROOT
BRANCH   1   8
HETATM    8  C   UNL     1       7.833  12.839  22.275  0.00  0.00     0.047 A 
HETATM    9  C   UNL     1       8.529  13.119  21.083  0.00  0.00     0.082 A 
HETATM   10  C   UNL     1       8.214  12.466  19.885  0.00  0.00     0.075 A 
HETATM   11  C   UNL     1       7.201  11.513  19.871  0.00  0.00     0.085 A 
HETATM   12  C   UNL     1       6.453  11.273  21.024  0.00  0.00     0.045 A 
HETATM   13  C   UNL     1       6.739  11.964  22.206  0.00  0.00     0.040 A 
HETATM   14 BR   UNL     1       5.069   9.976  21.052  0.00  0.00    -0.048 Br
BRANCH   9  15
HETATM   15  O   UNL     1       9.558  14.020  21.062  0.00  0.00    -0.360 OA
HETATM   16  H   UNL     1      10.315  13.658  20.572  0.00  0.00     0.217 HD
ENDBRANCH   9  15
BRANCH  11  17
HETATM   17  O   UNL     1       6.944  10.814  18.726  0.00  0.00    -0.359 OA
HETATM   18  H   UNL     1       6.156  10.260  18.850  0.00  0.00     0.217 HD
ENDBRANCH  11  17
ENDBRANCH   1   8
BRANCH   7  19
HETATM   19  C   UNL     1       6.029  14.485  24.365  0.00  0.00     0.084 A 
HETATM   20  C   UNL     1       5.439  15.586  23.740  0.00  0.00     0.143 A 
HETATM   21  F   UNL     1       6.190  16.490  23.095  0.00  0.00    -0.204 F 
HETATM   22  C   UNL     1       4.053  15.740  23.717  0.00  0.00     0.044 A 
HETATM   23  C   UNL     1       3.236  14.786  24.332  0.00  0.00     0.003 A 
HETATM   24  C   UNL     1       3.807  13.691  24.965  0.00  0.00     0.002 A 
HETATM   25  C   UNL     1       5.194  13.534  24.975  0.00  0.00     0.033 A 
ENDBRANCH   7  19
TORSDOF 4
ENDMDL
MODEL 3
REMARK VINA RESULT:    -6.598      3.595      5.439
REMARK INTER + INTRA:          -8.801
REMARK INTER:                  -7.811
REMARK INTRA:                  -0.990
REMARK UNBOUND:                -1.046
REMARK  4 active torsions:
REMARK  status: ('A' for Active; 'I' for Inactive)
REMARK    1  A    between atoms: O_1  and  C_2 
REMARK    2  A    between atoms: C_4  and  O_5 
REMARK    3  A    between atoms: C_6  and  C_10 
REMARK    4  A    between atoms: N_16  and  C_17 
ROOT
HETATM    1  C   UNL     1       6.466  11.389  20.269  0.00  0.00     0.172 A 
HETATM    2  N   UNL     1       6.632  11.227  18.981  0.00  0.00    -0.151 NA
HETATM    3  N   UNL     1       5.889  10.136  18.658  0.00  0.00    -0.226 N 
HETATM    4  H   UNL     1       5.695   9.872  17.702  0.00  0.00     0.194 HD
HETATM    5  C   UNL     1       5.232   9.643  19.772  0.00  0.00     0.349 A 
HETATM    6  O   UNL     1       4.401   8.748  19.752  0.00  0.00    -0.245 OA
HETATM    7  N   UNL     1       5.655  10.429  20.831  0.00  0.00    -0.241 N 
ENDROOT
BRANCH   1   8
HETATM    8  C   UNL     1       7.157  12.480  21.020  0.00  0.00     0.047 A 
HETATM    9  C   UNL     1       8.558  12.612  20.974  0.00  0.00     0.082 A 
HETATM   10  C   UNL     1       9.210  13.678  21.605  0.00  0.00     0.075 A 
HETATM   11  C   UNL     1       8.461  14.633  22.284  0.00  0.00     0.085 A 
HETATM   12  C   UNL     1       7.080  14.481  22.402  0.00  0.00     0.045 A 
HETATM   13  C   UNL     1       6.437  13.387  21.811  0.00  0.00     0.040 A 
HETATM   14 BR   UNL     1       6.017  15.764  23.310  0.00  0.00    -0.048 Br
BRANCH   9  15
HETATM   15  O   UNL     1       9.329  11.718  20.283  0.00  0.00    -0.360 OA
HETATM   16  H   UNL     1       9.057  10.808  20.486  0.00  0.00     0.217 HD
ENDBRANCH   9  15
BRANCH  11  17
HETATM   17  O   UNL     1       9.083  15.719  22.833  0.00  0.00    -0.359 OA
HETATM   18  H   UNL     1       9.856  15.431  23.344  0.00  0.00     0.217 HD
ENDBRANCH  11  17
ENDBRANCH   1   8
BRANCH   7  19
HETATM   19  C   UNL     1       5.055  10.301  22.100  0.00  0.00     0.084 A 
HETATM   20  C   UNL     1       3.945  11.052  22.491  0.00  0.00     0.143 A 
HETATM   21  F   UNL     1       3.396  11.949  21.658  0.00  0.00    -0.204 F 
HETATM   22  C   UNL     1       3.338  10.846  23.731  0.00  0.00     0.044 A 
HETATM   23  C   UNL     1       3.849   9.880  24.603  0.00  0.00     0.003 A 
HETATM   24  C   UNL     1       4.958   9.131  24.232  0.00  0.00     0.002 A 
HETATM   25  C   UNL     1       5.553   9.331  22.986  0.00  0.00     0.033 A 
ENDBRANCH   7  19
TORSDOF 4
ENDMDL
MODEL 4
REMARK VINA RESULT:    -6.591      2.308      3.403
REMARK INTER + INTRA:          -8.794
REMARK INTER:                  -7.855
REMARK INTRA:                  -0.939
REMARK UNBOUND:                -1.046
REMARK  4 active torsions:
REMARK  status: ('A' for Active; 'I' for Inactive)
REMARK    1  A    between atoms: O_1  and  C_2 
REMARK    2  A    between atoms: C_4  and  O_5 
REMARK    3  A    between atoms: C_6  and  C_10 
REMARK    4  A    between atoms: N_16  and  C_17 
ROOT
HETATM    1  C   UNL     1       7.911  12.442  20.946  0.00  0.00     0.172 A 
HETATM    2  N   UNL     1       8.855  12.322  20.046  0.00  0.00    -0.151 NA
HETATM    3  N   UNL     1       9.558  13.483  20.109  0.00  0.00    -0.226 N 
HETATM    4  H   UNL     1      10.446  13.608  19.643  0.00  0.00     0.194 HD
HETATM    5  C   UNL     1       9.048  14.314  21.091  0.00  0.00     0.349 A 
HETATM    6  O   UNL     1       9.558  15.364  21.450  0.00  0.00    -0.245 OA
HETATM    7  N   UNL     1       7.940  13.655  21.596  0.00  0.00    -0.241 N 
ENDROOT
BRANCH   1   8
HETATM    8  C   UNL     1       6.892  11.371  21.164  0.00  0.00     0.047 A 
HETATM    9  C   UNL     1       6.252  10.752  20.073  0.00  0.00     0.082 A 
HETATM   10  C   UNL     1       5.358   9.692  20.260  0.00  0.00     0.075 A 
HETATM   11  C   UNL     1       5.101   9.232  21.548  0.00  0.00     0.085 A 
HETATM   12  C   UNL     1       5.669   9.878  22.645  0.00  0.00     0.045 A 
HETATM   13  C   UNL     1       6.525  10.969  22.456  0.00  0.00     0.040 A 
HETATM   14 BR   UNL     1       5.355   9.279  24.417  0.00  0.00    -0.048 Br
BRANCH   9  15
HETATM   15  O   UNL     1       6.506  11.147  18.788  0.00  0.00    -0.360 OA
HETATM   16  H   UNL     1       6.051  10.565  18.158  0.00  0.00     0.217 HD
ENDBRANCH   9  15
BRANCH  11  17
HETATM   17  O   UNL     1       4.292   8.146  21.731  0.00  0.00    -0.359 OA
HETATM   18  H   UNL     1       4.073   7.751  20.871  0.00  0.00     0.217 HD
ENDBRANCH  11  17
ENDBRANCH   1   8
BRANCH   7  19
HETATM   19  C   UNL     1       7.269  14.152  22.732  0.00  0.00     0.084 A 
HETATM   20  C   UNL     1       7.714  13.921  24.035  0.00  0.00     0.143 A 
HETATM   21  F   UNL     1       8.819  13.196  24.263  0.00  0.00    -0.204 F 
HETATM   22  C   UNL     1       7.060  14.489  25.129  0.00  0.00     0.044 A 
HETATM   23  C   UNL     1       5.937  15.297  24.925  0.00  0.00     0.003 A 
HETATM   24  C   UNL     1       5.476  15.529  23.636  0.00  0.00     0.002 A 
HETATM   25  C   UNL     1       6.141  14.970  22.544  0.00  0.00     0.033 A 
ENDBRANCH   7  19
TORSDOF 4
ENDMDL
MODEL 5
REMARK VINA RESULT:    -6.359      3.341      5.421
REMARK INTER + INTRA:          -8.520
REMARK INTER:                  -7.655
REMARK INTRA:                  -0.865
REMARK UNBOUND:                -1.046
REMARK  4 active torsions:
REMARK  status: ('A' for Active; 'I' for Inactive)
REMARK    1  A    between atoms: O_1  and  C_2 
REMARK    2  A    between atoms: C_4  and  O_5 
REMARK    3  A    between atoms: C_6  and  C_10 
REMARK    4  A    between atoms: N_16  and  C_17 
ROOT
HETATM    1  C   UNL     1       6.308  12.473  21.230  0.00  0.00     0.172 A 
HETATM    2  N   UNL     1       6.155  11.772  20.135  0.00  0.00    -0.151 NA
HETATM    3  N   UNL     1       7.409  11.604  19.639  0.00  0.00    -0.226 N 
HETATM    4  H   UNL     1       7.616  10.962  18.887  0.00  0.00     0.194 HD
HETATM    5  C   UNL     1       8.348  12.190  20.469  0.00  0.00     0.349 A 
HETATM    6  O   UNL     1       9.557  12.087  20.336  0.00  0.00    -0.245 OA
HETATM    7  N   UNL     1       7.621  12.804  21.477  0.00  0.00    -0.241 N 
ENDROOT
BRANCH   1   8
HETATM    8  C   UNL     1       5.142  12.900  22.061  0.00  0.00     0.047 A 
HETATM    9  C   UNL     1       4.016  12.066  22.206  0.00  0.00     0.082 A 
HETATM   10  C   UNL     1       2.954  12.417  23.047  0.00  0.00     0.075 A 
HETATM   11  C   UNL     1       3.012  13.609  23.761  0.00  0.00     0.085 A 
HETATM   12  C   UNL     1       4.084  14.481  23.576  0.00  0.00     0.045 A 
HETATM   13  C   UNL     1       5.121  14.149  22.697  0.00  0.00     0.040 A 
HETATM   14 BR   UNL     1       4.209  16.113  24.538  0.00  0.00    -0.048 Br
BRANCH   9  15
HETATM   15  O   UNL     1       3.937  10.866  21.553  0.00  0.00    -0.360 OA
HETATM   16  H   UNL     1       3.395  10.239  22.060  0.00  0.00     0.217 HD
ENDBRANCH   9  15
BRANCH  11  17
HETATM   17  O   UNL     1       2.017  13.919  24.646  0.00  0.00    -0.359 OA
HETATM   18  H   UNL     1       1.435  13.151  24.767  0.00  0.00     0.217 HD
ENDBRANCH  11  17
ENDBRANCH   1   8
BRANCH   7  19
HETATM   19  C   UNL     1       8.278  13.365  22.590  0.00  0.00     0.084 A 
HETATM   20  C   UNL     1       8.792  14.664  22.590  0.00  0.00     0.143 A 
HETATM   21  F   UNL     1       8.684  15.442  21.503  0.00  0.00    -0.204 F 
HETATM   22  C   UNL     1       9.374  15.206  23.736  0.00  0.00     0.044 A 
HETATM   23  C   UNL     1       9.454  14.442  24.904  0.00  0.00     0.003 A 
HETATM   24  C   UNL     1       8.955  13.147  24.919  0.00  0.00     0.002 A 
HETATM   25  C   UNL     1       8.362  12.612  23.774  0.00  0.00     0.033 A 
ENDBRANCH   7  19
TORSDOF 4
ENDMDL
MODEL 6
REMARK VINA RESULT:    -6.229      2.871      3.966
REMARK INTER + INTRA:          -8.368
REMARK INTER:                  -7.232
REMARK INTRA:                  -1.135
REMARK UNBOUND:                -1.046
REMARK  4 active torsions:
REMARK  status: ('A' for Active; 'I' for Inactive)
REMARK    1  A    between atoms: O_1  and  C_2 
REMARK    2  A    between atoms: C_4  and  O_5 
REMARK    3  A    between atoms: C_6  and  C_10 
REMARK    4  A    between atoms: N_16  and  C_17 
ROOT
HETATM    1  C   UNL     1       4.268  13.080  23.692  0.00  0.00     0.172 A 
HETATM    2  N   UNL     1       2.988  13.138  23.962  0.00  0.00    -0.151 NA
HETATM    3  N   UNL     1       2.816  14.308  24.632  0.00  0.00    -0.226 N 
HETATM    4  H   UNL     1       1.903  14.697  24.823  0.00  0.00     0.194 HD
HETATM    5  C   UNL     1       4.014  14.991  24.744  0.00  0.00     0.349 A 
HETATM    6  O   UNL     1       4.133  16.123  25.186  0.00  0.00    -0.245 OA
HETATM    7  N   UNL     1       4.969  14.161  24.179  0.00  0.00    -0.241 N 
ENDROOT
BRANCH   1   8
HETATM    8  C   UNL     1       4.871  11.912  22.983  0.00  0.00     0.047 A 
HETATM    9  C   UNL     1       4.450  11.560  21.685  0.00  0.00     0.082 A 
HETATM   10  C   UNL     1       5.063  10.520  20.978  0.00  0.00     0.075 A 
HETATM   11  C   UNL     1       6.116   9.824  21.561  0.00  0.00     0.085 A 
HETATM   12  C   UNL     1       6.500  10.109  22.871  0.00  0.00     0.045 A 
HETATM   13  C   UNL     1       5.851  11.117  23.593  0.00  0.00     0.040 A 
HETATM   14 BR   UNL     1       7.938   9.191  23.703  0.00  0.00    -0.048 Br
BRANCH   9  15
HETATM   15  O   UNL     1       3.445  12.246  21.059  0.00  0.00    -0.360 OA
HETATM   16  H   UNL     1       3.002  12.843  21.684  0.00  0.00     0.217 HD
ENDBRANCH   9  15
BRANCH  11  17
HETATM   17  O   UNL     1       6.773   8.862  20.846  0.00  0.00    -0.359 OA
HETATM   18  H   UNL     1       6.309   8.703  20.007  0.00  0.00     0.217 HD
ENDBRANCH  11  17
ENDBRANCH   1   8
BRANCH   7  19
HETATM   19  C   UNL     1       6.287  14.619  23.981  0.00  0.00     0.084 A 
HETATM   20  C   UNL     1       7.308  14.410  24.911  0.00  0.00     0.143 A 
HETATM   21  F   UNL     1       7.067  13.755  26.056  0.00  0.00    -0.204 F 
HETATM   22  C   UNL     1       8.615  14.820  24.646  0.00  0.00     0.044 A 
HETATM   23  C   UNL     1       8.914  15.456  23.438  0.00  0.00     0.003 A 
HETATM   24  C   UNL     1       7.908  15.679  22.507  0.00  0.00     0.002 A 
HETATM   25  C   UNL     1       6.605  15.256  22.770  0.00  0.00     0.033 A 
ENDBRANCH   7  19
TORSDOF 4
ENDMDL
MODEL 7
REMARK VINA RESULT:    -6.224      1.890      2.396
REMARK INTER + INTRA:          -8.362
REMARK INTER:                  -7.260
REMARK INTRA:                  -1.102
REMARK UNBOUND:                -1.046
REMARK  4 active torsions:
REMARK  status: ('A' for Active; 'I' for Inactive)
REMARK    1  A    between atoms: O_1  and  C_2 
REMARK    2  A    between atoms: C_4  and  O_5 
REMARK    3  A    between atoms: C_6  and  C_10 
REMARK    4  A    between atoms: N_16  and  C_17 
ROOT
HETATM    1  C   UNL     1       7.808  12.304  22.604  0.00  0.00     0.172 A 
HETATM    2  N   UNL     1       9.113  12.194  22.614  0.00  0.00    -0.151 NA
HETATM    3  N   UNL     1       9.558  13.279  23.301  0.00  0.00    -0.226 N 
HETATM    4  H   UNL     1      10.516  13.374  23.609  0.00  0.00     0.194 HD
HETATM    5  C   UNL     1       8.497  14.048  23.745  0.00  0.00     0.349 A 
HETATM    6  O   UNL     1       8.597  15.010  24.492  0.00  0.00    -0.245 OA
HETATM    7  N   UNL     1       7.359  13.439  23.241  0.00  0.00    -0.241 N 
ENDROOT
BRANCH   1   8
HETATM    8  C   UNL     1       6.940  11.308  21.906  0.00  0.00     0.047 A 
HETATM    9  C   UNL     1       6.677  10.051  22.484  0.00  0.00     0.082 A 
HETATM   10  C   UNL     1       5.800   9.142  21.881  0.00  0.00     0.075 A 
HETATM   11  C   UNL     1       5.168   9.488  20.692  0.00  0.00     0.085 A 
HETATM   12  C   UNL     1       5.469  10.697  20.068  0.00  0.00     0.045 A 
HETATM   13  C   UNL     1       6.384  11.582  20.649  0.00  0.00     0.040 A 
HETATM   14 BR   UNL     1       4.622  11.214  18.450  0.00  0.00    -0.048 Br
BRANCH   9  15
HETATM   15  O   UNL     1       7.247   9.687  23.674  0.00  0.00    -0.360 OA
HETATM   16  H   UNL     1       7.302  10.451  24.271  0.00  0.00     0.217 HD
ENDBRANCH   9  15
BRANCH  11  17
HETATM   17  O   UNL     1       4.249   8.639  20.140  0.00  0.00    -0.359 OA
HETATM   18  H   UNL     1       3.372   9.058  20.144  0.00  0.00     0.217 HD
ENDBRANCH  11  17
ENDBRANCH   1   8
BRANCH   7  19
HETATM   19  C   UNL     1       6.079  13.876  23.638  0.00  0.00     0.084 A 
HETATM   20  C   UNL     1       5.319  13.212  24.603  0.00  0.00     0.143 A 
HETATM   21  F   UNL     1       5.784  12.106  25.200  0.00  0.00    -0.204 F 
HETATM   22  C   UNL     1       4.085  13.717  25.017  0.00  0.00     0.044 A 
HETATM   23  C   UNL     1       3.594  14.899  24.456  0.00  0.00     0.003 A 
HETATM   24  C   UNL     1       4.334  15.566  23.489  0.00  0.00     0.002 A 
HETATM   25  C   UNL     1       5.573  15.066  23.087  0.00  0.00     0.033 A 
ENDBRANCH   7  19
TORSDOF 4
ENDMDL
MODEL 8
REMARK VINA RESULT:    -6.154      3.265      5.065
REMARK INTER + INTRA:          -8.280
REMARK INTER:                  -7.294
REMARK INTRA:                  -0.986
REMARK UNBOUND:                -1.046
REMARK  4 active torsions:
REMARK  status: ('A' for Active; 'I' for Inactive)
REMARK    1  A    between atoms: O_1  and  C_2 
REMARK    2  A    between atoms: C_4  and  O_5 
REMARK    3  A    between atoms: C_6  and  C_10 
REMARK    4  A    between atoms: N_16  and  C_17 
ROOT
HETATM    1  C   UNL     1       6.266  11.782  22.862  0.00  0.00     0.172 A 
HETATM    2  N   UNL     1       6.142  10.484  22.988  0.00  0.00    -0.151 NA
HETATM    3  N   UNL     1       7.404   9.992  22.877  0.00  0.00    -0.226 N 
HETATM    4  H   UNL     1       7.637   9.034  23.098  0.00  0.00     0.194 HD
HETATM    5  C   UNL     1       8.319  11.017  22.711  0.00  0.00     0.349 A 
HETATM    6  O   UNL     1       9.532  10.877  22.710  0.00  0.00    -0.245 OA
HETATM    7  N   UNL     1       7.566  12.179  22.646  0.00  0.00    -0.241 N 
ENDROOT
BRANCH   1   8
HETATM    8  C   UNL     1       5.081  12.691  22.893  0.00  0.00     0.047 A 
HETATM    9  C   UNL     1       3.944  12.422  22.107  0.00  0.00     0.082 A 
HETATM   10  C   UNL     1       2.797  13.219  22.189  0.00  0.00     0.075 A 
HETATM   11  C   UNL     1       2.773  14.295  23.071  0.00  0.00     0.085 A 
HETATM   12  C   UNL     1       3.913  14.620  23.805  0.00  0.00     0.045 A 
HETATM   13  C   UNL     1       5.075  13.849  23.683  0.00  0.00     0.040 A 
HETATM   14 BR   UNL     1       3.921  16.072  25.027  0.00  0.00    -0.048 Br
BRANCH   9  15
HETATM   15  O   UNL     1       3.912  11.351  21.257  0.00  0.00    -0.360 OA
HETATM   16  H   UNL     1       3.090  11.353  20.740  0.00  0.00     0.217 HD
ENDBRANCH   9  15
BRANCH  11  17
HETATM   17  O   UNL     1       1.628  15.027  23.216  0.00  0.00    -0.359 OA
HETATM   18  H   UNL     1       1.598  15.415  24.106  0.00  0.00     0.217 HD
ENDBRANCH  11  17
ENDBRANCH   1   8
BRANCH   7  19
HETATM   19  C   UNL     1       8.197  13.439  22.639  0.00  0.00     0.084 A 
HETATM   20  C   UNL     1       8.682  14.049  23.798  0.00  0.00     0.143 A 
HETATM   21  F   UNL     1       8.558  13.449  24.991  0.00  0.00    -0.204 F 
HETATM   22  C   UNL     1       9.362  15.266  23.739  0.00  0.00     0.044 A 
HETATM   23  C   UNL     1       9.558  15.894  22.505  0.00  0.00     0.003 A 
HETATM   24  C   UNL     1       9.075  15.305  21.345  0.00  0.00     0.002 A 
HETATM   25  C   UNL     1       8.407  14.081  21.407  0.00  0.00     0.033 A 
ENDBRANCH   7  19
TORSDOF 4
ENDMDL
MODEL 9
REMARK VINA RESULT:    -6.124      3.800      6.439
REMARK INTER + INTRA:          -8.244
REMARK INTER:                  -7.198
REMARK INTRA:                  -1.046
REMARK UNBOUND:                -1.046
REMARK  4 active torsions:
REMARK  status: ('A' for Active; 'I' for Inactive)
REMARK    1  A    between atoms: O_1  and  C_2 
REMARK    2  A    between atoms: C_4  and  O_5 
REMARK    3  A    between atoms: C_6  and  C_10 
REMARK    4  A    between atoms: N_16  and  C_17 
ROOT
HETATM    1  C   UNL     1       4.932  11.608  20.680  0.00  0.00     0.172 A 
HETATM    2  N   UNL     1       4.206  11.533  19.593  0.00  0.00    -0.151 NA
HETATM    3  N   UNL     1       4.645  10.422  18.945  0.00  0.00    -0.226 N 
HETATM    4  H   UNL     1       4.156  10.022  18.157  0.00  0.00     0.194 HD
HETATM    5  C   UNL     1       5.639   9.790  19.672  0.00  0.00     0.349 A 
HETATM    6  O   UNL     1       6.126   8.706  19.391  0.00  0.00    -0.245 OA
HETATM    7  N   UNL     1       5.862  10.597  20.776  0.00  0.00    -0.241 N 
ENDROOT
BRANCH   1   8
HETATM    8  C   UNL     1       4.774  12.728  21.656  0.00  0.00     0.047 A 
HETATM    9  C   UNL     1       3.520  13.013  22.230  0.00  0.00     0.082 A 
HETATM   10  C   UNL     1       3.376  14.005  23.207  0.00  0.00     0.075 A 
HETATM   11  C   UNL     1       4.492  14.719  23.628  0.00  0.00     0.085 A 
HETATM   12  C   UNL     1       5.729  14.501  23.021  0.00  0.00     0.045 A 
HETATM   13  C   UNL     1       5.859  13.542  22.010  0.00  0.00     0.040 A 
HETATM   14 BR   UNL     1       7.280  15.445  23.571  0.00  0.00    -0.048 Br
BRANCH   9  15
HETATM   15  O   UNL     1       2.404  12.307  21.874  0.00  0.00    -0.360 OA
HETATM   16  H   UNL     1       1.941  11.984  22.664  0.00  0.00     0.217 HD
ENDBRANCH   9  15
BRANCH  11  17
HETATM   17  O   UNL     1       4.373  15.631  24.639  0.00  0.00    -0.359 OA
HETATM   18  H   UNL     1       3.562  15.456  25.144  0.00  0.00     0.217 HD
ENDBRANCH  11  17
ENDBRANCH   1   8
BRANCH   7  19
HETATM   19  C   UNL     1       6.709  10.166  21.817  0.00  0.00     0.084 A 
HETATM   20  C   UNL     1       7.993  10.680  22.010  0.00  0.00     0.143 A 
HETATM   21  F   UNL     1       8.483  11.622  21.192  0.00  0.00    -0.204 F 
HETATM   22  C   UNL     1       8.773  10.276  23.094  0.00  0.00     0.044 A 
HETATM   23  C   UNL     1       8.271   9.336  23.999  0.00  0.00     0.003 A 
HETATM   24  C   UNL     1       7.000   8.808  23.816  0.00  0.00     0.002 A 
HETATM   25  C   UNL     1       6.218   9.225  22.738  0.00  0.00     0.033 A 
ENDBRANCH   7  19
TORSDOF 4
ENDMDL
