MODEL 1
REMARK VINA RESULT:   -11.085      0.000      0.000
REMARK INTER + INTRA:         -13.358
REMARK INTER:                 -12.507
REMARK INTRA:                  -0.851
REMARK UNBOUND:                -0.329
REMARK  3 active torsions:
REMARK  status: ('A' for Active; 'I' for Inactive)
REMARK    1  A    between atoms: C_9  and  C_11 
REMARK    2  A    between atoms: C_23  and  N_24 
REMARK       I    between atoms: N_24  and  C_25 
REMARK    3  A    between atoms: C_25  and  C_27 
ROOT
HETATM    1  C   UNL     1       3.596   7.219  24.542  0.00  0.00     0.022 A 
HETATM    2  C   UNL     1       4.897   6.664  24.469  0.00  0.00     0.016 A 
HETATM    3  C   UNL     1       6.010   7.401  24.039  0.00  0.00     0.002 A 
HETATM    4  C   UNL     1       5.865   8.731  23.682  0.00  0.00     0.010 A 
HETATM    5  C   UNL     1       3.433   8.545  24.107  0.00  0.00    -0.003 A 
HETATM    6  C   UNL     1       4.594   9.284  23.732  0.00  0.00    -0.019 A 
HETATM    7  C   UNL     1       2.282   9.454  23.970  0.00  0.00    -0.016 A 
HETATM    8  C   UNL     1       2.754  10.750  23.656  0.00  0.00    -0.020 A 
HETATM    9  C   UNL     1       1.907  11.848  23.536  0.00  0.00     0.010 A 
HETATM   10  C   UNL     1       0.544  11.657  23.726  0.00  0.00     0.001 A 
HETATM   11  C   UNL     1       0.045  10.370  23.952  0.00  0.00     0.001 A 
HETATM   12  C   UNL     1       0.908   9.266  24.030  0.00  0.00     0.013 A 
HETATM   13  C   UNL     1       4.253  10.731  23.416  0.00  0.00     0.153 A 
ENDROOT
BRANCH  13  14
HETATM   14  N   UNL     1       4.919  11.655  24.293  0.00  0.00    -0.344 N 
HETATM   15  C   UNL     1       6.129  12.220  23.972  0.00  0.00     0.253 C 
HETATM   16  O   UNL     1       6.776  11.930  22.976  0.00  0.00    -0.268 OA
HETATM   17  H   UNL     1       4.561  11.745  25.233  0.00  0.00     0.163 HD
BRANCH  15  18
HETATM   18  C   UNL     1       6.653  13.220  24.928  0.00  0.00     0.047 A 
HETATM   19  C   UNL     1       8.029  13.266  25.183  0.00  0.00     0.037 A 
HETATM   20  C   UNL     1       8.511  14.231  26.053  0.00  0.00     0.120 A 
HETATM   21  N   UNL     1       7.764  15.161  26.690  0.00  0.00    -0.242 NA
HETATM   22  C   UNL     1       6.456  15.088  26.391  0.00  0.00     0.138 A 
HETATM   23  C   UNL     1       5.826  14.180  25.546  0.00  0.00     0.027 A 
HETATM   24  N   UNL     1       5.509  15.944  26.883  0.00  0.00    -0.350 N 
HETATM   25  C   UNL     1       4.447  14.542  25.531  0.00  0.00     0.033 A 
HETATM   26  C   UNL     1       4.281  15.628  26.365  0.00  0.00     0.090 A 
HETATM   27  H   UNL     1       5.717  16.705  27.513  0.00  0.00     0.166 HD
ENDBRANCH  15  18
ENDBRANCH  13  14
BRANCH   1  28
HETATM   28  C   UNL     1       2.550   6.361  25.115  0.00  0.00     0.140 C 
HETATM   29  N   UNL     1       1.768   6.713  26.185  0.00  0.00    -0.337 N 
HETATM   30  C   UNL     1       0.761   5.798  26.313  0.00  0.00     0.080 A 
HETATM   31  H   UNL     1       1.876   7.553  26.732  0.00  0.00     0.167 HD
HETATM   32  C   UNL     1      -0.409   5.778  27.046  0.00  0.00     0.148 A 
HETATM   33  C   UNL     1       1.166   4.745  25.511  0.00  0.00     0.088 A 
HETATM   34  N   UNL     1      -1.149   4.646  27.036  0.00  0.00    -0.271 NA
HETATM   35  C   UNL     1      -0.709   3.579  26.325  0.00  0.00     0.118 A 
HETATM   36  C   UNL     1       0.434   3.559  25.537  0.00  0.00     0.053 A 
HETATM   37  N   UNL     1       2.280   5.103  24.780  0.00  0.00    -0.228 NA
ENDBRANCH   1  28
TORSDOF 3
ENDMDL
MODEL 2
REMARK VINA RESULT:    -9.447      4.640      8.229
REMARK INTER + INTRA:         -11.432
REMARK INTER:                 -10.423
REMARK INTRA:                  -1.009
REMARK UNBOUND:                -0.329
REMARK  3 active torsions:
REMARK  status: ('A' for Active; 'I' for Inactive)
REMARK    1  A    between atoms: C_9  and  C_11 
REMARK    2  A    between atoms: C_23  and  N_24 
REMARK       I    between atoms: N_24  and  C_25 
REMARK    3  A    between atoms: C_25  and  C_27 
ROOT
HETATM    1  C   UNL     1       0.626   7.859  26.188  0.00  0.00     0.022 A 
HETATM    2  C   UNL     1      -0.398   7.391  27.048  0.00  0.00     0.016 A 
HETATM    3  C   UNL     1      -0.231   6.281  27.887  0.00  0.00     0.002 A 
HETATM    4  C   UNL     1       0.977   5.604  27.911  0.00  0.00     0.010 A 
HETATM    5  C   UNL     1       1.826   7.128  26.154  0.00  0.00    -0.003 A 
HETATM    6  C   UNL     1       1.984   6.039  27.063  0.00  0.00    -0.019 A 
HETATM    7  C   UNL     1       3.079   7.234  25.389  0.00  0.00    -0.016 A 
HETATM    8  C   UNL     1       4.021   6.323  25.920  0.00  0.00    -0.020 A 
HETATM    9  C   UNL     1       5.331   6.241  25.454  0.00  0.00     0.010 A 
HETATM   10  C   UNL     1       5.720   7.085  24.421  0.00  0.00     0.001 A 
HETATM   11  C   UNL     1       4.783   7.933  23.823  0.00  0.00     0.001 A 
HETATM   12  C   UNL     1       3.456   7.975  24.276  0.00  0.00     0.013 A 
HETATM   13  C   UNL     1       3.381   5.447  26.981  0.00  0.00     0.153 A 
ENDROOT
BRANCH  13  14
HETATM   14  N   UNL     1       4.094   5.552  28.225  0.00  0.00    -0.344 N 
HETATM   15  C   UNL     1       4.194   4.498  29.099  0.00  0.00     0.253 C 
HETATM   16  O   UNL     1       3.627   3.425  28.943  0.00  0.00    -0.268 OA
HETATM   17  H   UNL     1       4.371   6.476  28.525  0.00  0.00     0.163 HD
BRANCH  15  18
HETATM   18  C   UNL     1       5.032   4.724  30.296  0.00  0.00     0.047 A 
HETATM   19  C   UNL     1       4.428   5.169  31.478  0.00  0.00     0.037 A 
HETATM   20  C   UNL     1       5.218   5.343  32.604  0.00  0.00     0.120 A 
HETATM   21  N   UNL     1       6.548   5.110  32.676  0.00  0.00    -0.242 NA
HETATM   22  C   UNL     1       7.072   4.660  31.522  0.00  0.00     0.138 A 
HETATM   23  C   UNL     1       6.413   4.442  30.317  0.00  0.00     0.027 A 
HETATM   24  N   UNL     1       8.388   4.321  31.359  0.00  0.00    -0.350 N 
HETATM   25  C   UNL     1       7.392   3.929  29.416  0.00  0.00     0.033 A 
HETATM   26  C   UNL     1       8.598   3.869  30.083  0.00  0.00     0.090 A 
HETATM   27  H   UNL     1       9.074   4.380  32.096  0.00  0.00     0.166 HD
ENDBRANCH  15  18
ENDBRANCH  13  14
BRANCH   1  28
HETATM   28  C   UNL     1       0.345   9.099  25.450  0.00  0.00     0.140 C 
HETATM   29  N   UNL     1      -0.736   9.274  24.627  0.00  0.00    -0.337 N 
HETATM   30  C   UNL     1      -0.818  10.595  24.285  0.00  0.00     0.080 A 
HETATM   31  H   UNL     1      -1.404   8.559  24.384  0.00  0.00     0.167 HD
HETATM   32  C   UNL     1      -1.802  11.357  23.686  0.00  0.00     0.148 A 
HETATM   33  C   UNL     1       0.413  11.109  24.655  0.00  0.00     0.088 A 
HETATM   34  N   UNL     1      -1.516  12.642  23.379  0.00  0.00    -0.271 NA
HETATM   35  C   UNL     1      -0.279  13.125  23.656  0.00  0.00     0.118 A 
HETATM   36  C   UNL     1       0.731  12.418  24.296  0.00  0.00     0.053 A 
HETATM   37  N   UNL     1       1.127  10.170  25.369  0.00  0.00    -0.228 NA
ENDBRANCH   1  28
TORSDOF 3
ENDMDL
MODEL 3
REMARK VINA RESULT:    -9.292      1.527      2.352
REMARK INTER + INTRA:         -11.250
REMARK INTER:                 -11.075
REMARK INTRA:                  -0.175
REMARK UNBOUND:                -0.329
REMARK  3 active torsions:
REMARK  status: ('A' for Active; 'I' for Inactive)
REMARK    1  A    between atoms: C_9  and  C_11 
REMARK    2  A    between atoms: C_23  and  N_24 
REMARK       I    between atoms: N_24  and  C_25 
REMARK    3  A    between atoms: C_25  and  C_27 
ROOT
HETATM    1  C   UNL     1       3.140   7.900  23.925  0.00  0.00     0.022 A 
HETATM    2  C   UNL     1       4.323   7.702  23.173  0.00  0.00     0.016 A 
HETATM    3  C   UNL     1       4.899   8.712  22.390  0.00  0.00     0.002 A 
HETATM    4  C   UNL     1       4.321   9.969  22.344  0.00  0.00     0.010 A 
HETATM    5  C   UNL     1       2.508   9.152  23.819  0.00  0.00    -0.003 A 
HETATM    6  C   UNL     1       3.153  10.175  23.061  0.00  0.00    -0.019 A 
HETATM    7  C   UNL     1       1.275   9.737  24.370  0.00  0.00    -0.016 A 
HETATM    8  C   UNL     1       1.247  11.119  24.069  0.00  0.00    -0.020 A 
HETATM    9  C   UNL     1       0.238  11.965  24.523  0.00  0.00     0.010 A 
HETATM   10  C   UNL     1      -0.783  11.424  25.295  0.00  0.00     0.001 A 
HETATM   11  C   UNL     1      -0.822  10.047  25.533  0.00  0.00     0.001 A 
HETATM   12  C   UNL     1       0.180   9.200  25.034  0.00  0.00     0.013 A 
HETATM   13  C   UNL     1       2.403  11.493  23.160  0.00  0.00     0.153 A 
ENDROOT
BRANCH  13  14
HETATM   14  N   UNL     1       3.199  12.533  23.752  0.00  0.00    -0.344 N 
HETATM   15  C   UNL     1       4.039  12.293  24.812  0.00  0.00     0.253 C 
HETATM   16  O   UNL     1       4.119  11.218  25.390  0.00  0.00    -0.268 OA
HETATM   17  H   UNL     1       2.995  13.485  23.484  0.00  0.00     0.163 HD
BRANCH  15  18
HETATM   18  C   UNL     1       4.863  13.437  25.260  0.00  0.00     0.047 A 
HETATM   19  C   UNL     1       4.235  14.540  25.851  0.00  0.00     0.037 A 
HETATM   20  C   UNL     1       5.021  15.590  26.299  0.00  0.00     0.120 A 
HETATM   21  N   UNL     1       6.370  15.650  26.228  0.00  0.00    -0.242 NA
HETATM   22  C   UNL     1       6.922  14.556  25.676  0.00  0.00     0.138 A 
HETATM   23  C   UNL     1       6.270  13.432  25.179  0.00  0.00     0.027 A 
HETATM   24  N   UNL     1       8.270  14.369  25.530  0.00  0.00    -0.350 N 
HETATM   25  C   UNL     1       7.293  12.540  24.742  0.00  0.00     0.033 A 
HETATM   26  C   UNL     1       8.512  13.144  24.966  0.00  0.00     0.090 A 
HETATM   27  H   UNL     1       8.962  15.041  25.826  0.00  0.00     0.166 HD
ENDBRANCH  15  18
ENDBRANCH  13  14
BRANCH   1  28
HETATM   28  C   UNL     1       2.715   6.786  24.784  0.00  0.00     0.140 C 
HETATM   29  N   UNL     1       3.439   6.320  25.851  0.00  0.00    -0.337 N 
HETATM   30  C   UNL     1       2.663   5.445  26.559  0.00  0.00     0.080 A 
HETATM   31  H   UNL     1       4.361   6.636  26.110  0.00  0.00     0.167 HD
HETATM   32  C   UNL     1       2.789   4.869  27.807  0.00  0.00     0.148 A 
HETATM   33  C   UNL     1       1.611   5.169  25.704  0.00  0.00     0.088 A 
HETATM   34  N   UNL     1       1.882   3.936  28.173  0.00  0.00    -0.271 NA
HETATM   35  C   UNL     1       0.901   3.594  27.302  0.00  0.00     0.118 A 
HETATM   36  C   UNL     1       0.702   4.172  26.055  0.00  0.00     0.053 A 
HETATM   37  N   UNL     1       1.658   6.001  24.604  0.00  0.00    -0.228 NA
ENDBRANCH   1  28
TORSDOF 3
ENDMDL
MODEL 4
REMARK VINA RESULT:    -9.278      1.924      8.829
REMARK INTER + INTRA:         -11.234
REMARK INTER:                 -10.867
REMARK INTRA:                  -0.367
REMARK UNBOUND:                -0.329
REMARK  3 active torsions:
REMARK  status: ('A' for Active; 'I' for Inactive)
REMARK    1  A    between atoms: C_9  and  C_11 
REMARK    2  A    between atoms: C_23  and  N_24 
REMARK       I    between atoms: N_24  and  C_25 
REMARK    3  A    between atoms: C_25  and  C_27 
ROOT
HETATM    1  C   UNL     1       3.533  12.505  24.428  0.00  0.00     0.022 A 
HETATM    2  C   UNL     1       2.321  13.237  24.418  0.00  0.00     0.016 A 
HETATM    3  C   UNL     1       1.089  12.654  24.088  0.00  0.00     0.002 A 
HETATM    4  C   UNL     1       1.021  11.308  23.772  0.00  0.00     0.010 A 
HETATM    5  C   UNL     1       3.478  11.157  24.034  0.00  0.00    -0.003 A 
HETATM    6  C   UNL     1       2.201  10.581  23.762  0.00  0.00    -0.019 A 
HETATM    7  C   UNL     1       4.478  10.090  23.858  0.00  0.00    -0.016 A 
HETATM    8  C   UNL     1       3.808   8.867  23.624  0.00  0.00    -0.020 A 
HETATM    9  C   UNL     1       4.482   7.655  23.492  0.00  0.00     0.010 A 
HETATM   10  C   UNL     1       5.869   7.656  23.587  0.00  0.00     0.001 A 
HETATM   11  C   UNL     1       6.558   8.864  23.733  0.00  0.00     0.001 A 
HETATM   12  C   UNL     1       5.866  10.082  23.823  0.00  0.00     0.013 A 
HETATM   13  C   UNL     1       2.314   9.092  23.479  0.00  0.00     0.153 A 
ENDROOT
BRANCH  13  14
HETATM   14  N   UNL     1       1.586   8.297  24.431  0.00  0.00    -0.344 N 
HETATM   15  C   UNL     1       1.121   7.041  24.127  0.00  0.00     0.253 C 
HETATM   16  O   UNL     1       1.207   6.531  23.019  0.00  0.00    -0.268 OA
HETATM   17  H   UNL     1       1.269   8.755  25.273  0.00  0.00     0.163 HD
BRANCH  15  18
HETATM   18  C   UNL     1       0.468   6.306  25.231  0.00  0.00     0.047 A 
HETATM   19  C   UNL     1      -0.003   5.008  25.003  0.00  0.00     0.037 A 
HETATM   20  C   UNL     1      -0.581   4.316  26.056  0.00  0.00     0.120 A 
HETATM   21  N   UNL     1      -0.730   4.781  27.316  0.00  0.00    -0.242 NA
HETATM   22  C   UNL     1      -0.239   6.021  27.487  0.00  0.00     0.138 A 
HETATM   23  C   UNL     1       0.361   6.836  26.533  0.00  0.00     0.027 A 
HETATM   24  N   UNL     1      -0.241   6.688  28.682  0.00  0.00    -0.350 N 
HETATM   25  C   UNL     1       0.745   8.029  27.215  0.00  0.00     0.033 A 
HETATM   26  C   UNL     1       0.358   7.910  28.534  0.00  0.00     0.090 A 
HETATM   27  H   UNL     1      -0.613   6.301  29.536  0.00  0.00     0.166 HD
ENDBRANCH  15  18
ENDBRANCH  13  14
BRANCH   1  28
HETATM   28  C   UNL     1       4.726  13.221  24.901  0.00  0.00     0.140 C 
HETATM   29  N   UNL     1       4.713  14.158  25.901  0.00  0.00    -0.337 N 
HETATM   30  C   UNL     1       6.003  14.454  26.242  0.00  0.00     0.080 A 
HETATM   31  H   UNL     1       3.886  14.507  26.361  0.00  0.00     0.167 HD
HETATM   32  C   UNL     1       6.568  15.134  27.304  0.00  0.00     0.148 A 
HETATM   33  C   UNL     1       6.750  13.922  25.206  0.00  0.00     0.088 A 
HETATM   34  N   UNL     1       7.901  15.353  27.284  0.00  0.00    -0.271 NA
HETATM   35  C   UNL     1       8.625  14.914  26.225  0.00  0.00     0.118 A 
HETATM   36  C   UNL     1       8.118  14.189  25.155  0.00  0.00     0.053 A 
HETATM   37  N   UNL     1       5.946  13.167  24.377  0.00  0.00    -0.228 NA
ENDBRANCH   1  28
TORSDOF 3
ENDMDL
MODEL 5
REMARK VINA RESULT:    -9.012      4.294      7.835
REMARK INTER + INTRA:         -10.921
REMARK INTER:                  -9.987
REMARK INTRA:                  -0.934
REMARK UNBOUND:                -0.329
REMARK  3 active torsions:
REMARK  status: ('A' for Active; 'I' for Inactive)
REMARK    1  A    between atoms: C_9  and  C_11 
REMARK    2  A    between atoms: C_23  and  N_24 
REMARK       I    between atoms: N_24  and  C_25 
REMARK    3  A    between atoms: C_25  and  C_27 
ROOT
HETATM    1  C   UNL     1       0.660   7.788  25.856  0.00  0.00     0.022 A 
HETATM    2  C   UNL     1      -0.346   7.235  26.685  0.00  0.00     0.016 A 
HETATM    3  C   UNL     1      -0.149   6.067  27.436  0.00  0.00     0.002 A 
HETATM    4  C   UNL     1       1.072   5.416  27.398  0.00  0.00     0.010 A 
HETATM    5  C   UNL     1       1.875   7.087  25.757  0.00  0.00    -0.003 A 
HETATM    6  C   UNL     1       2.062   5.935  26.578  0.00  0.00    -0.019 A 
HETATM    7  C   UNL     1       3.118   7.276  24.991  0.00  0.00    -0.016 A 
HETATM    8  C   UNL     1       4.083   6.346  25.444  0.00  0.00    -0.020 A 
HETATM    9  C   UNL     1       5.390   6.327  24.963  0.00  0.00     0.010 A 
HETATM   10  C   UNL     1       5.752   7.255  23.994  0.00  0.00     0.001 A 
HETATM   11  C   UNL     1       4.793   8.127  23.470  0.00  0.00     0.001 A 
HETATM   12  C   UNL     1       3.470   8.107  23.936  0.00  0.00     0.013 A 
HETATM   13  C   UNL     1       3.470   5.379  26.440  0.00  0.00     0.153 A 
ENDROOT
BRANCH  13  14
HETATM   14  N   UNL     1       4.193   5.403  27.683  0.00  0.00    -0.344 N 
HETATM   15  C   UNL     1       5.062   4.402  28.040  0.00  0.00     0.253 C 
HETATM   16  O   UNL     1       5.232   3.381  27.389  0.00  0.00    -0.268 OA
HETATM   17  H   UNL     1       3.912   6.088  28.370  0.00  0.00     0.163 HD
BRANCH  15  18
HETATM   18  C   UNL     1       5.801   4.605  29.305  0.00  0.00     0.047 A 
HETATM   19  C   UNL     1       7.198   4.512  29.302  0.00  0.00     0.037 A 
HETATM   20  C   UNL     1       7.881   4.739  30.486  0.00  0.00     0.120 A 
HETATM   21  N   UNL     1       7.317   5.059  31.672  0.00  0.00    -0.242 NA
HETATM   22  C   UNL     1       5.978   5.160  31.613  0.00  0.00     0.138 A 
HETATM   23  C   UNL     1       5.157   4.958  30.508  0.00  0.00     0.027 A 
HETATM   24  N   UNL     1       5.188   5.508  32.676  0.00  0.00    -0.350 N 
HETATM   25  C   UNL     1       3.827   5.224  30.947  0.00  0.00     0.033 A 
HETATM   26  C   UNL     1       3.876   5.555  32.285  0.00  0.00     0.090 A 
HETATM   27  H   UNL     1       5.550   5.718  33.594  0.00  0.00     0.166 HD
ENDBRANCH  15  18
ENDBRANCH  13  14
BRANCH   1  28
HETATM   28  C   UNL     1       0.349   9.074  25.217  0.00  0.00     0.140 C 
HETATM   29  N   UNL     1      -0.754   9.296  24.434  0.00  0.00    -0.337 N 
HETATM   30  C   UNL     1      -0.858  10.637  24.192  0.00  0.00     0.080 A 
HETATM   31  H   UNL     1      -1.420   8.592  24.156  0.00  0.00     0.167 HD
HETATM   32  C   UNL     1      -1.865  11.428  23.674  0.00  0.00     0.148 A 
HETATM   33  C   UNL     1       0.375  11.138  24.570  0.00  0.00     0.088 A 
HETATM   34  N   UNL     1      -1.600  12.735  23.455  0.00  0.00    -0.271 NA
HETATM   35  C   UNL     1      -0.363  13.212  23.738  0.00  0.00     0.118 A 
HETATM   36  C   UNL     1       0.670  12.474  24.300  0.00  0.00     0.053 A 
HETATM   37  N   UNL     1       1.117  10.159  25.196  0.00  0.00    -0.228 NA
ENDBRANCH   1  28
TORSDOF 3
ENDMDL
MODEL 6
REMARK VINA RESULT:    -8.914      4.947      7.951
REMARK INTER + INTRA:         -10.806
REMARK INTER:                  -9.784
REMARK INTRA:                  -1.022
REMARK UNBOUND:                -0.329
REMARK  3 active torsions:
REMARK  status: ('A' for Active; 'I' for Inactive)
REMARK    1  A    between atoms: C_9  and  C_11 
REMARK    2  A    between atoms: C_23  and  N_24 
REMARK       I    between atoms: N_24  and  C_25 
REMARK    3  A    between atoms: C_25  and  C_27 
ROOT
HETATM    1  C   UNL     1      -0.108   9.030  26.042  0.00  0.00     0.022 A 
HETATM    2  C   UNL     1      -0.443   9.479  27.342  0.00  0.00     0.016 A 
HETATM    3  C   UNL     1      -0.233   8.700  28.489  0.00  0.00     0.002 A 
HETATM    4  C   UNL     1       0.339   7.444  28.379  0.00  0.00     0.010 A 
HETATM    5  C   UNL     1       0.402   7.726  25.920  0.00  0.00    -0.003 A 
HETATM    6  C   UNL     1       0.658   6.983  27.111  0.00  0.00    -0.019 A 
HETATM    7  C   UNL     1       0.813   6.879  24.788  0.00  0.00    -0.016 A 
HETATM    8  C   UNL     1       1.432   5.710  25.289  0.00  0.00    -0.020 A 
HETATM    9  C   UNL     1       1.996   4.745  24.458  0.00  0.00     0.010 A 
HETATM   10  C   UNL     1       1.938   4.939  23.083  0.00  0.00     0.001 A 
HETATM   11  C   UNL     1       1.256   6.043  22.563  0.00  0.00     0.001 A 
HETATM   12  C   UNL     1       0.657   6.986  23.412  0.00  0.00     0.013 A 
HETATM   13  C   UNL     1       1.324   5.652  26.802  0.00  0.00     0.153 A 
ENDROOT
BRANCH  13  14
HETATM   14  N   UNL     1       2.627   5.541  27.400  0.00  0.00    -0.344 N 
HETATM   15  C   UNL     1       3.044   4.393  28.029  0.00  0.00     0.253 C 
HETATM   16  O   UNL     1       2.331   3.416  28.209  0.00  0.00    -0.268 OA
HETATM   17  H   UNL     1       3.166   6.389  27.501  0.00  0.00     0.163 HD
BRANCH  15  18
HETATM   18  C   UNL     1       4.439   4.392  28.519  0.00  0.00     0.047 A 
HETATM   19  C   UNL     1       5.238   3.263  28.302  0.00  0.00     0.037 A 
HETATM   20  C   UNL     1       6.555   3.288  28.733  0.00  0.00     0.120 A 
HETATM   21  N   UNL     1       7.161   4.326  29.352  0.00  0.00    -0.242 NA
HETATM   22  C   UNL     1       6.358   5.392  29.513  0.00  0.00     0.138 A 
HETATM   23  C   UNL     1       5.024   5.515  29.139  0.00  0.00     0.027 A 
HETATM   24  N   UNL     1       6.756   6.573  30.078  0.00  0.00    -0.350 N 
HETATM   25  C   UNL     1       4.635   6.842  29.486  0.00  0.00     0.033 A 
HETATM   26  C   UNL     1       5.719   7.468  30.066  0.00  0.00     0.090 A 
HETATM   27  H   UNL     1       7.689   6.740  30.422  0.00  0.00     0.166 HD
ENDBRANCH  15  18
ENDBRANCH  13  14
BRANCH   1  28
HETATM   28  C   UNL     1      -0.281   9.998  24.950  0.00  0.00     0.140 C 
HETATM   29  N   UNL     1      -1.464  10.205  24.288  0.00  0.00    -0.337 N 
HETATM   30  C   UNL     1      -1.337  11.315  23.501  0.00  0.00     0.080 A 
HETATM   31  H   UNL     1      -2.308   9.673  24.426  0.00  0.00     0.167 HD
HETATM   32  C   UNL     1      -2.248  12.096  22.815  0.00  0.00     0.148 A 
HETATM   33  C   UNL     1       0.027  11.546  23.470  0.00  0.00     0.088 A 
HETATM   34  N   UNL     1      -1.772  13.079  22.019  0.00  0.00    -0.271 NA
HETATM   35  C   UNL     1      -0.431  13.250  21.914  0.00  0.00     0.118 A 
HETATM   36  C   UNL     1       0.526  12.525  22.612  0.00  0.00     0.053 A 
HETATM   37  N   UNL     1       0.671  10.718  24.366  0.00  0.00    -0.228 NA
ENDBRANCH   1  28
TORSDOF 3
ENDMDL
MODEL 7
REMARK VINA RESULT:    -8.736      3.660      6.012
REMARK INTER + INTRA:         -10.596
REMARK INTER:                 -10.355
REMARK INTRA:                  -0.241
REMARK UNBOUND:                -0.329
REMARK  3 active torsions:
REMARK  status: ('A' for Active; 'I' for Inactive)
REMARK    1  A    between atoms: C_9  and  C_11 
REMARK    2  A    between atoms: C_23  and  N_24 
REMARK       I    between atoms: N_24  and  C_25 
REMARK    3  A    between atoms: C_25  and  C_27 
ROOT
HETATM    1  C   UNL     1       4.651   6.217  26.055  0.00  0.00     0.022 A 
HETATM    2  C   UNL     1       5.658   6.555  25.119  0.00  0.00     0.016 A 
HETATM    3  C   UNL     1       5.367   7.079  23.851  0.00  0.00     0.002 A 
HETATM    4  C   UNL     1       4.052   7.301  23.478  0.00  0.00     0.010 A 
HETATM    5  C   UNL     1       3.313   6.370  25.650  0.00  0.00    -0.003 A 
HETATM    6  C   UNL     1       3.053   6.960  24.377  0.00  0.00    -0.019 A 
HETATM    7  C   UNL     1       2.007   6.094  26.271  0.00  0.00    -0.016 A 
HETATM    8  C   UNL     1       0.986   6.633  25.454  0.00  0.00    -0.020 A 
HETATM    9  C   UNL     1      -0.359   6.598  25.813  0.00  0.00     0.010 A 
HETATM   10  C   UNL     1      -0.707   6.002  27.019  0.00  0.00     0.001 A 
HETATM   11  C   UNL     1       0.275   5.386  27.802  0.00  0.00     0.001 A 
HETATM   12  C   UNL     1       1.621   5.394  27.406  0.00  0.00     0.013 A 
HETATM   13  C   UNL     1       1.564   7.167  24.156  0.00  0.00     0.153 A 
ENDROOT
BRANCH  13  14
HETATM   14  N   UNL     1       1.224   8.553  23.981  0.00  0.00    -0.344 N 
HETATM   15  C   UNL     1       1.520   9.501  24.931  0.00  0.00     0.253 C 
HETATM   16  O   UNL     1       2.008   9.244  26.022  0.00  0.00    -0.268 OA
HETATM   17  H   UNL     1       0.604   8.788  23.220  0.00  0.00     0.163 HD
BRANCH  15  18
HETATM   18  C   UNL     1       1.192  10.899  24.577  0.00  0.00     0.047 A 
HETATM   19  C   UNL     1       2.223  11.841  24.490  0.00  0.00     0.037 A 
HETATM   20  C   UNL     1       1.907  13.139  24.122  0.00  0.00     0.120 A 
HETATM   21  N   UNL     1       0.670  13.595  23.824  0.00  0.00    -0.242 NA
HETATM   22  C   UNL     1      -0.278  12.644  23.898  0.00  0.00     0.138 A 
HETATM   23  C   UNL     1      -0.118  11.309  24.254  0.00  0.00     0.027 A 
HETATM   24  N   UNL     1      -1.598  12.855  23.606  0.00  0.00    -0.350 N 
HETATM   25  C   UNL     1      -1.407  10.710  24.141  0.00  0.00     0.033 A 
HETATM   26  C   UNL     1      -2.298  11.686  23.745  0.00  0.00     0.090 A 
HETATM   27  H   UNL     1      -1.969  13.745  23.308  0.00  0.00     0.166 HD
ENDBRANCH  15  18
ENDBRANCH  13  14
BRANCH   1  28
HETATM   28  C   UNL     1       5.109   5.784  27.383  0.00  0.00     0.140 C 
HETATM   29  N   UNL     1       5.797   4.622  27.616  0.00  0.00    -0.337 N 
HETATM   30  C   UNL     1       6.262   4.638  28.901  0.00  0.00     0.080 A 
HETATM   31  H   UNL     1       5.995   3.914  26.926  0.00  0.00     0.167 HD
HETATM   32  C   UNL     1       7.179   3.863  29.584  0.00  0.00     0.148 A 
HETATM   33  C   UNL     1       5.555   5.668  29.496  0.00  0.00     0.088 A 
HETATM   34  N   UNL     1       7.330   4.074  30.911  0.00  0.00    -0.271 NA
HETATM   35  C   UNL     1       6.572   5.022  31.517  0.00  0.00     0.118 A 
HETATM   36  C   UNL     1       5.670   5.857  30.873  0.00  0.00     0.053 A 
HETATM   37  N   UNL     1       4.838   6.366  28.547  0.00  0.00    -0.228 NA
ENDBRANCH   1  28
TORSDOF 3
ENDMDL
MODEL 8
REMARK VINA RESULT:    -8.698      3.987      5.852
REMARK INTER + INTRA:         -10.552
REMARK INTER:                  -9.775
REMARK INTRA:                  -0.777
REMARK UNBOUND:                -0.329
REMARK  3 active torsions:
REMARK  status: ('A' for Active; 'I' for Inactive)
REMARK    1  A    between atoms: C_9  and  C_11 
REMARK    2  A    between atoms: C_23  and  N_24 
REMARK       I    between atoms: N_24  and  C_25 
REMARK    3  A    between atoms: C_25  and  C_27 
ROOT
HETATM    1  C   UNL     1       4.975   5.895  26.790  0.00  0.00     0.022 A 
HETATM    2  C   UNL     1       5.704   5.799  25.579  0.00  0.00     0.016 A 
HETATM    3  C   UNL     1       5.219   6.301  24.363  0.00  0.00     0.002 A 
HETATM    4  C   UNL     1       3.989   6.935  24.316  0.00  0.00     0.010 A 
HETATM    5  C   UNL     1       3.694   6.469  26.730  0.00  0.00    -0.003 A 
HETATM    6  C   UNL     1       3.256   7.022  25.489  0.00  0.00    -0.019 A 
HETATM    7  C   UNL     1       2.619   6.704  27.709  0.00  0.00    -0.016 A 
HETATM    8  C   UNL     1       1.618   7.503  27.110  0.00  0.00    -0.020 A 
HETATM    9  C   UNL     1       0.503   7.959  27.810  0.00  0.00     0.010 A 
HETATM   10  C   UNL     1       0.371   7.604  29.147  0.00  0.00     0.001 A 
HETATM   11  C   UNL     1       1.304   6.745  29.736  0.00  0.00     0.001 A 
HETATM   12  C   UNL     1       2.400   6.261  29.006  0.00  0.00     0.013 A 
HETATM   13  C   UNL     1       1.910   7.714  25.635  0.00  0.00     0.153 A 
ENDROOT
BRANCH  13  14
HETATM   14  N   UNL     1       1.979   9.116  25.326  0.00  0.00    -0.344 N 
HETATM   15  C   UNL     1       1.014   9.746  24.579  0.00  0.00     0.253 C 
HETATM   16  O   UNL     1       0.076   9.168  24.048  0.00  0.00    -0.268 OA
HETATM   17  H   UNL     1       2.847   9.593  25.523  0.00  0.00     0.163 HD
BRANCH  15  18
HETATM   18  C   UNL     1       1.170  11.207  24.416  0.00  0.00     0.047 A 
HETATM   19  C   UNL     1       0.033  11.996  24.205  0.00  0.00     0.037 A 
HETATM   20  C   UNL     1       0.188  13.368  24.091  0.00  0.00     0.120 A 
HETATM   21  N   UNL     1       1.360  14.038  24.173  0.00  0.00    -0.242 NA
HETATM   22  C   UNL     1       2.415  13.237  24.401  0.00  0.00     0.138 A 
HETATM   23  C   UNL     1       2.418  11.852  24.535  0.00  0.00     0.027 A 
HETATM   24  N   UNL     1       3.698  13.686  24.560  0.00  0.00    -0.350 N 
HETATM   25  C   UNL     1       3.768  11.482  24.805  0.00  0.00     0.033 A 
HETATM   26  C   UNL     1       4.533  12.630  24.811  0.00  0.00     0.090 A 
HETATM   27  H   UNL     1       3.957  14.660  24.518  0.00  0.00     0.166 HD
ENDBRANCH  15  18
ENDBRANCH  13  14
BRANCH   1  28
HETATM   28  C   UNL     1       5.657   5.425  28.004  0.00  0.00     0.140 C 
HETATM   29  N   UNL     1       5.790   6.169  29.147  0.00  0.00    -0.337 N 
HETATM   30  C   UNL     1       6.266   5.362  30.143  0.00  0.00     0.080 A 
HETATM   31  H   UNL     1       5.506   7.130  29.251  0.00  0.00     0.167 HD
HETATM   32  C   UNL     1       6.371   5.514  31.512  0.00  0.00     0.148 A 
HETATM   33  C   UNL     1       6.711   4.236  29.473  0.00  0.00     0.088 A 
HETATM   34  N   UNL     1       7.007   4.550  32.213  0.00  0.00    -0.271 NA
HETATM   35  C   UNL     1       7.527   3.487  31.549  0.00  0.00     0.118 A 
HETATM   36  C   UNL     1       7.412   3.263  30.183  0.00  0.00     0.053 A 
HETATM   37  N   UNL     1       6.335   4.290  28.147  0.00  0.00    -0.228 NA
ENDBRANCH   1  28
TORSDOF 3
ENDMDL
MODEL 9
REMARK VINA RESULT:    -8.535      3.558      6.188
REMARK INTER + INTRA:         -10.360
REMARK INTER:                 -10.032
REMARK INTRA:                  -0.329
REMARK UNBOUND:                -0.329
REMARK  3 active torsions:
REMARK  status: ('A' for Active; 'I' for Inactive)
REMARK    1  A    between atoms: C_9  and  C_11 
REMARK    2  A    between atoms: C_23  and  N_24 
REMARK       I    between atoms: N_24  and  C_25 
REMARK    3  A    between atoms: C_25  and  C_27 
ROOT
HETATM    1  C   UNL     1       4.585   6.194  25.991  0.00  0.00     0.022 A 
HETATM    2  C   UNL     1       5.558   6.783  25.146  0.00  0.00     0.016 A 
HETATM    3  C   UNL     1       5.242   7.320  23.890  0.00  0.00     0.002 A 
HETATM    4  C   UNL     1       3.934   7.304  23.437  0.00  0.00     0.010 A 
HETATM    5  C   UNL     1       3.270   6.108  25.501  0.00  0.00    -0.003 A 
HETATM    6  C   UNL     1       2.972   6.716  24.245  0.00  0.00    -0.019 A 
HETATM    7  C   UNL     1       2.011   5.542  26.014  0.00  0.00    -0.016 A 
HETATM    8  C   UNL     1       0.953   5.922  25.156  0.00  0.00    -0.020 A 
HETATM    9  C   UNL     1      -0.377   5.602  25.418  0.00  0.00     0.010 A 
HETATM   10  C   UNL     1      -0.669   4.872  26.565  0.00  0.00     0.001 A 
HETATM   11  C   UNL     1       0.368   4.412  27.382  0.00  0.00     0.001 A 
HETATM   12  C   UNL     1       1.707   4.708  27.082  0.00  0.00     0.013 A 
HETATM   13  C   UNL     1       1.487   6.642  23.932  0.00  0.00     0.153 A 
ENDROOT
BRANCH  13  14
HETATM   14  N   UNL     1       0.888   7.943  23.806  0.00  0.00    -0.344 N 
HETATM   15  C   UNL     1       0.887   8.847  24.839  0.00  0.00     0.253 C 
HETATM   16  O   UNL     1       1.308   8.603  25.961  0.00  0.00    -0.268 OA
HETATM   17  H   UNL     1       0.311   8.113  22.994  0.00  0.00     0.163 HD
BRANCH  15  18
HETATM   18  C   UNL     1       0.315  10.177  24.537  0.00  0.00     0.047 A 
HETATM   19  C   UNL     1      -1.073  10.313  24.420  0.00  0.00     0.037 A 
HETATM   20  C   UNL     1      -1.599  11.571  24.173  0.00  0.00     0.120 A 
HETATM   21  N   UNL     1      -0.885  12.711  24.039  0.00  0.00    -0.242 NA
HETATM   22  C   UNL     1       0.439  12.529  24.186  0.00  0.00     0.138 A 
HETATM   23  C   UNL     1       1.112  11.336  24.430  0.00  0.00     0.027 A 
HETATM   24  N   UNL     1       1.362  13.538  24.130  0.00  0.00    -0.350 N 
HETATM   25  C   UNL     1       2.493  11.674  24.543  0.00  0.00     0.033 A 
HETATM   26  C   UNL     1       2.617  13.034  24.350  0.00  0.00     0.090 A 
HETATM   27  H   UNL     1       1.123  14.505  23.973  0.00  0.00     0.166 HD
ENDBRANCH  15  18
ENDBRANCH  13  14
BRANCH   1  28
HETATM   28  C   UNL     1       5.042   5.774  27.323  0.00  0.00     0.140 C 
HETATM   29  N   UNL     1       5.819   4.669  27.556  0.00  0.00    -0.337 N 
HETATM   30  C   UNL     1       6.246   4.699  28.854  0.00  0.00     0.080 A 
HETATM   31  H   UNL     1       6.093   3.994  26.859  0.00  0.00     0.167 HD
HETATM   32  C   UNL     1       7.205   3.989  29.549  0.00  0.00     0.148 A 
HETATM   33  C   UNL     1       5.439   5.654  29.446  0.00  0.00     0.088 A 
HETATM   34  N   UNL     1       7.303   4.186  30.882  0.00  0.00    -0.271 NA
HETATM   35  C   UNL     1       6.453   5.055  31.483  0.00  0.00     0.118 A 
HETATM   36  C   UNL     1       5.501   5.825  30.829  0.00  0.00     0.053 A 
HETATM   37  N   UNL     1       4.692   6.308  28.489  0.00  0.00    -0.228 NA
ENDBRANCH   1  28
TORSDOF 3
ENDMDL
