MODEL 1
REMARK VINA RESULT:    -7.876      0.000      0.000
REMARK INTER + INTRA:         -12.573
REMARK INTER:                 -11.923
REMARK INTRA:                  -0.650
REMARK UNBOUND:                -1.474
REMARK  8 active torsions:
REMARK  status: ('A' for Active; 'I' for Inactive)
REMARK    1  A    between atoms: O_1  and  C_2 
REMARK    2  A    between atoms: C_4  and  O_5 
REMARK    3  A    between atoms: C_6  and  C_10 
REMARK    4  A    between atoms: C_13  and  C_14 
REMARK       I    between atoms: C_14  and  N_16 
REMARK    5  A    between atoms: N_16  and  C_17 
REMARK    6  A    between atoms: C_19  and  C_20 
REMARK    7  A    between atoms: C_23  and  C_26 
REMARK    8  A    between atoms: C_26  and  N_27 
ROOT
HETATM    1  C   UNL     1       6.547  15.054  23.356  0.00  0.00     0.128 A 
HETATM    2  O   UNL     1       6.025  15.752  24.410  0.00  0.00    -0.211 OA
HETATM    3  N   UNL     1       4.731  15.331  24.680  0.00  0.00    -0.121 NA
HETATM    4  C   UNL     1       4.442  14.412  23.745  0.00  0.00     0.165 A 
HETATM    5  C   UNL     1       5.562  14.203  22.876  0.00  0.00     0.048 A 
ENDROOT
BRANCH   5   6
HETATM    6  C   UNL     1       5.747  13.168  21.874  0.00  0.00    -0.021 A 
HETATM    7  C   UNL     1       7.014  12.748  21.456  0.00  0.00     0.013 A 
HETATM    8  C   UNL     1       7.140  11.740  20.491  0.00  0.00     0.010 A 
HETATM    9  C   UNL     1       5.997  11.157  19.919  0.00  0.00    -0.033 A 
HETATM   10  C   UNL     1       4.734  11.571  20.353  0.00  0.00     0.010 A 
HETATM   11  C   UNL     1       4.613  12.559  21.325  0.00  0.00     0.013 A 
BRANCH   9  12
HETATM   12  C   UNL     1       6.092  10.148  18.810  0.00  0.00     0.273 C 
BRANCH  12  13
HETATM   13  N   UNL     1       4.813   9.405  18.508  0.00  0.00    -0.063 N 
HETATM   14  H   UNL     1       4.049   9.897  18.986  0.00  0.00     0.280 HD
HETATM   15  C   UNL     1       4.483   9.384  17.018  0.00  0.00     0.261 C 
HETATM   16  C   UNL     1       3.259   8.498  16.772  0.00  0.00     0.195 C 
HETATM   17  O   UNL     1       3.509   7.167  17.236  0.00  0.00    -0.388 OA
HETATM   18  C   UNL     1       3.700   7.139  18.652  0.00  0.00     0.195 C 
HETATM   19  C   UNL     1       4.901   7.991  19.075  0.00  0.00     0.261 C 
ENDBRANCH  12  13
ENDBRANCH   9  12
ENDBRANCH   5   6
BRANCH   1  20
HETATM   20  C   UNL     1       7.988  15.253  23.104  0.00  0.00     0.035 A 
HETATM   21  C   UNL     1       8.994  14.463  23.688  0.00  0.00     0.081 A 
HETATM   22  C   UNL     1      10.343  14.663  23.367  0.00  0.00     0.074 A 
HETATM   23  C   UNL     1      10.699  15.663  22.463  0.00  0.00     0.074 A 
HETATM   24  C   UNL     1       9.732  16.480  21.882  0.00  0.00    -0.028 A 
HETATM   25  C   UNL     1       8.387  16.256  22.206  0.00  0.00     0.026 A 
HETATM   26  C   UNL     1      10.098  17.522  20.867  0.00  0.00     0.051 C 
BRANCH  21  27
HETATM   27  O   UNL     1       8.663  13.489  24.587  0.00  0.00    -0.360 OA
HETATM   28  H   UNL     1       7.699  13.469  24.714  0.00  0.00     0.217 HD
ENDBRANCH  21  27
BRANCH  23  29
HETATM   29  O   UNL     1      12.005  15.864  22.119  0.00  0.00    -0.360 OA
HETATM   30  H   UNL     1      12.269  16.770  22.357  0.00  0.00     0.217 HD
ENDBRANCH  23  29
ENDBRANCH   1  20
BRANCH   4  31
HETATM   31  C   UNL     1       3.160  13.690  23.717  0.00  0.00     0.273 C 
HETATM   32  O   UNL     1       2.972  12.658  24.358  0.00  0.00    -0.266 OA
HETATM   33  N   UNL     1       2.148  14.308  23.008  0.00  0.00    -0.356 N 
HETATM   34  H   UNL     1       2.373  15.166  22.516  0.00  0.00     0.162 HD
BRANCH  33  35
HETATM   35  C   UNL     1       0.789  13.801  22.988  0.00  0.00     0.118 C 
HETATM   36  C   UNL     1       0.382  13.259  21.624  0.00  0.00     0.026 C 
ENDBRANCH  33  35
ENDBRANCH   4  31
TORSDOF 8
ENDMDL
MODEL 2
REMARK VINA RESULT:    -7.773      3.821      6.221
REMARK INTER + INTRA:         -12.427
REMARK INTER:                 -11.019
REMARK INTRA:                  -1.408
REMARK UNBOUND:                -1.474
REMARK  8 active torsions:
REMARK  status: ('A' for Active; 'I' for Inactive)
REMARK    1  A    between atoms: O_1  and  C_2 
REMARK    2  A    between atoms: C_4  and  O_5 
REMARK    3  A    between atoms: C_6  and  C_10 
REMARK    4  A    between atoms: C_13  and  C_14 
REMARK       I    between atoms: C_14  and  N_16 
REMARK    5  A    between atoms: N_16  and  C_17 
REMARK    6  A    between atoms: C_19  and  C_20 
REMARK    7  A    between atoms: C_23  and  C_26 
REMARK    8  A    between atoms: C_26  and  N_27 
ROOT
HETATM    1  C   UNL     1       6.740  11.221  20.204  0.00  0.00     0.128 A 
HETATM    2  O   UNL     1       6.824  11.337  18.843  0.00  0.00    -0.211 OA
HETATM    3  N   UNL     1       6.060  10.359  18.223  0.00  0.00    -0.121 NA
HETATM    4  C   UNL     1       5.556   9.604  19.213  0.00  0.00     0.165 A 
HETATM    5  C   UNL     1       5.963  10.109  20.491  0.00  0.00     0.048 A 
ENDROOT
BRANCH   5   6
HETATM    6  C   UNL     1       5.485   9.723  21.807  0.00  0.00    -0.021 A 
HETATM    7  C   UNL     1       6.159   8.793  22.606  0.00  0.00     0.013 A 
HETATM    8  C   UNL     1       5.662   8.459  23.873  0.00  0.00     0.010 A 
HETATM    9  C   UNL     1       4.472   9.037  24.344  0.00  0.00    -0.033 A 
HETATM   10  C   UNL     1       3.810   9.977  23.546  0.00  0.00     0.010 A 
HETATM   11  C   UNL     1       4.318  10.321  22.297  0.00  0.00     0.013 A 
BRANCH   9  12
HETATM   12  C   UNL     1       3.854   8.627  25.650  0.00  0.00     0.273 C 
BRANCH  12  13
HETATM   13  N   UNL     1       2.350   8.485  25.633  0.00  0.00    -0.063 N 
HETATM   14  H   UNL     1       1.960   9.380  25.315  0.00  0.00     0.280 HD
HETATM   15  C   UNL     1       1.872   7.407  24.666  0.00  0.00     0.261 C 
HETATM   16  C   UNL     1       0.359   7.221  24.806  0.00  0.00     0.195 C 
HETATM   17  O   UNL     1       0.027   6.855  26.149  0.00  0.00    -0.388 OA
HETATM   18  C   UNL     1       0.351   7.902  27.067  0.00  0.00     0.195 C 
HETATM   19  C   UNL     1       1.849   8.220  27.050  0.00  0.00     0.261 C 
ENDBRANCH  12  13
ENDBRANCH   9  12
ENDBRANCH   5   6
BRANCH   1  20
HETATM   20  C   UNL     1       7.330  12.329  20.981  0.00  0.00     0.035 A 
HETATM   21  C   UNL     1       8.712  12.583  21.043  0.00  0.00     0.081 A 
HETATM   22  C   UNL     1       9.209  13.683  21.753  0.00  0.00     0.074 A 
HETATM   23  C   UNL     1       8.327  14.537  22.415  0.00  0.00     0.074 A 
HETATM   24  C   UNL     1       6.954  14.304  22.394  0.00  0.00    -0.028 A 
HETATM   25  C   UNL     1       6.475  13.204  21.668  0.00  0.00     0.026 A 
HETATM   26  C   UNL     1       5.992  15.245  23.057  0.00  0.00     0.051 C 
BRANCH  21  27
HETATM   27  O   UNL     1       9.590  11.748  20.412  0.00  0.00    -0.360 OA
HETATM   28  H   UNL     1      10.302  12.265  20.001  0.00  0.00     0.217 HD
ENDBRANCH  21  27
BRANCH  23  29
HETATM   29  O   UNL     1       8.787  15.627  23.097  0.00  0.00    -0.360 OA
HETATM   30  H   UNL     1       9.650  15.895  22.738  0.00  0.00     0.217 HD
ENDBRANCH  23  29
ENDBRANCH   1  20
BRANCH   4  31
HETATM   31  C   UNL     1       4.647   8.475  18.961  0.00  0.00     0.273 C 
HETATM   32  O   UNL     1       4.628   7.474  19.674  0.00  0.00    -0.266 OA
HETATM   33  N   UNL     1       3.743   8.660  17.933  0.00  0.00    -0.356 N 
HETATM   34  H   UNL     1       3.809   9.519  17.397  0.00  0.00     0.162 HD
BRANCH  33  35
HETATM   35  C   UNL     1       2.693   7.705  17.637  0.00  0.00     0.118 C 
HETATM   36  C   UNL     1       2.601   7.371  16.155  0.00  0.00     0.026 C 
ENDBRANCH  33  35
ENDBRANCH   4  31
TORSDOF 8
ENDMDL
MODEL 3
REMARK VINA RESULT:    -7.761      2.612      7.517
REMARK INTER + INTRA:         -12.411
REMARK INTER:                 -10.957
REMARK INTRA:                  -1.454
REMARK UNBOUND:                -1.474
REMARK  8 active torsions:
REMARK  status: ('A' for Active; 'I' for Inactive)
REMARK    1  A    between atoms: O_1  and  C_2 
REMARK    2  A    between atoms: C_4  and  O_5 
REMARK    3  A    between atoms: C_6  and  C_10 
REMARK    4  A    between atoms: C_13  and  C_14 
REMARK       I    between atoms: C_14  and  N_16 
REMARK    5  A    between atoms: N_16  and  C_17 
REMARK    6  A    between atoms: C_19  and  C_20 
REMARK    7  A    between atoms: C_23  and  C_26 
REMARK    8  A    between atoms: C_26  and  N_27 
ROOT
HETATM    1  C   UNL     1       8.555  12.209  21.021  0.00  0.00     0.128 A 
HETATM    2  O   UNL     1       9.778  11.859  20.517  0.00  0.00    -0.211 OA
HETATM    3  N   UNL     1      10.768  12.692  21.019  0.00  0.00    -0.121 NA
HETATM    4  C   UNL     1      10.135  13.593  21.788  0.00  0.00     0.165 A 
HETATM    5  C   UNL     1       8.726  13.331  21.818  0.00  0.00     0.048 A 
ENDROOT
BRANCH   5   6
HETATM    6  C   UNL     1       7.716  13.928  22.674  0.00  0.00    -0.021 A 
HETATM    7  C   UNL     1       7.103  13.221  23.714  0.00  0.00     0.013 A 
HETATM    8  C   UNL     1       6.139  13.844  24.518  0.00  0.00     0.010 A 
HETATM    9  C   UNL     1       5.763  15.175  24.274  0.00  0.00    -0.033 A 
HETATM   10  C   UNL     1       6.390  15.880  23.242  0.00  0.00     0.010 A 
HETATM   11  C   UNL     1       7.361  15.265  22.459  0.00  0.00     0.013 A 
BRANCH   9  12
HETATM   12  C   UNL     1       4.661  15.842  25.048  0.00  0.00     0.273 C 
BRANCH  12  13
HETATM   13  N   UNL     1       3.266  15.586  24.529  0.00  0.00    -0.063 N 
HETATM   14  H   UNL     1       2.783  16.490  24.483  0.00  0.00     0.280 HD
HETATM   15  C   UNL     1       3.261  14.992  23.123  0.00  0.00     0.261 C 
HETATM   16  C   UNL     1       1.829  14.628  22.721  0.00  0.00     0.195 C 
HETATM   17  O   UNL     1       1.277  13.690  23.650  0.00  0.00    -0.388 OA
HETATM   18  C   UNL     1       1.154  14.262  24.954  0.00  0.00     0.195 C 
HETATM   19  C   UNL     1       2.515  14.691  25.510  0.00  0.00     0.261 C 
ENDBRANCH  12  13
ENDBRANCH   9  12
ENDBRANCH   5   6
BRANCH   1  20
HETATM   20  C   UNL     1       7.451  11.272  20.737  0.00  0.00     0.035 A 
HETATM   21  C   UNL     1       7.144  10.165  21.548  0.00  0.00     0.081 A 
HETATM   22  C   UNL     1       6.048   9.342  21.258  0.00  0.00     0.074 A 
HETATM   23  C   UNL     1       5.252   9.615  20.146  0.00  0.00     0.074 A 
HETATM   24  C   UNL     1       5.538  10.690  19.308  0.00  0.00    -0.028 A 
HETATM   25  C   UNL     1       6.632  11.508  19.622  0.00  0.00     0.026 A 
HETATM   26  C   UNL     1       4.657  11.025  18.141  0.00  0.00     0.051 C 
BRANCH  21  27
HETATM   27  O   UNL     1       7.924   9.875  22.632  0.00  0.00    -0.360 OA
HETATM   28  H   UNL     1       8.663  10.503  22.686  0.00  0.00     0.217 HD
ENDBRANCH  21  27
BRANCH  23  29
HETATM   29  O   UNL     1       4.167   8.839  19.855  0.00  0.00    -0.360 OA
HETATM   30  H   UNL     1       3.736   9.173  19.049  0.00  0.00     0.217 HD
ENDBRANCH  23  29
ENDBRANCH   1  20
BRANCH   4  31
HETATM   31  C   UNL     1      10.853  14.634  22.539  0.00  0.00     0.273 C 
HETATM   32  O   UNL     1      11.063  15.753  22.075  0.00  0.00    -0.266 OA
HETATM   33  N   UNL     1      11.183  14.305  23.839  0.00  0.00    -0.356 N 
HETATM   34  H   UNL     1      10.965  13.367  24.158  0.00  0.00     0.162 HD
BRANCH  33  35
HETATM   35  C   UNL     1      11.774  15.259  24.758  0.00  0.00     0.118 C 
HETATM   36  C   UNL     1      10.750  15.889  25.693  0.00  0.00     0.026 C 
ENDBRANCH  33  35
ENDBRANCH   4  31
TORSDOF 8
ENDMDL
MODEL 4
REMARK VINA RESULT:    -7.682      1.505      1.905
REMARK INTER + INTRA:         -12.300
REMARK INTER:                 -10.891
REMARK INTRA:                  -1.408
REMARK UNBOUND:                -1.474
REMARK  8 active torsions:
REMARK  status: ('A' for Active; 'I' for Inactive)
REMARK    1  A    between atoms: O_1  and  C_2 
REMARK    2  A    between atoms: C_4  and  O_5 
REMARK    3  A    between atoms: C_6  and  C_10 
REMARK    4  A    between atoms: C_13  and  C_14 
REMARK       I    between atoms: C_14  and  N_16 
REMARK    5  A    between atoms: N_16  and  C_17 
REMARK    6  A    between atoms: C_19  and  C_20 
REMARK    7  A    between atoms: C_23  and  C_26 
REMARK    8  A    between atoms: C_26  and  N_27 
ROOT
HETATM    1  C   UNL     1       6.137  14.471  22.786  0.00  0.00     0.128 A 
HETATM    2  O   UNL     1       5.781  15.597  23.476  0.00  0.00    -0.211 OA
HETATM    3  N   UNL     1       4.435  15.559  23.810  0.00  0.00    -0.121 NA
HETATM    4  C   UNL     1       3.954  14.428  23.268  0.00  0.00     0.165 A 
HETATM    5  C   UNL     1       4.995  13.703  22.602  0.00  0.00     0.048 A 
ENDROOT
BRANCH   5   6
HETATM    6  C   UNL     1       4.956  12.354  22.067  0.00  0.00    -0.021 A 
HETATM    7  C   UNL     1       4.946  11.222  22.889  0.00  0.00     0.013 A 
HETATM    8  C   UNL     1       4.899   9.940  22.324  0.00  0.00     0.010 A 
HETATM    9  C   UNL     1       4.884   9.779  20.929  0.00  0.00    -0.033 A 
HETATM   10  C   UNL     1       4.879  10.915  20.113  0.00  0.00     0.010 A 
HETATM   11  C   UNL     1       4.905  12.186  20.678  0.00  0.00     0.013 A 
BRANCH   9  12
HETATM   12  C   UNL     1       4.938   8.422  20.287  0.00  0.00     0.273 C 
BRANCH  12  13
HETATM   13  N   UNL     1       4.491   8.375  18.845  0.00  0.00    -0.063 N 
HETATM   14  H   UNL     1       4.034   9.271  18.634  0.00  0.00     0.280 HD
HETATM   15  C   UNL     1       5.656   8.216  17.873  0.00  0.00     0.261 C 
HETATM   16  C   UNL     1       5.121   8.033  16.450  0.00  0.00     0.195 C 
HETATM   17  O   UNL     1       4.268   6.886  16.385  0.00  0.00    -0.388 OA
HETATM   18  C   UNL     1       3.102   7.059  17.192  0.00  0.00     0.195 C 
HETATM   19  C   UNL     1       3.464   7.260  18.667  0.00  0.00     0.261 C 
ENDBRANCH  12  13
ENDBRANCH   9  12
ENDBRANCH   5   6
BRANCH   1  20
HETATM   20  C   UNL     1       7.583  14.286  22.558  0.00  0.00     0.035 A 
HETATM   21  C   UNL     1       8.569  14.668  23.485  0.00  0.00     0.081 A 
HETATM   22  C   UNL     1       9.925  14.416  23.238  0.00  0.00     0.074 A 
HETATM   23  C   UNL     1      10.308  13.786  22.054  0.00  0.00     0.074 A 
HETATM   24  C   UNL     1       9.361  13.413  21.103  0.00  0.00    -0.028 A 
HETATM   25  C   UNL     1       8.009  13.663  21.375  0.00  0.00     0.026 A 
HETATM   26  C   UNL     1       9.755  12.686  19.852  0.00  0.00     0.051 C 
BRANCH  21  27
HETATM   27  O   UNL     1       8.212  15.300  24.642  0.00  0.00    -0.360 OA
HETATM   28  H   UNL     1       8.574  14.822  25.407  0.00  0.00     0.217 HD
ENDBRANCH  21  27
BRANCH  23  29
HETATM   29  O   UNL     1      11.621  13.512  21.800  0.00  0.00    -0.360 OA
HETATM   30  H   UNL     1      11.827  12.607  22.090  0.00  0.00     0.217 HD
ENDBRANCH  23  29
ENDBRANCH   1  20
BRANCH   4  31
HETATM   31  C   UNL     1       2.555  14.003  23.438  0.00  0.00     0.273 C 
HETATM   32  O   UNL     1       1.965  14.098  24.512  0.00  0.00    -0.266 OA
HETATM   33  N   UNL     1       1.918  13.589  22.285  0.00  0.00    -0.356 N 
HETATM   34  H   UNL     1       2.465  13.550  21.431  0.00  0.00     0.162 HD
BRANCH  33  35
HETATM   35  C   UNL     1       0.505  13.263  22.250  0.00  0.00     0.118 C 
HETATM   36  C   UNL     1      -0.077  13.316  20.844  0.00  0.00     0.026 C 
ENDBRANCH  33  35
ENDBRANCH   4  31
TORSDOF 8
ENDMDL
MODEL 5
REMARK VINA RESULT:    -7.649      2.754      7.099
REMARK INTER + INTRA:         -12.252
REMARK INTER:                 -10.559
REMARK INTRA:                  -1.693
REMARK UNBOUND:                -1.474
REMARK  8 active torsions:
REMARK  status: ('A' for Active; 'I' for Inactive)
REMARK    1  A    between atoms: O_1  and  C_2 
REMARK    2  A    between atoms: C_4  and  O_5 
REMARK    3  A    between atoms: C_6  and  C_10 
REMARK    4  A    between atoms: C_13  and  C_14 
REMARK       I    between atoms: C_14  and  N_16 
REMARK    5  A    between atoms: N_16  and  C_17 
REMARK    6  A    between atoms: C_19  and  C_20 
REMARK    7  A    between atoms: C_23  and  C_26 
REMARK    8  A    between atoms: C_26  and  N_27 
ROOT
HETATM    1  C   UNL     1       6.997  11.572  21.388  0.00  0.00     0.128 A 
HETATM    2  O   UNL     1       8.352  11.394  21.442  0.00  0.00    -0.211 OA
HETATM    3  N   UNL     1       8.884  12.036  22.550  0.00  0.00    -0.121 NA
HETATM    4  C   UNL     1       7.853  12.659  23.144  0.00  0.00     0.165 A 
HETATM    5  C   UNL     1       6.632  12.399  22.441  0.00  0.00     0.048 A 
ENDROOT
BRANCH   5   6
HETATM    6  C   UNL     1       5.273  12.705  22.850  0.00  0.00    -0.021 A 
HETATM    7  C   UNL     1       4.417  11.739  23.388  0.00  0.00     0.013 A 
HETATM    8  C   UNL     1       3.115  12.086  23.774  0.00  0.00     0.010 A 
HETATM    9  C   UNL     1       2.651  13.400  23.606  0.00  0.00    -0.033 A 
HETATM   10  C   UNL     1       3.517  14.365  23.081  0.00  0.00     0.010 A 
HETATM   11  C   UNL     1       4.815  14.021  22.717  0.00  0.00     0.013 A 
BRANCH   9  12
HETATM   12  C   UNL     1       1.231  13.785  23.913  0.00  0.00     0.273 C 
BRANCH  12  13
HETATM   13  N   UNL     1       0.177  12.978  23.194  0.00  0.00    -0.063 N 
HETATM   14  H   UNL     1       0.508  12.007  23.150  0.00  0.00     0.280 HD
HETATM   15  C   UNL     1      -1.162  12.973  23.926  0.00  0.00     0.261 C 
HETATM   16  C   UNL     1      -2.214  12.260  23.073  0.00  0.00     0.195 C 
HETATM   17  O   UNL     1      -2.352  12.912  21.807  0.00  0.00    -0.388 OA
HETATM   18  C   UNL     1      -1.146  12.825  21.045  0.00  0.00     0.195 C 
HETATM   19  C   UNL     1       0.026  13.496  21.766  0.00  0.00     0.261 C 
ENDBRANCH  12  13
ENDBRANCH   9  12
ENDBRANCH   5   6
BRANCH   1  20
HETATM   20  C   UNL     1       6.281  10.764  20.381  0.00  0.00     0.035 A 
HETATM   21  C   UNL     1       6.318   9.359  20.345  0.00  0.00     0.081 A 
HETATM   22  C   UNL     1       5.573   8.645  19.398  0.00  0.00     0.074 A 
HETATM   23  C   UNL     1       4.789   9.331  18.471  0.00  0.00     0.074 A 
HETATM   24  C   UNL     1       4.746  10.724  18.463  0.00  0.00    -0.028 A 
HETATM   25  C   UNL     1       5.489  11.420  19.426  0.00  0.00     0.026 A 
HETATM   26  C   UNL     1       3.865  11.471  17.506  0.00  0.00     0.051 C 
BRANCH  21  27
HETATM   27  O   UNL     1       7.092   8.672  21.236  0.00  0.00    -0.360 OA
HETATM   28  H   UNL     1       8.028   8.904  21.110  0.00  0.00     0.217 HD
ENDBRANCH  21  27
BRANCH  23  29
HETATM   29  O   UNL     1       4.039   8.656  17.552  0.00  0.00    -0.360 OA
HETATM   30  H   UNL     1       3.571   9.292  16.983  0.00  0.00     0.217 HD
ENDBRANCH  23  29
ENDBRANCH   1  20
BRANCH   4  31
HETATM   31  C   UNL     1       8.005  13.424  24.392  0.00  0.00     0.273 C 
HETATM   32  O   UNL     1       7.365  13.159  25.407  0.00  0.00    -0.266 OA
HETATM   33  N   UNL     1       8.992  14.390  24.378  0.00  0.00    -0.356 N 
HETATM   34  H   UNL     1       9.490  14.543  23.507  0.00  0.00     0.162 HD
BRANCH  33  35
HETATM   35  C   UNL     1       9.363  15.142  25.561  0.00  0.00     0.118 C 
HETATM   36  C   UNL     1      10.784  15.684  25.494  0.00  0.00     0.026 C 
ENDBRANCH  33  35
ENDBRANCH   4  31
TORSDOF 8
ENDMDL
MODEL 6
REMARK VINA RESULT:    -7.637      3.351      6.966
REMARK INTER + INTRA:         -12.235
REMARK INTER:                 -10.892
REMARK INTRA:                  -1.343
REMARK UNBOUND:                -1.474
REMARK  8 active torsions:
REMARK  status: ('A' for Active; 'I' for Inactive)
REMARK    1  A    between atoms: O_1  and  C_2 
REMARK    2  A    between atoms: C_4  and  O_5 
REMARK    3  A    between atoms: C_6  and  C_10 
REMARK    4  A    between atoms: C_13  and  C_14 
REMARK       I    between atoms: C_14  and  N_16 
REMARK    5  A    between atoms: N_16  and  C_17 
REMARK    6  A    between atoms: C_19  and  C_20 
REMARK    7  A    between atoms: C_23  and  C_26 
REMARK    8  A    between atoms: C_26  and  N_27 
ROOT
HETATM    1  C   UNL     1       9.520  12.130  22.572  0.00  0.00     0.128 A 
HETATM    2  O   UNL     1      10.835  12.094  22.198  0.00  0.00    -0.211 OA
HETATM    3  N   UNL     1      11.348  13.379  22.093  0.00  0.00    -0.121 NA
HETATM    4  C   UNL     1      10.320  14.206  22.347  0.00  0.00     0.165 A 
HETATM    5  C   UNL     1       9.135  13.461  22.653  0.00  0.00     0.048 A 
ENDROOT
BRANCH   5   6
HETATM    6  C   UNL     1       7.872  13.949  23.177  0.00  0.00    -0.021 A 
HETATM    7  C   UNL     1       7.655  14.146  24.545  0.00  0.00     0.013 A 
HETATM    8  C   UNL     1       6.419  14.627  25.001  0.00  0.00     0.010 A 
HETATM    9  C   UNL     1       5.383  14.896  24.093  0.00  0.00    -0.033 A 
HETATM   10  C   UNL     1       5.611  14.711  22.725  0.00  0.00     0.010 A 
HETATM   11  C   UNL     1       6.845  14.252  22.275  0.00  0.00     0.013 A 
BRANCH   9  12
HETATM   12  C   UNL     1       4.015  15.314  24.553  0.00  0.00     0.273 C 
BRANCH  12  13
HETATM   13  N   UNL     1       2.920  14.302  24.312  0.00  0.00    -0.063 N 
HETATM   14  H   UNL     1       2.287  14.333  25.121  0.00  0.00     0.280 HD
HETATM   15  C   UNL     1       2.091  14.615  23.070  0.00  0.00     0.261 C 
HETATM   16  C   UNL     1       1.099  13.478  22.810  0.00  0.00     0.195 C 
HETATM   17  O   UNL     1       1.798  12.242  22.633  0.00  0.00    -0.388 OA
HETATM   18  C   UNL     1       2.485  11.859  23.826  0.00  0.00     0.195 C 
HETATM   19  C   UNL     1       3.528  12.904  24.234  0.00  0.00     0.261 C 
ENDBRANCH  12  13
ENDBRANCH   9  12
ENDBRANCH   5   6
BRANCH   1  20
HETATM   20  C   UNL     1       8.917  10.831  22.928  0.00  0.00     0.035 A 
HETATM   21  C   UNL     1       9.617   9.804  23.585  0.00  0.00     0.081 A 
HETATM   22  C   UNL     1       8.975   8.613  23.946  0.00  0.00     0.074 A 
HETATM   23  C   UNL     1       7.625   8.434  23.645  0.00  0.00     0.074 A 
HETATM   24  C   UNL     1       6.905   9.421  22.975  0.00  0.00    -0.028 A 
HETATM   25  C   UNL     1       7.562  10.610  22.633  0.00  0.00     0.026 A 
HETATM   26  C   UNL     1       5.440   9.262  22.694  0.00  0.00     0.051 C 
BRANCH  21  27
HETATM   27  O   UNL     1      10.944   9.958  23.874  0.00  0.00    -0.360 OA
HETATM   28  H   UNL     1      11.235   9.252  24.475  0.00  0.00     0.217 HD
ENDBRANCH  21  27
BRANCH  23  29
HETATM   29  O   UNL     1       6.972   7.290  24.005  0.00  0.00    -0.360 OA
HETATM   30  H   UNL     1       6.013   7.452  24.014  0.00  0.00     0.217 HD
ENDBRANCH  23  29
ENDBRANCH   1  20
BRANCH   4  31
HETATM   31  C   UNL     1      10.471  15.669  22.374  0.00  0.00     0.273 C 
HETATM   32  O   UNL     1      11.144  16.245  23.227  0.00  0.00    -0.266 OA
HETATM   33  N   UNL     1       9.895  16.344  21.315  0.00  0.00    -0.356 N 
HETATM   34  H   UNL     1       9.367  15.800  20.641  0.00  0.00     0.162 HD
BRANCH  33  35
HETATM   35  C   UNL     1      10.062  17.771  21.118  0.00  0.00     0.118 C 
HETATM   36  C   UNL     1       8.869  18.413  20.425  0.00  0.00     0.026 C 
ENDBRANCH  33  35
ENDBRANCH   4  31
TORSDOF 8
ENDMDL
MODEL 7
REMARK VINA RESULT:    -7.600      2.099      6.615
REMARK INTER + INTRA:         -12.184
REMARK INTER:                 -10.553
REMARK INTRA:                  -1.630
REMARK UNBOUND:                -1.474
REMARK  8 active torsions:
REMARK  status: ('A' for Active; 'I' for Inactive)
REMARK    1  A    between atoms: O_1  and  C_2 
REMARK    2  A    between atoms: C_4  and  O_5 
REMARK    3  A    between atoms: C_6  and  C_10 
REMARK    4  A    between atoms: C_13  and  C_14 
REMARK       I    between atoms: C_14  and  N_16 
REMARK    5  A    between atoms: N_16  and  C_17 
REMARK    6  A    between atoms: C_19  and  C_20 
REMARK    7  A    between atoms: C_23  and  C_26 
REMARK    8  A    between atoms: C_26  and  N_27 
ROOT
HETATM    1  C   UNL     1       2.179  13.848  23.547  0.00  0.00     0.128 A 
HETATM    2  O   UNL     1       2.195  15.031  24.233  0.00  0.00    -0.211 OA
HETATM    3  N   UNL     1       3.499  15.417  24.509  0.00  0.00    -0.121 NA
HETATM    4  C   UNL     1       4.281  14.430  24.040  0.00  0.00     0.165 A 
HETATM    5  C   UNL     1       3.489  13.407  23.424  0.00  0.00     0.048 A 
ENDROOT
BRANCH   5   6
HETATM    6  C   UNL     1       3.935  12.281  22.623  0.00  0.00    -0.021 A 
HETATM    7  C   UNL     1       4.415  12.434  21.318  0.00  0.00     0.013 A 
HETATM    8  C   UNL     1       4.842  11.316  20.587  0.00  0.00     0.010 A 
HETATM    9  C   UNL     1       4.771  10.032  21.149  0.00  0.00    -0.033 A 
HETATM   10  C   UNL     1       4.304   9.887  22.460  0.00  0.00     0.010 A 
HETATM   11  C   UNL     1       3.900  11.002  23.189  0.00  0.00     0.013 A 
BRANCH   9  12
HETATM   12  C   UNL     1       5.121   8.801  20.362  0.00  0.00     0.273 C 
BRANCH  12  13
HETATM   13  N   UNL     1       4.555   8.752  18.962  0.00  0.00    -0.063 N 
HETATM   14  H   UNL     1       3.949   9.572  18.845  0.00  0.00     0.280 HD
HETATM   15  C   UNL     1       5.636   8.824  17.887  0.00  0.00     0.261 C 
HETATM   16  C   UNL     1       5.006   8.625  16.507  0.00  0.00     0.195 C 
HETATM   17  O   UNL     1       4.337   7.361  16.444  0.00  0.00    -0.388 OA
HETATM   18  C   UNL     1       3.239   7.310  17.356  0.00  0.00     0.195 C 
HETATM   19  C   UNL     1       3.700   7.498  18.804  0.00  0.00     0.261 C 
ENDBRANCH  12  13
ENDBRANCH   9  12
ENDBRANCH   5   6
BRANCH   1  20
HETATM   20  C   UNL     1       0.870  13.436  23.005  0.00  0.00     0.035 A 
HETATM   21  C   UNL     1       0.528  13.532  21.645  0.00  0.00     0.081 A 
HETATM   22  C   UNL     1      -0.711  13.072  21.180  0.00  0.00     0.074 A 
HETATM   23  C   UNL     1      -1.626  12.521  22.076  0.00  0.00     0.074 A 
HETATM   24  C   UNL     1      -1.331  12.431  23.434  0.00  0.00    -0.028 A 
HETATM   25  C   UNL     1      -0.081  12.884  23.878  0.00  0.00     0.026 A 
HETATM   26  C   UNL     1      -2.285  11.790  24.399  0.00  0.00     0.051 C 
BRANCH  21  27
HETATM   27  O   UNL     1       1.408  14.083  20.756  0.00  0.00    -0.360 OA
HETATM   28  H   UNL     1       2.235  13.574  20.749  0.00  0.00     0.217 HD
ENDBRANCH  21  27
BRANCH  23  29
HETATM   29  O   UNL     1      -2.832  12.049  21.644  0.00  0.00    -0.360 OA
HETATM   30  H   UNL     1      -3.507  12.209  22.325  0.00  0.00     0.217 HD
ENDBRANCH  23  29
ENDBRANCH   1  20
BRANCH   4  31
HETATM   31  C   UNL     1       5.750  14.487  24.106  0.00  0.00     0.273 C 
HETATM   32  O   UNL     1       6.402  13.778  24.869  0.00  0.00    -0.266 OA
HETATM   33  N   UNL     1       6.352  15.315  23.178  0.00  0.00    -0.356 N 
HETATM   34  H   UNL     1       5.749  15.860  22.571  0.00  0.00     0.162 HD
BRANCH  33  35
HETATM   35  C   UNL     1       7.792  15.388  23.018  0.00  0.00     0.118 C 
HETATM   36  C   UNL     1       8.288  14.623  21.799  0.00  0.00     0.026 C 
ENDBRANCH  33  35
ENDBRANCH   4  31
TORSDOF 8
ENDMDL
MODEL 8
REMARK VINA RESULT:    -7.553      2.598      3.589
REMARK INTER + INTRA:         -12.118
REMARK INTER:                 -10.469
REMARK INTRA:                  -1.649
REMARK UNBOUND:                -1.474
REMARK  8 active torsions:
REMARK  status: ('A' for Active; 'I' for Inactive)
REMARK    1  A    between atoms: O_1  and  C_2 
REMARK    2  A    between atoms: C_4  and  O_5 
REMARK    3  A    between atoms: C_6  and  C_10 
REMARK    4  A    between atoms: C_13  and  C_14 
REMARK       I    between atoms: C_14  and  N_16 
REMARK    5  A    between atoms: N_16  and  C_17 
REMARK    6  A    between atoms: C_19  and  C_20 
REMARK    7  A    between atoms: C_23  and  C_26 
REMARK    8  A    between atoms: C_26  and  N_27 
ROOT
HETATM    1  C   UNL     1       6.470  11.902  23.935  0.00  0.00     0.128 A 
HETATM    2  O   UNL     1       6.119  12.490  25.119  0.00  0.00    -0.211 OA
HETATM    3  N   UNL     1       4.771  12.816  25.121  0.00  0.00    -0.121 NA
HETATM    4  C   UNL     1       4.310  12.478  23.906  0.00  0.00     0.165 A 
HETATM    5  C   UNL     1       5.353  11.897  23.113  0.00  0.00     0.048 A 
ENDROOT
BRANCH   5   6
HETATM    6  C   UNL     1       5.242  11.219  21.833  0.00  0.00    -0.021 A 
HETATM    7  C   UNL     1       4.944   9.856  21.732  0.00  0.00     0.013 A 
HETATM    8  C   UNL     1       4.840   9.249  20.473  0.00  0.00     0.010 A 
HETATM    9  C   UNL     1       5.055   9.996  19.303  0.00  0.00    -0.033 A 
HETATM   10  C   UNL     1       5.338  11.362  19.412  0.00  0.00     0.010 A 
HETATM   11  C   UNL     1       5.420  11.965  20.663  0.00  0.00     0.013 A 
BRANCH   9  12
HETATM   12  C   UNL     1       5.054   9.359  17.943  0.00  0.00     0.273 C 
BRANCH  12  13
HETATM   13  N   UNL     1       4.125   8.177  17.789  0.00  0.00    -0.063 N 
HETATM   14  H   UNL     1       3.652   8.037  18.689  0.00  0.00     0.280 HD
HETATM   15  C   UNL     1       3.046   8.412  16.736  0.00  0.00     0.261 C 
HETATM   16  C   UNL     1       2.235   7.129  16.532  0.00  0.00     0.195 C 
HETATM   17  O   UNL     1       3.094   6.060  16.123  0.00  0.00    -0.388 OA
HETATM   18  C   UNL     1       4.040   5.734  17.144  0.00  0.00     0.195 C 
HETATM   19  C   UNL     1       4.942   6.927  17.476  0.00  0.00     0.261 C 
ENDBRANCH  12  13
ENDBRANCH   9  12
ENDBRANCH   5   6
BRANCH   1  20
HETATM   20  C   UNL     1       7.822  11.313  23.885  0.00  0.00     0.035 A 
HETATM   21  C   UNL     1       9.002  12.078  23.891  0.00  0.00     0.081 A 
HETATM   22  C   UNL     1      10.259  11.460  23.898  0.00  0.00     0.074 A 
HETATM   23  C   UNL     1      10.348  10.069  23.891  0.00  0.00     0.074 A 
HETATM   24  C   UNL     1       9.201   9.279  23.863  0.00  0.00    -0.028 A 
HETATM   25  C   UNL     1       7.953   9.916  23.868  0.00  0.00     0.026 A 
HETATM   26  C   UNL     1       9.283   7.782  23.909  0.00  0.00     0.051 C 
BRANCH  21  27
HETATM   27  O   UNL     1       8.932  13.442  23.883  0.00  0.00    -0.360 OA
HETATM   28  H   UNL     1       9.828  13.820  23.884  0.00  0.00     0.217 HD
ENDBRANCH  21  27
BRANCH  23  29
HETATM   29  O   UNL     1      11.562   9.444  23.917  0.00  0.00    -0.360 OA
HETATM   30  H   UNL     1      12.266  10.106  24.026  0.00  0.00     0.217 HD
ENDBRANCH  23  29
ENDBRANCH   1  20
BRANCH   4  31
HETATM   31  C   UNL     1       2.896  12.632  23.526  0.00  0.00     0.273 C 
HETATM   32  O   UNL     1       2.041  11.802  23.826  0.00  0.00    -0.266 OA
HETATM   33  N   UNL     1       2.577  13.823  22.903  0.00  0.00    -0.356 N 
HETATM   34  H   UNL     1       3.335  14.467  22.700  0.00  0.00     0.162 HD
BRANCH  33  35
HETATM   35  C   UNL     1       1.212  14.192  22.582  0.00  0.00     0.118 C 
HETATM   36  C   UNL     1       0.784  13.722  21.198  0.00  0.00     0.026 C 
ENDBRANCH  33  35
ENDBRANCH   4  31
TORSDOF 8
ENDMDL
MODEL 9
REMARK VINA RESULT:    -7.475      2.327      5.678
REMARK INTER + INTRA:         -12.007
REMARK INTER:                 -10.533
REMARK INTRA:                  -1.474
REMARK UNBOUND:                -1.474
REMARK  8 active torsions:
REMARK  status: ('A' for Active; 'I' for Inactive)
REMARK    1  A    between atoms: O_1  and  C_2 
REMARK    2  A    between atoms: C_4  and  O_5 
REMARK    3  A    between atoms: C_6  and  C_10 
REMARK    4  A    between atoms: C_13  and  C_14 
REMARK       I    between atoms: C_14  and  N_16 
REMARK    5  A    between atoms: N_16  and  C_17 
REMARK    6  A    between atoms: C_19  and  C_20 
REMARK    7  A    between atoms: C_23  and  C_26 
REMARK    8  A    between atoms: C_26  and  N_27 
ROOT
HETATM    1  C   UNL     1       5.799  14.170  22.838  0.00  0.00     0.128 A 
HETATM    2  O   UNL     1       6.560  15.294  23.005  0.00  0.00    -0.211 OA
HETATM    3  N   UNL     1       7.795  15.142  22.392  0.00  0.00    -0.121 NA
HETATM    4  C   UNL     1       7.809  13.892  21.900  0.00  0.00     0.165 A 
HETATM    5  C   UNL     1       6.565  13.231  22.161  0.00  0.00     0.048 A 
ENDROOT
BRANCH   5   6
HETATM    6  C   UNL     1       6.088  11.965  21.635  0.00  0.00    -0.021 A 
HETATM    7  C   UNL     1       6.070  10.794  22.400  0.00  0.00     0.013 A 
HETATM    8  C   UNL     1       5.593   9.597  21.848  0.00  0.00     0.010 A 
HETATM    9  C   UNL     1       5.149   9.556  20.517  0.00  0.00    -0.033 A 
HETATM   10  C   UNL     1       5.156  10.734  19.761  0.00  0.00     0.010 A 
HETATM   11  C   UNL     1       5.611  11.924  20.319  0.00  0.00     0.013 A 
BRANCH   9  12
HETATM   12  C   UNL     1       4.728   8.273  19.861  0.00  0.00     0.273 C 
BRANCH  12  13
HETATM   13  N   UNL     1       4.267   8.405  18.428  0.00  0.00    -0.063 N 
HETATM   14  H   UNL     1       3.962   9.375  18.290  0.00  0.00     0.280 HD
HETATM   15  C   UNL     1       5.383   8.128  17.424  0.00  0.00     0.261 C 
HETATM   16  C   UNL     1       4.812   8.139  16.003  0.00  0.00     0.195 C 
HETATM   17  O   UNL     1       3.783   7.154  15.874  0.00  0.00    -0.388 OA
HETATM   18  C   UNL     1       2.668   7.456  16.715  0.00  0.00     0.195 C 
HETATM   19  C   UNL     1       3.070   7.488  18.193  0.00  0.00     0.261 C 
ENDBRANCH  12  13
ENDBRANCH   9  12
ENDBRANCH   5   6
BRANCH   1  20
HETATM   20  C   UNL     1       4.387  14.281  23.254  0.00  0.00     0.035 A 
HETATM   21  C   UNL     1       3.965  15.005  24.382  0.00  0.00     0.081 A 
HETATM   22  C   UNL     1       2.605  15.121  24.696  0.00  0.00     0.074 A 
HETATM   23  C   UNL     1       1.652  14.504  23.886  0.00  0.00     0.074 A 
HETATM   24  C   UNL     1       2.034  13.760  22.772  0.00  0.00    -0.028 A 
HETATM   25  C   UNL     1       3.399  13.666  22.469  0.00  0.00     0.026 A 
HETATM   26  C   UNL     1       1.016  13.137  21.863  0.00  0.00     0.051 C 
BRANCH  21  27
HETATM   27  O   UNL     1       4.887  15.603  25.195  0.00  0.00    -0.360 OA
HETATM   28  H   UNL     1       5.780  15.294  24.967  0.00  0.00     0.217 HD
ENDBRANCH  21  27
BRANCH  23  29
HETATM   29  O   UNL     1       0.319  14.620  24.160  0.00  0.00    -0.360 OA
HETATM   30  H   UNL     1      -0.195  14.161  23.473  0.00  0.00     0.217 HD
ENDBRANCH  23  29
ENDBRANCH   1  20
BRANCH   4  31
HETATM   31  C   UNL     1       8.946  13.358  21.133  0.00  0.00     0.273 C 
HETATM   32  O   UNL     1       9.294  13.835  20.055  0.00  0.00    -0.266 OA
HETATM   33  N   UNL     1       9.661  12.354  21.757  0.00  0.00    -0.356 N 
HETATM   34  H   UNL     1       9.322  12.021  22.653  0.00  0.00     0.162 HD
BRANCH  33  35
HETATM   35  C   UNL     1      10.885  11.809  21.201  0.00  0.00     0.118 C 
HETATM   36  C   UNL     1      11.262  10.466  21.812  0.00  0.00     0.026 C 
ENDBRANCH  33  35
ENDBRANCH   4  31
TORSDOF 8
ENDMDL
