MODEL 1
REMARK VINA RESULT:    -9.190      0.000      0.000
REMARK INTER + INTRA:         -13.158
REMARK INTER:                 -11.884
REMARK INTRA:                  -1.274
REMARK UNBOUND:                -1.014
REMARK  6 active torsions:
REMARK  status: ('A' for Active; 'I' for Inactive)
REMARK    1  A    between atoms: O_2  and  C_3 
REMARK    2  A    between atoms: C_8  and  N_9 
REMARK       I    between atoms: N_9  and  C_11 
REMARK    3  A    between atoms: C_11  and  C_13 
REMARK    4  A    between atoms: C_15  and  O_16 
REMARK    5  A    between atoms: C_23  and  C_24 
REMARK    6  A    between atoms: C_24  and  C_25 
ROOT
HETATM    1  C   UNL     1       7.703  11.969  21.277  0.00  0.00     0.066 C 
HETATM    2  C   UNL     1       7.313  13.292  21.625  0.00  0.00     0.035 C 
HETATM    3  C   UNL     1       8.448  11.237  22.209  0.00  0.00     0.083 C 
HETATM    4  C   UNL     1       8.958  11.819  23.378  0.00  0.00     0.069 C 
HETATM    5  C   UNL     1       8.502  13.098  23.701  0.00  0.00     0.065 A 
HETATM    6  C   UNL     1       7.640  13.823  22.890  0.00  0.00     0.020 A 
HETATM    7  N   UNL     1       8.696  13.876  24.809  0.00  0.00    -0.277 N 
HETATM    8  H   UNL     1       9.286  13.677  25.608  0.00  0.00     0.189 HD
HETATM    9  N   UNL     1       7.963  15.000  24.829  0.00  0.00    -0.178 NA
HETATM   10  C   UNL     1       7.258  14.944  23.685  0.00  0.00     0.071 A 
ENDROOT
BRANCH   1  11
HETATM   11  C   UNL     1       7.049  11.405  20.053  0.00  0.00     0.260 C 
HETATM   12  N   UNL     1       5.836  10.665  20.060  0.00  0.00    -0.318 N 
HETATM   13  C   UNL     1       5.116  10.261  21.274  0.00  0.00     0.159 C 
HETATM   14  O   UNL     1       7.650  11.709  19.018  0.00  0.00    -0.267 OA
BRANCH  12  15
HETATM   15  C   UNL     1       5.236  10.250  18.801  0.00  0.00     0.039 A 
HETATM   16  C   UNL     1       5.432   8.959  18.273  0.00  0.00     0.066 A 
HETATM   17  C   UNL     1       4.763   8.539  17.110  0.00  0.00     0.070 A 
HETATM   18  C   UNL     1       3.948   9.427  16.413  0.00  0.00     0.037 A 
HETATM   19  C   UNL     1       3.785  10.720  16.887  0.00  0.00     0.005 A 
HETATM   20  C   UNL     1       4.422  11.122  18.062  0.00  0.00     0.030 A 
BRANCH  17  21
HETATM   21  O   UNL     1       4.993   7.243  16.715  0.00  0.00    -0.356 OA
HETATM   22  C   UNL     1       3.894   6.613  16.054  0.00  0.00     0.210 C 
ENDBRANCH  17  21
ENDBRANCH  12  15
ENDBRANCH   1  11
BRANCH   3  23
HETATM   23  O   UNL     1       8.632   9.884  22.135  0.00  0.00    -0.360 OA
HETATM   24  H   UNL     1       8.494   9.625  21.203  0.00  0.00     0.217 HD
ENDBRANCH   3  23
BRANCH  10  25
HETATM   25  C   UNL     1       6.264  16.017  23.384  0.00  0.00     0.100 C 
BRANCH  25  26
HETATM   26  C   UNL     1       4.872  15.503  23.717  0.00  0.00    -0.052 A 
HETATM   27  C   UNL     1       4.250  15.890  24.914  0.00  0.00     0.007 A 
HETATM   28  C   UNL     1       3.039  15.318  25.305  0.00  0.00     0.001 A 
HETATM   29  C   UNL     1       2.418  14.362  24.504  0.00  0.00     0.007 A 
HETATM   30  C   UNL     1       2.993  13.987  23.283  0.00  0.00    -0.061 A 
HETATM   31  C   UNL     1       4.215  14.560  22.899  0.00  0.00     0.014 A 
HETATM   32  C   UNL     1       2.271  13.022  22.385  0.00  0.00     0.048 C 
ENDBRANCH  25  26
ENDBRANCH  10  25
TORSDOF 6
ENDMDL
MODEL 2
REMARK VINA RESULT:    -8.722      0.978      1.650
REMARK INTER + INTRA:         -12.540
REMARK INTER:                 -11.238
REMARK INTRA:                  -1.302
REMARK UNBOUND:                -1.014
REMARK  6 active torsions:
REMARK  status: ('A' for Active; 'I' for Inactive)
REMARK    1  A    between atoms: O_2  and  C_3 
REMARK    2  A    between atoms: C_8  and  N_9 
REMARK       I    between atoms: N_9  and  C_11 
REMARK    3  A    between atoms: C_11  and  C_13 
REMARK    4  A    between atoms: C_15  and  O_16 
REMARK    5  A    between atoms: C_23  and  C_24 
REMARK    6  A    between atoms: C_24  and  C_25 
ROOT
HETATM    1  C   UNL     1       7.857  12.053  21.416  0.00  0.00     0.066 C 
HETATM    2  C   UNL     1       7.391  13.359  21.732  0.00  0.00     0.035 C 
HETATM    3  C   UNL     1       8.646  11.389  22.363  0.00  0.00     0.083 C 
HETATM    4  C   UNL     1       9.125  12.030  23.514  0.00  0.00     0.069 C 
HETATM    5  C   UNL     1       8.596  13.288  23.807  0.00  0.00     0.065 A 
HETATM    6  C   UNL     1       7.690  13.940  22.982  0.00  0.00     0.020 A 
HETATM    7  N   UNL     1       8.748  14.104  24.894  0.00  0.00    -0.277 N 
HETATM    8  H   UNL     1       9.350  13.960  25.695  0.00  0.00     0.189 HD
HETATM    9  N   UNL     1       7.950  15.183  24.889  0.00  0.00    -0.178 NA
HETATM   10  C   UNL     1       7.245  15.057  23.750  0.00  0.00     0.071 A 
ENDROOT
BRANCH   1  11
HETATM   11  C   UNL     1       7.233  11.421  20.210  0.00  0.00     0.260 C 
HETATM   12  N   UNL     1       6.089  10.580  20.246  0.00  0.00    -0.318 N 
HETATM   13  C   UNL     1       5.426  10.130  21.476  0.00  0.00     0.159 C 
HETATM   14  O   UNL     1       7.788  11.763  19.161  0.00  0.00    -0.267 OA
BRANCH  12  15
HETATM   15  C   UNL     1       5.505  10.100  19.002  0.00  0.00     0.039 A 
HETATM   16  C   UNL     1       4.652  10.904  18.221  0.00  0.00     0.066 A 
HETATM   17  C   UNL     1       4.179  10.465  16.972  0.00  0.00     0.070 A 
HETATM   18  C   UNL     1       4.489   9.185  16.518  0.00  0.00     0.037 A 
HETATM   19  C   UNL     1       5.283   8.358  17.298  0.00  0.00     0.005 A 
HETATM   20  C   UNL     1       5.780   8.811  18.520  0.00  0.00     0.030 A 
BRANCH  17  21
HETATM   21  O   UNL     1       3.394  11.352  16.276  0.00  0.00    -0.356 OA
HETATM   22  C   UNL     1       3.021  12.522  17.005  0.00  0.00     0.210 C 
ENDBRANCH  17  21
ENDBRANCH  12  15
ENDBRANCH   1  11
BRANCH   3  23
HETATM   23  O   UNL     1       8.909  10.048  22.322  0.00  0.00    -0.360 OA
HETATM   24  H   UNL     1       8.052   9.589  22.221  0.00  0.00     0.217 HD
ENDBRANCH   3  23
BRANCH  10  25
HETATM   25  C   UNL     1       6.190  16.062  23.427  0.00  0.00     0.100 C 
BRANCH  25  26
HETATM   26  C   UNL     1       4.829  15.465  23.751  0.00  0.00    -0.052 A 
HETATM   27  C   UNL     1       4.173  15.821  24.940  0.00  0.00     0.007 A 
HETATM   28  C   UNL     1       2.996  15.178  25.324  0.00  0.00     0.001 A 
HETATM   29  C   UNL     1       2.443  14.180  24.524  0.00  0.00     0.007 A 
HETATM   30  C   UNL     1       3.052  13.832  23.312  0.00  0.00    -0.061 A 
HETATM   31  C   UNL     1       4.240  14.477  22.934  0.00  0.00     0.014 A 
HETATM   32  C   UNL     1       2.399  12.818  22.414  0.00  0.00     0.048 C 
ENDBRANCH  25  26
ENDBRANCH  10  25
TORSDOF 6
ENDMDL
MODEL 3
REMARK VINA RESULT:    -8.510      3.236      7.541
REMARK INTER + INTRA:         -12.260
REMARK INTER:                 -11.097
REMARK INTRA:                  -1.163
REMARK UNBOUND:                -1.014
REMARK  6 active torsions:
REMARK  status: ('A' for Active; 'I' for Inactive)
REMARK    1  A    between atoms: O_2  and  C_3 
REMARK    2  A    between atoms: C_8  and  N_9 
REMARK       I    between atoms: N_9  and  C_11 
REMARK    3  A    between atoms: C_11  and  C_13 
REMARK    4  A    between atoms: C_15  and  O_16 
REMARK    5  A    between atoms: C_23  and  C_24 
REMARK    6  A    between atoms: C_24  and  C_25 
ROOT
HETATM    1  C   UNL     1       8.382  10.150  23.822  0.00  0.00     0.066 C 
HETATM    2  C   UNL     1       7.392  10.857  23.087  0.00  0.00     0.035 C 
HETATM    3  C   UNL     1       8.302   8.753  23.859  0.00  0.00     0.083 C 
HETATM    4  C   UNL     1       7.198   8.057  23.349  0.00  0.00     0.069 C 
HETATM    5  C   UNL     1       6.283   8.787  22.589  0.00  0.00     0.065 A 
HETATM    6  C   UNL     1       6.387  10.156  22.388  0.00  0.00     0.020 A 
HETATM    7  N   UNL     1       5.195   8.395  21.858  0.00  0.00    -0.277 N 
HETATM    8  H   UNL     1       4.805   7.464  21.783  0.00  0.00     0.189 HD
HETATM    9  N   UNL     1       4.640   9.374  21.127  0.00  0.00    -0.178 NA
HETATM   10  C   UNL     1       5.407  10.448  21.392  0.00  0.00     0.071 A 
ENDROOT
BRANCH   1  11
HETATM   11  C   UNL     1       9.561  10.964  24.262  0.00  0.00     0.260 C 
HETATM   12  N   UNL     1       9.474  12.126  25.074  0.00  0.00    -0.318 N 
HETATM   13  C   UNL     1       8.217  12.750  25.502  0.00  0.00     0.159 C 
HETATM   14  O   UNL     1      10.633  10.475  23.893  0.00  0.00    -0.267 OA
BRANCH  12  15
HETATM   15  C   UNL     1      10.692  12.784  25.526  0.00  0.00     0.039 A 
HETATM   16  C   UNL     1      11.383  13.708  24.720  0.00  0.00     0.066 A 
HETATM   17  C   UNL     1      12.498  14.411  25.208  0.00  0.00     0.070 A 
HETATM   18  C   UNL     1      12.987  14.145  26.485  0.00  0.00     0.037 A 
HETATM   19  C   UNL     1      12.353  13.198  27.275  0.00  0.00     0.005 A 
HETATM   20  C   UNL     1      11.225  12.529  26.800  0.00  0.00     0.030 A 
BRANCH  17  21
HETATM   21  O   UNL     1      13.062  15.323  24.350  0.00  0.00    -0.356 OA
HETATM   22  C   UNL     1      12.623  15.223  22.995  0.00  0.00     0.210 C 
ENDBRANCH  17  21
ENDBRANCH  12  15
ENDBRANCH   1  11
BRANCH   3  23
HETATM   23  O   UNL     1       9.329   7.947  24.267  0.00  0.00    -0.360 OA
HETATM   24  H   UNL     1       9.482   8.132  25.214  0.00  0.00     0.217 HD
ENDBRANCH   3  23
BRANCH  10  25
HETATM   25  C   UNL     1       5.127  11.739  20.696  0.00  0.00     0.100 C 
BRANCH  25  26
HETATM   26  C   UNL     1       4.651  12.755  21.723  0.00  0.00    -0.052 A 
HETATM   27  C   UNL     1       3.302  12.784  22.108  0.00  0.00     0.007 A 
HETATM   28  C   UNL     1       2.819  13.797  22.936  0.00  0.00     0.001 A 
HETATM   29  C   UNL     1       3.673  14.791  23.408  0.00  0.00     0.007 A 
HETATM   30  C   UNL     1       5.033  14.766  23.076  0.00  0.00    -0.061 A 
HETATM   31  C   UNL     1       5.512  13.748  22.236  0.00  0.00     0.014 A 
HETATM   32  C   UNL     1       5.963  15.791  23.662  0.00  0.00     0.048 C 
ENDBRANCH  25  26
ENDBRANCH  10  25
TORSDOF 6
ENDMDL
MODEL 4
REMARK VINA RESULT:    -8.384      3.200      5.642
REMARK INTER + INTRA:         -12.093
REMARK INTER:                 -10.922
REMARK INTRA:                  -1.171
REMARK UNBOUND:                -1.014
REMARK  6 active torsions:
REMARK  status: ('A' for Active; 'I' for Inactive)
REMARK    1  A    between atoms: O_2  and  C_3 
REMARK    2  A    between atoms: C_8  and  N_9 
REMARK       I    between atoms: N_9  and  C_11 
REMARK    3  A    between atoms: C_11  and  C_13 
REMARK    4  A    between atoms: C_15  and  O_16 
REMARK    5  A    between atoms: C_23  and  C_24 
REMARK    6  A    between atoms: C_24  and  C_25 
ROOT
HETATM    1  C   UNL     1       5.174  11.900  21.566  0.00  0.00     0.066 C 
HETATM    2  C   UNL     1       6.121  12.961  21.541  0.00  0.00     0.035 C 
HETATM    3  C   UNL     1       5.654  10.589  21.467  0.00  0.00     0.083 C 
HETATM    4  C   UNL     1       6.995  10.306  21.173  0.00  0.00     0.069 C 
HETATM    5  C   UNL     1       7.892  11.374  21.215  0.00  0.00     0.065 A 
HETATM    6  C   UNL     1       7.502  12.683  21.458  0.00  0.00     0.020 A 
HETATM    7  N   UNL     1       9.255  11.417  21.110  0.00  0.00    -0.277 N 
HETATM    8  H   UNL     1       9.884  10.648  20.913  0.00  0.00     0.189 HD
HETATM    9  N   UNL     1       9.790  12.623  21.356  0.00  0.00    -0.178 NA
HETATM   10  C   UNL     1       8.725  13.395  21.638  0.00  0.00     0.071 A 
ENDROOT
BRANCH   1  11
HETATM   11  C   UNL     1       3.782  12.288  21.962  0.00  0.00     0.260 C 
HETATM   12  N   UNL     1       3.350  12.468  23.303  0.00  0.00    -0.318 N 
HETATM   13  C   UNL     1       4.175  12.196  24.486  0.00  0.00     0.159 C 
HETATM   14  O   UNL     1       3.058  12.499  20.984  0.00  0.00    -0.267 OA
BRANCH  12  15
HETATM   15  C   UNL     1       2.000  12.944  23.569  0.00  0.00     0.039 A 
HETATM   16  C   UNL     1       0.882  12.094  23.488  0.00  0.00     0.066 A 
HETATM   17  C   UNL     1      -0.402  12.541  23.848  0.00  0.00     0.070 A 
HETATM   18  C   UNL     1      -0.600  13.868  24.221  0.00  0.00     0.037 A 
HETATM   19  C   UNL     1       0.481  14.737  24.254  0.00  0.00     0.005 A 
HETATM   20  C   UNL     1       1.759  14.279  23.932  0.00  0.00     0.030 A 
BRANCH  17  21
HETATM   21  O   UNL     1      -1.410  11.610  23.776  0.00  0.00    -0.356 OA
HETATM   22  C   UNL     1      -2.698  12.143  23.466  0.00  0.00     0.210 C 
ENDBRANCH  17  21
ENDBRANCH  12  15
ENDBRANCH   1  11
BRANCH   3  23
HETATM   23  O   UNL     1       4.905   9.485  21.769  0.00  0.00    -0.360 OA
HETATM   24  H   UNL     1       4.373   9.271  20.978  0.00  0.00     0.217 HD
ENDBRANCH   3  23
BRANCH  10  25
HETATM   25  C   UNL     1       8.936  14.820  22.031  0.00  0.00     0.100 C 
BRANCH  25  26
HETATM   26  C   UNL     1       8.024  15.146  23.203  0.00  0.00    -0.052 A 
HETATM   27  C   UNL     1       8.420  14.824  24.511  0.00  0.00     0.007 A 
HETATM   28  C   UNL     1       7.540  14.982  25.581  0.00  0.00     0.001 A 
HETATM   29  C   UNL     1       6.255  15.478  25.372  0.00  0.00     0.007 A 
HETATM   30  C   UNL     1       5.845  15.848  24.086  0.00  0.00    -0.061 A 
HETATM   31  C   UNL     1       6.732  15.679  23.011  0.00  0.00     0.014 A 
HETATM   32  C   UNL     1       4.490  16.466  23.884  0.00  0.00     0.048 C 
ENDBRANCH  25  26
ENDBRANCH  10  25
TORSDOF 6
ENDMDL
MODEL 5
REMARK VINA RESULT:    -8.347      2.470      4.766
REMARK INTER + INTRA:         -12.044
REMARK INTER:                 -10.894
REMARK INTRA:                  -1.150
REMARK UNBOUND:                -1.014
REMARK  6 active torsions:
REMARK  status: ('A' for Active; 'I' for Inactive)
REMARK    1  A    between atoms: O_2  and  C_3 
REMARK    2  A    between atoms: C_8  and  N_9 
REMARK       I    between atoms: N_9  and  C_11 
REMARK    3  A    between atoms: C_11  and  C_13 
REMARK    4  A    between atoms: C_15  and  O_16 
REMARK    5  A    between atoms: C_23  and  C_24 
REMARK    6  A    between atoms: C_24  and  C_25 
ROOT
HETATM    1  C   UNL     1       5.027  12.167  21.321  0.00  0.00     0.066 C 
HETATM    2  C   UNL     1       6.277  12.840  21.397  0.00  0.00     0.035 C 
HETATM    3  C   UNL     1       3.947  12.704  22.032  0.00  0.00     0.083 C 
HETATM    4  C   UNL     1       4.103  13.762  22.937  0.00  0.00     0.069 C 
HETATM    5  C   UNL     1       5.332  14.424  22.934  0.00  0.00     0.065 A 
HETATM    6  C   UNL     1       6.401  14.034  22.140  0.00  0.00     0.020 A 
HETATM    7  N   UNL     1       5.756  15.551  23.583  0.00  0.00    -0.277 N 
HETATM    8  H   UNL     1       5.246  16.100  24.264  0.00  0.00     0.189 HD
HETATM    9  N   UNL     1       6.972  15.977  23.210  0.00  0.00    -0.178 NA
HETATM   10  C   UNL     1       7.350  15.090  22.272  0.00  0.00     0.071 A 
ENDROOT
BRANCH   1  11
HETATM   11  C   UNL     1       4.933  11.100  20.274  0.00  0.00     0.260 C 
HETATM   12  N   UNL     1       5.530   9.816  20.382  0.00  0.00    -0.318 N 
HETATM   13  C   UNL     1       6.408   9.397  21.481  0.00  0.00     0.159 C 
HETATM   14  O   UNL     1       4.220  11.437  19.323  0.00  0.00    -0.267 OA
BRANCH  12  15
HETATM   15  C   UNL     1       5.291   8.819  19.348  0.00  0.00     0.039 A 
HETATM   16  C   UNL     1       4.412   7.737  19.547  0.00  0.00     0.066 A 
HETATM   17  C   UNL     1       4.112   6.840  18.506  0.00  0.00     0.070 A 
HETATM   18  C   UNL     1       4.745   6.966  17.272  0.00  0.00     0.037 A 
HETATM   19  C   UNL     1       5.656   7.994  17.073  0.00  0.00     0.005 A 
HETATM   20  C   UNL     1       5.923   8.903  18.098  0.00  0.00     0.030 A 
BRANCH  17  21
HETATM   21  O   UNL     1       3.204   5.853  18.801  0.00  0.00    -0.356 OA
HETATM   22  C   UNL     1       1.838   6.215  18.601  0.00  0.00     0.210 C 
ENDBRANCH  17  21
ENDBRANCH  12  15
ENDBRANCH   1  11
BRANCH   3  23
HETATM   23  O   UNL     1       2.646  12.341  21.817  0.00  0.00    -0.360 OA
HETATM   24  H   UNL     1       2.323  12.859  21.054  0.00  0.00     0.217 HD
ENDBRANCH   3  23
BRANCH  10  25
HETATM   25  C   UNL     1       8.653  15.280  21.567  0.00  0.00     0.100 C 
BRANCH  25  26
HETATM   26  C   UNL     1       9.757  14.649  22.401  0.00  0.00    -0.052 A 
HETATM   27  C   UNL     1       9.939  13.258  22.387  0.00  0.00     0.007 A 
HETATM   28  C   UNL     1      10.849  12.649  23.252  0.00  0.00     0.001 A 
HETATM   29  C   UNL     1      11.604  13.416  24.136  0.00  0.00     0.007 A 
HETATM   30  C   UNL     1      11.476  14.810  24.145  0.00  0.00    -0.061 A 
HETATM   31  C   UNL     1      10.553  15.417  23.278  0.00  0.00     0.014 A 
HETATM   32  C   UNL     1      12.359  15.635  25.039  0.00  0.00     0.048 C 
ENDBRANCH  25  26
ENDBRANCH  10  25
TORSDOF 6
ENDMDL
MODEL 6
REMARK VINA RESULT:    -8.104      3.984      5.289
REMARK INTER + INTRA:         -11.723
REMARK INTER:                 -10.551
REMARK INTRA:                  -1.172
REMARK UNBOUND:                -1.014
REMARK  6 active torsions:
REMARK  status: ('A' for Active; 'I' for Inactive)
REMARK    1  A    between atoms: O_2  and  C_3 
REMARK    2  A    between atoms: C_8  and  N_9 
REMARK       I    between atoms: N_9  and  C_11 
REMARK    3  A    between atoms: C_11  and  C_13 
REMARK    4  A    between atoms: C_15  and  O_16 
REMARK    5  A    between atoms: C_23  and  C_24 
REMARK    6  A    between atoms: C_24  and  C_25 
ROOT
HETATM    1  C   UNL     1       7.985  10.323  22.814  0.00  0.00     0.066 C 
HETATM    2  C   UNL     1       8.015  11.621  22.234  0.00  0.00     0.035 C 
HETATM    3  C   UNL     1       9.204   9.723  23.149  0.00  0.00     0.083 C 
HETATM    4  C   UNL     1      10.435  10.280  22.776  0.00  0.00     0.069 C 
HETATM    5  C   UNL     1      10.415  11.578  22.262  0.00  0.00     0.065 A 
HETATM    6  C   UNL     1       9.243  12.289  22.044  0.00  0.00     0.020 A 
HETATM    7  N   UNL     1      11.427  12.438  21.933  0.00  0.00    -0.277 N 
HETATM    8  H   UNL     1      12.422  12.255  21.948  0.00  0.00     0.189 HD
HETATM    9  N   UNL     1      11.016  13.674  21.610  0.00  0.00    -0.178 NA
HETATM   10  C   UNL     1       9.678  13.613  21.741  0.00  0.00     0.071 A 
ENDROOT
BRANCH   1  11
HETATM   11  C   UNL     1       6.633   9.842  23.247  0.00  0.00     0.260 C 
HETATM   12  N   UNL     1       5.769  10.559  24.117  0.00  0.00    -0.318 N 
HETATM   13  C   UNL     1       6.122  11.812  24.794  0.00  0.00     0.159 C 
HETATM   14  O   UNL     1       6.321   8.775  22.711  0.00  0.00    -0.267 OA
BRANCH  12  15
HETATM   15  C   UNL     1       4.434  10.046  24.393  0.00  0.00     0.039 A 
HETATM   16  C   UNL     1       4.226   8.899  25.183  0.00  0.00     0.066 A 
HETATM   17  C   UNL     1       2.930   8.475  25.526  0.00  0.00     0.070 A 
HETATM   18  C   UNL     1       1.819   9.146  25.021  0.00  0.00     0.037 A 
HETATM   19  C   UNL     1       2.003  10.246  24.195  0.00  0.00     0.005 A 
HETATM   20  C   UNL     1       3.292  10.685  23.887  0.00  0.00     0.030 A 
BRANCH  17  21
HETATM   21  O   UNL     1       2.850   7.373  26.342  0.00  0.00    -0.356 OA
HETATM   22  C   UNL     1       2.296   7.623  27.634  0.00  0.00     0.210 C 
ENDBRANCH  17  21
ENDBRANCH  12  15
ENDBRANCH   1  11
BRANCH   3  23
HETATM   23  O   UNL     1       9.311   8.632  23.966  0.00  0.00    -0.360 OA
HETATM   24  H   UNL     1      10.013   8.826  24.617  0.00  0.00     0.217 HD
ENDBRANCH   3  23
BRANCH  10  25
HETATM   25  C   UNL     1       8.863  14.845  21.519  0.00  0.00     0.100 C 
BRANCH  25  26
HETATM   26  C   UNL     1       8.069  15.140  22.781  0.00  0.00    -0.052 A 
HETATM   27  C   UNL     1       8.660  14.956  24.041  0.00  0.00     0.007 A 
HETATM   28  C   UNL     1       7.905  15.082  25.208  0.00  0.00     0.001 A 
HETATM   29  C   UNL     1       6.553  15.410  25.142  0.00  0.00     0.007 A 
HETATM   30  C   UNL     1       5.945  15.642  23.902  0.00  0.00    -0.061 A 
HETATM   31  C   UNL     1       6.707  15.505  22.731  0.00  0.00     0.014 A 
HETATM   32  C   UNL     1       4.509  16.082  23.847  0.00  0.00     0.048 C 
ENDBRANCH  25  26
ENDBRANCH  10  25
TORSDOF 6
ENDMDL
MODEL 7
REMARK VINA RESULT:    -7.755      3.519      8.170
REMARK INTER + INTRA:         -11.262
REMARK INTER:                 -10.171
REMARK INTRA:                  -1.090
REMARK UNBOUND:                -1.014
REMARK  6 active torsions:
REMARK  status: ('A' for Active; 'I' for Inactive)
REMARK    1  A    between atoms: O_2  and  C_3 
REMARK    2  A    between atoms: C_8  and  N_9 
REMARK       I    between atoms: N_9  and  C_11 
REMARK    3  A    between atoms: C_11  and  C_13 
REMARK    4  A    between atoms: C_15  and  O_16 
REMARK    5  A    between atoms: C_23  and  C_24 
REMARK    6  A    between atoms: C_24  and  C_25 
ROOT
HETATM    1  C   UNL     1       6.618  14.784  23.002  0.00  0.00     0.066 C 
HETATM    2  C   UNL     1       6.324  13.701  22.128  0.00  0.00     0.035 C 
HETATM    3  C   UNL     1       5.566  15.334  23.744  0.00  0.00     0.083 C 
HETATM    4  C   UNL     1       4.230  14.972  23.524  0.00  0.00     0.069 C 
HETATM    5  C   UNL     1       3.999  13.868  22.700  0.00  0.00     0.065 A 
HETATM    6  C   UNL     1       5.015  13.181  22.051  0.00  0.00     0.020 A 
HETATM    7  N   UNL     1       2.851  13.191  22.394  0.00  0.00    -0.277 N 
HETATM    8  H   UNL     1       1.906  13.418  22.677  0.00  0.00     0.189 HD
HETATM    9  N   UNL     1       3.045  12.072  21.679  0.00  0.00    -0.178 NA
HETATM   10  C   UNL     1       4.380  12.020  21.520  0.00  0.00     0.071 A 
ENDROOT
BRANCH   1  11
HETATM   11  C   UNL     1       8.074  15.049  23.232  0.00  0.00     0.260 C 
HETATM   12  N   UNL     1       8.889  14.319  24.139  0.00  0.00    -0.318 N 
HETATM   13  C   UNL     1       8.394  13.279  25.049  0.00  0.00     0.159 C 
HETATM   14  O   UNL     1       8.511  15.939  22.496  0.00  0.00    -0.267 OA
BRANCH  12  15
HETATM   15  C   UNL     1      10.317  14.595  24.210  0.00  0.00     0.039 A 
HETATM   16  C   UNL     1      10.971  14.819  25.436  0.00  0.00     0.066 A 
HETATM   17  C   UNL     1      12.366  14.982  25.499  0.00  0.00     0.070 A 
HETATM   18  C   UNL     1      13.120  15.000  24.329  0.00  0.00     0.037 A 
HETATM   19  C   UNL     1      12.487  14.836  23.105  0.00  0.00     0.005 A 
HETATM   20  C   UNL     1      11.107  14.638  23.051  0.00  0.00     0.030 A 
BRANCH  17  21
HETATM   21  O   UNL     1      12.901  15.145  26.754  0.00  0.00    -0.356 OA
HETATM   22  C   UNL     1      12.680  14.051  27.646  0.00  0.00     0.210 C 
ENDBRANCH  17  21
ENDBRANCH  12  15
ENDBRANCH   1  11
BRANCH   3  23
HETATM   23  O   UNL     1       5.750  16.160  24.818  0.00  0.00    -0.360 OA
HETATM   24  H   UNL     1       5.139  15.862  25.520  0.00  0.00     0.217 HD
ENDBRANCH   3  23
BRANCH  10  25
HETATM   25  C   UNL     1       4.988  10.854  20.811  0.00  0.00     0.100 C 
BRANCH  25  26
HETATM   26  C   UNL     1       5.670   9.960  21.835  0.00  0.00    -0.052 A 
HETATM   27  C   UNL     1       4.897   9.163  22.695  0.00  0.00     0.007 A 
HETATM   28  C   UNL     1       5.495   8.448  23.733  0.00  0.00     0.001 A 
HETATM   29  C   UNL     1       6.873   8.501  23.925  0.00  0.00     0.007 A 
HETATM   30  C   UNL     1       7.676   9.253  23.058  0.00  0.00    -0.061 A 
HETATM   31  C   UNL     1       7.068   9.977  22.020  0.00  0.00     0.014 A 
HETATM   32  C   UNL     1       9.170   9.231  23.218  0.00  0.00     0.048 C 
ENDBRANCH  25  26
ENDBRANCH  10  25
TORSDOF 6
ENDMDL
MODEL 8
REMARK VINA RESULT:    -7.740      3.572      8.271
REMARK INTER + INTRA:         -11.242
REMARK INTER:                 -10.548
REMARK INTRA:                  -0.694
REMARK UNBOUND:                -1.014
REMARK  6 active torsions:
REMARK  status: ('A' for Active; 'I' for Inactive)
REMARK    1  A    between atoms: O_2  and  C_3 
REMARK    2  A    between atoms: C_8  and  N_9 
REMARK       I    between atoms: N_9  and  C_11 
REMARK    3  A    between atoms: C_11  and  C_13 
REMARK    4  A    between atoms: C_15  and  O_16 
REMARK    5  A    between atoms: C_23  and  C_24 
REMARK    6  A    between atoms: C_24  and  C_25 
ROOT
HETATM    1  C   UNL     1       5.069  10.668  20.035  0.00  0.00     0.066 C 
HETATM    2  C   UNL     1       5.217   9.418  20.698  0.00  0.00     0.035 C 
HETATM    3  C   UNL     1       4.976  10.664  18.638  0.00  0.00     0.083 C 
HETATM    4  C   UNL     1       5.195   9.505  17.880  0.00  0.00     0.069 C 
HETATM    5  C   UNL     1       5.279   8.298  18.576  0.00  0.00     0.065 A 
HETATM    6  C   UNL     1       5.227   8.216  19.960  0.00  0.00     0.020 A 
HETATM    7  N   UNL     1       5.356   7.004  18.139  0.00  0.00    -0.277 N 
HETATM    8  H   UNL     1       5.430   6.679  17.183  0.00  0.00     0.189 HD
HETATM    9  N   UNL     1       5.265   6.087  19.115  0.00  0.00    -0.178 NA
HETATM   10  C   UNL     1       5.117   6.820  20.233  0.00  0.00     0.071 A 
ENDROOT
BRANCH   1  11
HETATM   11  C   UNL     1       4.765  11.836  20.922  0.00  0.00     0.260 C 
HETATM   12  N   UNL     1       5.738  12.550  21.671  0.00  0.00    -0.318 N 
HETATM   13  C   UNL     1       7.155  12.177  21.762  0.00  0.00     0.159 C 
HETATM   14  O   UNL     1       3.573  12.156  20.884  0.00  0.00    -0.267 OA
BRANCH  12  15
HETATM   15  C   UNL     1       5.346  13.733  22.422  0.00  0.00     0.039 A 
HETATM   16  C   UNL     1       4.075  13.851  23.016  0.00  0.00     0.066 A 
HETATM   17  C   UNL     1       3.747  14.954  23.824  0.00  0.00     0.070 A 
HETATM   18  C   UNL     1       4.658  15.994  23.990  0.00  0.00     0.037 A 
HETATM   19  C   UNL     1       5.897  15.922  23.369  0.00  0.00     0.005 A 
HETATM   20  C   UNL     1       6.231  14.809  22.597  0.00  0.00     0.030 A 
BRANCH  17  21
HETATM   21  O   UNL     1       2.496  14.938  24.391  0.00  0.00    -0.356 OA
HETATM   22  C   UNL     1       1.424  14.719  23.472  0.00  0.00     0.210 C 
ENDBRANCH  17  21
ENDBRANCH  12  15
ENDBRANCH   1  11
BRANCH   3  23
HETATM   23  O   UNL     1       4.544  11.735  17.906  0.00  0.00    -0.360 OA
HETATM   24  H   UNL     1       5.058  12.512  18.200  0.00  0.00     0.217 HD
ENDBRANCH   3  23
BRANCH  10  25
HETATM   25  C   UNL     1       4.918   6.129  21.541  0.00  0.00     0.100 C 
BRANCH  25  26
HETATM   26  C   UNL     1       6.278   5.887  22.179  0.00  0.00    -0.052 A 
HETATM   27  C   UNL     1       6.781   4.581  22.283  0.00  0.00     0.007 A 
HETATM   28  C   UNL     1       7.956   4.324  22.991  0.00  0.00     0.001 A 
HETATM   29  C   UNL     1       8.659   5.365  23.594  0.00  0.00     0.007 A 
HETATM   30  C   UNL     1       8.205   6.684  23.471  0.00  0.00    -0.061 A 
HETATM   31  C   UNL     1       7.018   6.936  22.765  0.00  0.00     0.014 A 
HETATM   32  C   UNL     1       9.018   7.809  24.049  0.00  0.00     0.048 C 
ENDBRANCH  25  26
ENDBRANCH  10  25
TORSDOF 6
ENDMDL
MODEL 9
REMARK VINA RESULT:    -7.621      3.593      6.523
REMARK INTER + INTRA:         -11.085
REMARK INTER:                 -10.071
REMARK INTRA:                  -1.014
REMARK UNBOUND:                -1.014
REMARK  6 active torsions:
REMARK  status: ('A' for Active; 'I' for Inactive)
REMARK    1  A    between atoms: O_2  and  C_3 
REMARK    2  A    between atoms: C_8  and  N_9 
REMARK       I    between atoms: N_9  and  C_11 
REMARK    3  A    between atoms: C_11  and  C_13 
REMARK    4  A    between atoms: C_15  and  O_16 
REMARK    5  A    between atoms: C_23  and  C_24 
REMARK    6  A    between atoms: C_24  and  C_25 
ROOT
HETATM    1  C   UNL     1       6.665  11.170  22.997  0.00  0.00     0.066 C 
HETATM    2  C   UNL     1       7.826  11.816  22.490  0.00  0.00     0.035 C 
HETATM    3  C   UNL     1       6.786   9.844  23.428  0.00  0.00     0.083 C 
HETATM    4  C   UNL     1       7.951   9.095  23.216  0.00  0.00     0.069 C 
HETATM    5  C   UNL     1       9.078   9.787  22.768  0.00  0.00     0.065 A 
HETATM    6  C   UNL     1       9.065  11.141  22.465  0.00  0.00     0.020 A 
HETATM    7  N   UNL     1      10.375   9.389  22.591  0.00  0.00    -0.277 N 
HETATM    8  H   UNL     1      10.755   8.457  22.702  0.00  0.00     0.189 HD
HETATM    9  N   UNL     1      11.221  10.386  22.290  0.00  0.00    -0.178 NA
HETATM   10  C   UNL     1      10.437  11.480  22.276  0.00  0.00     0.071 A 
ENDROOT
BRANCH   1  11
HETATM   11  C   UNL     1       5.493  12.065  23.261  0.00  0.00     0.260 C 
HETATM   12  N   UNL     1       4.539  12.447  22.281  0.00  0.00    -0.318 N 
HETATM   13  C   UNL     1       4.628  12.105  20.856  0.00  0.00     0.159 C 
HETATM   14  O   UNL     1       5.409  12.389  24.450  0.00  0.00    -0.267 OA
BRANCH  12  15
HETATM   15  C   UNL     1       3.382  13.240  22.670  0.00  0.00     0.039 A 
HETATM   16  C   UNL     1       2.066  12.816  22.406  0.00  0.00     0.066 A 
HETATM   17  C   UNL     1       0.957  13.541  22.878  0.00  0.00     0.070 A 
HETATM   18  C   UNL     1       1.146  14.743  23.555  0.00  0.00     0.037 A 
HETATM   19  C   UNL     1       2.435  15.206  23.778  0.00  0.00     0.005 A 
HETATM   20  C   UNL     1       3.532  14.464  23.340  0.00  0.00     0.030 A 
BRANCH  17  21
HETATM   21  O   UNL     1      -0.278  13.006  22.603  0.00  0.00    -0.356 OA
HETATM   22  C   UNL     1      -1.086  12.740  23.750  0.00  0.00     0.210 C 
ENDBRANCH  17  21
ENDBRANCH  12  15
ENDBRANCH   1  11
BRANCH   3  23
HETATM   23  O   UNL     1       5.848   9.210  24.195  0.00  0.00    -0.360 OA
HETATM   24  H   UNL     1       5.021   9.725  24.125  0.00  0.00     0.217 HD
ENDBRANCH   3  23
BRANCH  10  25
HETATM   25  C   UNL     1      11.052  12.818  22.032  0.00  0.00     0.100 C 
BRANCH  25  26
HETATM   26  C   UNL     1      11.035  13.609  23.331  0.00  0.00    -0.052 A 
HETATM   27  C   UNL     1      10.828  14.997  23.303  0.00  0.00     0.007 A 
HETATM   28  C   UNL     1      10.951  15.759  24.466  0.00  0.00     0.001 A 
HETATM   29  C   UNL     1      11.267  15.151  25.679  0.00  0.00     0.007 A 
HETATM   30  C   UNL     1      11.437  13.763  25.746  0.00  0.00    -0.061 A 
HETATM   31  C   UNL     1      11.320  13.002  24.572  0.00  0.00     0.014 A 
HETATM   32  C   UNL     1      11.688  13.106  27.075  0.00  0.00     0.048 C 
ENDBRANCH  25  26
ENDBRANCH  10  25
TORSDOF 6
ENDMDL
