MODEL 1
REMARK VINA RESULT:    -6.478      0.000      0.000
REMARK INTER + INTRA:          -9.415
REMARK INTER:                  -8.417
REMARK INTRA:                  -0.997
REMARK UNBOUND:                -1.042
REMARK  5 active torsions:
REMARK  status: ('A' for Active; 'I' for Inactive)
REMARK    1  A    between atoms: N8_1  and  C24_2 
REMARK    2  A    between atoms: N8_1  and  C7_8 
REMARK    3  A    between atoms: C2_13  and  N1_14 
REMARK    4  A    between atoms: N1_14  and  C17_15 
REMARK    5  A    between atoms: C14_16  and  C13_19 
ROOT
ATOM      1  C17 FTA A   1       7.243  13.123  11.311  1.00  0.00     0.142 C 
ATOM      2  C14 FTA A   1       7.220  12.869   9.988  1.00  0.00     0.158 C 
ATOM      3  C18 FTA A   1       7.759  13.833   9.053  1.00  0.00     0.069 C 
ATOM      4  N21 FTA A   1       8.175  14.723   8.414  1.00  0.00    -0.197 NA
ENDROOT
BRANCH   2   5
ATOM      5  C13 FTA A   1       6.654  11.590   9.502  1.00  0.00     0.197 A 
ATOM      6  N15 FTA A   1       7.364  10.417   9.255  1.00  0.00    -0.093 NA
ATOM      7  N19 FTA A   1       6.463   9.478   8.770  1.00  0.00    -0.231 N 
ATOM      8  N20 FTA A   1       5.200  10.047   8.708  1.00  0.00    -0.017 NA
ATOM      9  H15 FTA A   1       6.696   8.511   8.498  1.00  0.00     0.200 HD
ATOM     10  N16 FTA A   1       5.314  11.354   9.172  1.00  0.00    -0.090 NA
ENDBRANCH   2   5
BRANCH   1  11
ATOM     11  N1  FTA A   1       6.097  13.029  12.013  1.00  0.00    -0.389 N 
ATOM     12  H11 FTA A   1       6.004  12.240  12.669  1.00  0.00     0.159 HD
BRANCH  11  13
ATOM     13  C2  FTA A   1       5.007  13.936  11.918  1.00  0.00     0.028 A 
ATOM     14  C4  FTA A   1       5.068  15.226  12.438  1.00  0.00     0.031 A 
ATOM     15  C6  FTA A   1       3.892  15.984  12.517  1.00  0.00     0.031 A 
ATOM     16  C7  FTA A   1       2.662  15.487  12.095  1.00  0.00     0.032 A 
ATOM     17  C5  FTA A   1       2.622  14.213  11.558  1.00  0.00     0.031 A 
ATOM     18  C3  FTA A   1       3.774  13.440  11.483  1.00  0.00     0.031 A 
BRANCH  16  19
ATOM     19  N8  FTA A   1       1.434  16.148  12.356  1.00  0.00    -0.356 N 
ATOM     20  H1  FTA A   1       1.477  17.153  12.580  1.00  0.00     0.166 HD
BRANCH  19  21
ATOM     21  C24 FTA A   1       0.144  15.536  12.334  1.00  0.00     0.032 A 
ATOM     22  C26 FTA A   1      -0.255  14.662  13.317  1.00  0.00     0.029 A 
ATOM     23  C28 FTA A   1      -1.441  13.973  13.148  1.00  0.00     0.002 A 
ATOM     24  C30 FTA A   1      -2.255  14.153  12.043  1.00  0.00     0.000 A 
ATOM     25  C29 FTA A   1      -1.886  15.049  11.074  1.00  0.00     0.002 A 
ATOM     26  C27 FTA A   1      -0.684  15.746  11.241  1.00  0.00     0.029 A 
ENDBRANCH  19  21
ENDBRANCH  16  19
ENDBRANCH  11  13
ENDBRANCH   1  11
TORSDOF 5
ENDMDL
MODEL 2
REMARK VINA RESULT:    -6.407      0.917      1.383
REMARK INTER + INTRA:          -9.322
REMARK INTER:                  -8.411
REMARK INTRA:                  -0.911
REMARK UNBOUND:                -1.042
REMARK  5 active torsions:
REMARK  status: ('A' for Active; 'I' for Inactive)
REMARK    1  A    between atoms: N8_1  and  C24_2 
REMARK    2  A    between atoms: N8_1  and  C7_8 
REMARK    3  A    between atoms: C2_13  and  N1_14 
REMARK    4  A    between atoms: N1_14  and  C17_15 
REMARK    5  A    between atoms: C14_16  and  C13_19 
ROOT
ATOM      1  C17 FTA A   1       7.228  13.119  11.342  1.00  0.00     0.142 C 
ATOM      2  C14 FTA A   1       7.226  12.863  10.019  1.00  0.00     0.158 C 
ATOM      3  C18 FTA A   1       7.785  13.823   9.092  1.00  0.00     0.069 C 
ATOM      4  N21 FTA A   1       8.217  14.711   8.459  1.00  0.00    -0.197 NA
ENDROOT
BRANCH   2   5
ATOM      5  C13 FTA A   1       6.662  11.586   9.525  1.00  0.00     0.197 A 
ATOM      6  N15 FTA A   1       7.369  10.407   9.299  1.00  0.00    -0.093 NA
ATOM      7  N19 FTA A   1       6.473   9.472   8.797  1.00  0.00    -0.231 N 
ATOM      8  N20 FTA A   1       5.216  10.051   8.703  1.00  0.00    -0.017 NA
ATOM      9  H15 FTA A   1       6.705   8.503   8.535  1.00  0.00     0.200 HD
ATOM     10  N16 FTA A   1       5.328  11.359   9.165  1.00  0.00    -0.090 NA
ENDBRANCH   2   5
BRANCH   1  11
ATOM     11  N1  FTA A   1       6.070  13.031  12.025  1.00  0.00    -0.389 N 
ATOM     12  H11 FTA A   1       5.961  12.242  12.677  1.00  0.00     0.159 HD
BRANCH  11  13
ATOM     13  C2  FTA A   1       4.987  13.946  11.913  1.00  0.00     0.028 A 
ATOM     14  C4  FTA A   1       5.029  15.217  12.481  1.00  0.00     0.031 A 
ATOM     15  C6  FTA A   1       3.852  15.976  12.534  1.00  0.00     0.031 A 
ATOM     16  C7  FTA A   1       2.641  15.500  12.039  1.00  0.00     0.032 A 
ATOM     17  C5  FTA A   1       2.622  14.246  11.456  1.00  0.00     0.031 A 
ATOM     18  C3  FTA A   1       3.774  13.472  11.405  1.00  0.00     0.031 A 
BRANCH  16  19
ATOM     19  N8  FTA A   1       1.405  16.157  12.268  1.00  0.00    -0.356 N 
ATOM     20  H1  FTA A   1       1.179  16.962  11.667  1.00  0.00     0.166 HD
BRANCH  19  21
ATOM     21  C24 FTA A   1       0.448  15.794  13.264  1.00  0.00     0.032 A 
ATOM     22  C26 FTA A   1       0.298  16.523  14.419  1.00  0.00     0.029 A 
ATOM     23  C28 FTA A   1      -0.519  16.024  15.416  1.00  0.00     0.002 A 
ATOM     24  C30 FTA A   1      -1.214  14.835  15.281  1.00  0.00     0.000 A 
ATOM     25  C29 FTA A   1      -1.103  14.118  14.119  1.00  0.00     0.002 A 
ATOM     26  C27 FTA A   1      -0.274  14.619  13.109  1.00  0.00     0.029 A 
ENDBRANCH  19  21
ENDBRANCH  16  19
ENDBRANCH  11  13
ENDBRANCH   1  11
TORSDOF 5
ENDMDL
MODEL 3
REMARK VINA RESULT:    -6.292      3.133      5.423
REMARK INTER + INTRA:          -9.173
REMARK INTER:                  -8.127
REMARK INTRA:                  -1.046
REMARK UNBOUND:                -1.042
REMARK  5 active torsions:
REMARK  status: ('A' for Active; 'I' for Inactive)
REMARK    1  A    between atoms: N8_1  and  C24_2 
REMARK    2  A    between atoms: N8_1  and  C7_8 
REMARK    3  A    between atoms: C2_13  and  N1_14 
REMARK    4  A    between atoms: N1_14  and  C17_15 
REMARK    5  A    between atoms: C14_16  and  C13_19 
ROOT
ATOM      1  C17 FTA A   1       4.247  13.315   9.324  1.00  0.00     0.142 C 
ATOM      2  C14 FTA A   1       4.561  12.253   8.556  1.00  0.00     0.158 C 
ATOM      3  C18 FTA A   1       3.831  11.999   7.333  1.00  0.00     0.069 C 
ATOM      4  N21 FTA A   1       3.121  11.885   6.406  1.00  0.00    -0.197 NA
ENDROOT
BRANCH   2   5
ATOM      5  C13 FTA A   1       5.668  11.360   8.966  1.00  0.00     0.197 A 
ATOM      6  N15 FTA A   1       5.917  10.080   8.476  1.00  0.00    -0.093 NA
ATOM      7  N19 FTA A   1       7.017   9.577   9.158  1.00  0.00    -0.231 N 
ATOM      8  N20 FTA A   1       7.459  10.524  10.070  1.00  0.00    -0.017 NA
ATOM      9  H15 FTA A   1       7.439   8.649   9.010  1.00  0.00     0.200 HD
ATOM     10  N16 FTA A   1       6.630  11.635   9.945  1.00  0.00    -0.090 NA
ENDBRANCH   2   5
BRANCH   1  11
ATOM     11  N1  FTA A   1       3.992  13.121  10.632  1.00  0.00    -0.389 N 
ATOM     12  H11 FTA A   1       3.679  12.183  10.921  1.00  0.00     0.159 HD
BRANCH  11  13
ATOM     13  C2  FTA A   1       4.122  14.111  11.644  1.00  0.00     0.028 A 
ATOM     14  C4  FTA A   1       3.209  15.153  11.783  1.00  0.00     0.031 A 
ATOM     15  C6  FTA A   1       3.517  16.216  12.643  1.00  0.00     0.031 A 
ATOM     16  C7  FTA A   1       4.708  16.266  13.362  1.00  0.00     0.032 A 
ATOM     17  C5  FTA A   1       5.593  15.210  13.232  1.00  0.00     0.031 A 
ATOM     18  C3  FTA A   1       5.313  14.154  12.375  1.00  0.00     0.031 A 
BRANCH  16  19
ATOM     19  N8  FTA A   1       5.132  17.419  14.070  1.00  0.00    -0.356 N 
ATOM     20  H1  FTA A   1       4.902  18.336  13.660  1.00  0.00     0.166 HD
BRANCH  19  21
ATOM     21  C24 FTA A   1       5.852  17.414  15.303  1.00  0.00     0.032 A 
ATOM     22  C26 FTA A   1       5.251  17.052  16.486  1.00  0.00     0.029 A 
ATOM     23  C28 FTA A   1       5.949  17.234  17.665  1.00  0.00     0.002 A 
ATOM     24  C30 FTA A   1       7.239  17.736  17.695  1.00  0.00     0.000 A 
ATOM     25  C29 FTA A   1       7.861  18.065  16.521  1.00  0.00     0.002 A 
ATOM     26  C27 FTA A   1       7.156  17.886  15.325  1.00  0.00     0.029 A 
ENDBRANCH  19  21
ENDBRANCH  16  19
ENDBRANCH  11  13
ENDBRANCH   1  11
TORSDOF 5
ENDMDL
MODEL 4
REMARK VINA RESULT:    -6.058      0.983      1.666
REMARK INTER + INTRA:          -8.872
REMARK INTER:                  -7.923
REMARK INTRA:                  -0.948
REMARK UNBOUND:                -1.042
REMARK  5 active torsions:
REMARK  status: ('A' for Active; 'I' for Inactive)
REMARK    1  A    between atoms: N8_1  and  C24_2 
REMARK    2  A    between atoms: N8_1  and  C7_8 
REMARK    3  A    between atoms: C2_13  and  N1_14 
REMARK    4  A    between atoms: N1_14  and  C17_15 
REMARK    5  A    between atoms: C14_16  and  C13_19 
ROOT
ATOM      1  C17 FTA A   1       7.645  13.198  11.614  1.00  0.00     0.142 C 
ATOM      2  C14 FTA A   1       8.255  13.042  10.422  1.00  0.00     0.158 C 
ATOM      3  C18 FTA A   1       8.943  14.155   9.805  1.00  0.00     0.069 C 
ATOM      4  N21 FTA A   1       9.408  15.152   9.400  1.00  0.00    -0.197 NA
ENDROOT
BRANCH   2   5
ATOM      5  C13 FTA A   1       8.228  11.718   9.759  1.00  0.00     0.197 A 
ATOM      6  N15 FTA A   1       7.191  10.789   9.818  1.00  0.00    -0.093 NA
ATOM      7  N19 FTA A   1       7.590   9.671   9.099  1.00  0.00    -0.231 N 
ATOM      8  N20 FTA A   1       8.863   9.885   8.593  1.00  0.00    -0.017 NA
ATOM      9  H15 FTA A   1       7.029   8.817   8.963  1.00  0.00     0.200 HD
ATOM     10  N16 FTA A   1       9.257  11.158   8.992  1.00  0.00    -0.090 NA
ENDBRANCH   2   5
BRANCH   1  11
ATOM     11  N1  FTA A   1       6.353  12.840  11.737  1.00  0.00    -0.389 N 
ATOM     12  H11 FTA A   1       6.146  11.836  11.845  1.00  0.00     0.159 HD
BRANCH  11  13
ATOM     13  C2  FTA A   1       5.253  13.740  11.728  1.00  0.00     0.028 A 
ATOM     14  C4  FTA A   1       5.305  14.980  12.361  1.00  0.00     0.031 A 
ATOM     15  C6  FTA A   1       4.121  15.715  12.514  1.00  0.00     0.031 A 
ATOM     16  C7  FTA A   1       2.894  15.246  12.054  1.00  0.00     0.032 A 
ATOM     17  C5  FTA A   1       2.863  14.024  11.405  1.00  0.00     0.031 A 
ATOM     18  C3  FTA A   1       4.023  13.274  11.256  1.00  0.00     0.031 A 
BRANCH  16  19
ATOM     19  N8  FTA A   1       1.661  15.868  12.379  1.00  0.00    -0.356 N 
ATOM     20  H1  FTA A   1       1.703  16.811  12.791  1.00  0.00     0.166 HD
BRANCH  19  21
ATOM     21  C24 FTA A   1       0.369  15.295  12.182  1.00  0.00     0.032 A 
ATOM     22  C26 FTA A   1      -0.422  15.649  11.114  1.00  0.00     0.029 A 
ATOM     23  C28 FTA A   1      -1.725  15.191  11.074  1.00  0.00     0.002 A 
ATOM     24  C30 FTA A   1      -2.253  14.365  12.053  1.00  0.00     0.000 A 
ATOM     25  C29 FTA A   1      -1.464  13.975  13.102  1.00  0.00     0.002 A 
ATOM     26  C27 FTA A   1      -0.145  14.440  13.147  1.00  0.00     0.029 A 
ENDBRANCH  19  21
ENDBRANCH  16  19
ENDBRANCH  11  13
ENDBRANCH   1  11
TORSDOF 5
ENDMDL
MODEL 5
REMARK VINA RESULT:    -5.992      3.904      5.262
REMARK INTER + INTRA:          -8.787
REMARK INTER:                  -7.740
REMARK INTRA:                  -1.047
REMARK UNBOUND:                -1.042
REMARK  5 active torsions:
REMARK  status: ('A' for Active; 'I' for Inactive)
REMARK    1  A    between atoms: N8_1  and  C24_2 
REMARK    2  A    between atoms: N8_1  and  C7_8 
REMARK    3  A    between atoms: C2_13  and  N1_14 
REMARK    4  A    between atoms: N1_14  and  C17_15 
REMARK    5  A    between atoms: C14_16  and  C13_19 
ROOT
ATOM      1  C17 FTA A   1       8.196  12.963  10.378  1.00  0.00     0.142 C 
ATOM      2  C14 FTA A   1       8.126  11.833   9.647  1.00  0.00     0.158 C 
ATOM      3  C18 FTA A   1       9.336  11.187   9.186  1.00  0.00     0.069 C 
ATOM      4  N21 FTA A   1      10.389  10.810   8.834  1.00  0.00    -0.197 NA
ENDROOT
BRANCH   2   5
ATOM      5  C13 FTA A   1       6.801  11.249   9.335  1.00  0.00     0.197 A 
ATOM      6  N15 FTA A   1       5.566  11.740   9.754  1.00  0.00    -0.093 NA
ATOM      7  N19 FTA A   1       4.589  10.874   9.281  1.00  0.00    -0.231 N 
ATOM      8  N20 FTA A   1       5.196   9.847   8.574  1.00  0.00    -0.017 NA
ATOM      9  H15 FTA A   1       3.575  10.978   9.432  1.00  0.00     0.200 HD
ATOM     10  N16 FTA A   1       6.567  10.083   8.596  1.00  0.00    -0.090 NA
ENDBRANCH   2   5
BRANCH   1  11
ATOM     11  N1  FTA A   1       7.492  14.040   9.981  1.00  0.00    -0.389 N 
ATOM     12  H11 FTA A   1       7.513  14.280   8.979  1.00  0.00     0.159 HD
BRANCH  11  13
ATOM     13  C2  FTA A   1       6.722  14.873  10.838  1.00  0.00     0.028 A 
ATOM     14  C4  FTA A   1       6.666  16.254  10.675  1.00  0.00     0.031 A 
ATOM     15  C6  FTA A   1       6.083  17.035  11.683  1.00  0.00     0.031 A 
ATOM     16  C7  FTA A   1       5.559  16.473  12.844  1.00  0.00     0.032 A 
ATOM     17  C5  FTA A   1       5.600  15.096  12.980  1.00  0.00     0.031 A 
ATOM     18  C3  FTA A   1       6.186  14.307  11.999  1.00  0.00     0.031 A 
BRANCH  16  19
ATOM     19  N8  FTA A   1       5.157  17.249  13.961  1.00  0.00    -0.356 N 
ATOM     20  H1  FTA A   1       4.304  17.817  13.860  1.00  0.00     0.166 HD
BRANCH  19  21
ATOM     21  C24 FTA A   1       5.838  17.307  15.215  1.00  0.00     0.032 A 
ATOM     22  C26 FTA A   1       5.234  16.904  16.382  1.00  0.00     0.029 A 
ATOM     23  C28 FTA A   1       5.880  17.146  17.580  1.00  0.00     0.002 A 
ATOM     24  C30 FTA A   1       7.124  17.751  17.644  1.00  0.00     0.000 A 
ATOM     25  C29 FTA A   1       7.753  18.123  16.486  1.00  0.00     0.002 A 
ATOM     26  C27 FTA A   1       7.100  17.882  15.272  1.00  0.00     0.029 A 
ENDBRANCH  19  21
ENDBRANCH  16  19
ENDBRANCH  11  13
ENDBRANCH   1  11
TORSDOF 5
ENDMDL
MODEL 6
REMARK VINA RESULT:    -5.985      3.497      9.071
REMARK INTER + INTRA:          -8.777
REMARK INTER:                  -7.851
REMARK INTRA:                  -0.926
REMARK UNBOUND:                -1.042
REMARK  5 active torsions:
REMARK  status: ('A' for Active; 'I' for Inactive)
REMARK    1  A    between atoms: N8_1  and  C24_2 
REMARK    2  A    between atoms: N8_1  and  C7_8 
REMARK    3  A    between atoms: C2_13  and  N1_14 
REMARK    4  A    between atoms: N1_14  and  C17_15 
REMARK    5  A    between atoms: C14_16  and  C13_19 
ROOT
ATOM      1  C17 FTA A   1       5.469  13.929  11.501  1.00  0.00     0.142 C 
ATOM      2  C14 FTA A   1       4.289  13.590  10.944  1.00  0.00     0.158 C 
ATOM      3  C18 FTA A   1       3.048  14.027  11.547  1.00  0.00     0.069 C 
ATOM      4  N21 FTA A   1       2.129  14.399  12.173  1.00  0.00    -0.197 NA
ENDROOT
BRANCH   2   5
ATOM      5  C13 FTA A   1       4.274  12.783   9.703  1.00  0.00     0.197 A 
ATOM      6  N15 FTA A   1       4.277  13.277   8.400  1.00  0.00    -0.093 NA
ATOM      7  N19 FTA A   1       4.213  12.188   7.540  1.00  0.00    -0.231 N 
ATOM      8  N20 FTA A   1       4.167  11.020   8.287  1.00  0.00    -0.017 NA
ATOM      9  H15 FTA A   1       4.201  12.240   6.511  1.00  0.00     0.200 HD
ATOM     10  N16 FTA A   1       4.216  11.386   9.628  1.00  0.00    -0.090 NA
ENDBRANCH   2   5
BRANCH   1  11
ATOM     11  N1  FTA A   1       6.361  12.958  11.777  1.00  0.00    -0.389 N 
ATOM     12  H11 FTA A   1       6.172  12.356  12.591  1.00  0.00     0.159 HD
BRANCH  11  13
ATOM     13  C2  FTA A   1       7.543  12.701  11.030  1.00  0.00     0.028 A 
ATOM     14  C4  FTA A   1       8.535  13.662  10.859  1.00  0.00     0.031 A 
ATOM     15  C6  FTA A   1       9.557  13.427   9.929  1.00  0.00     0.031 A 
ATOM     16  C7  FTA A   1       9.610  12.263   9.167  1.00  0.00     0.032 A 
ATOM     17  C5  FTA A   1       8.630  11.307   9.366  1.00  0.00     0.031 A 
ATOM     18  C3  FTA A   1       7.602  11.526  10.274  1.00  0.00     0.031 A 
BRANCH  16  19
ATOM     19  N8  FTA A   1      10.505  12.095   8.079  1.00  0.00    -0.356 N 
ATOM     20  H1  FTA A   1      10.106  12.122   7.130  1.00  0.00     0.166 HD
BRANCH  19  21
ATOM     21  C24 FTA A   1      11.914  11.892   8.192  1.00  0.00     0.032 A 
ATOM     22  C26 FTA A   1      12.804  12.932   8.064  1.00  0.00     0.029 A 
ATOM     23  C28 FTA A   1      14.155  12.645   8.011  1.00  0.00     0.002 A 
ATOM     24  C30 FTA A   1      14.644  11.354   8.113  1.00  0.00     0.000 A 
ATOM     25  C29 FTA A   1      13.770  10.313   8.279  1.00  0.00     0.002 A 
ATOM     26  C27 FTA A   1      12.401  10.601   8.330  1.00  0.00     0.029 A 
ENDBRANCH  19  21
ENDBRANCH  16  19
ENDBRANCH  11  13
ENDBRANCH   1  11
TORSDOF 5
ENDMDL
MODEL 7
REMARK VINA RESULT:    -5.920      1.949      2.835
REMARK INTER + INTRA:          -8.693
REMARK INTER:                  -7.660
REMARK INTRA:                  -1.033
REMARK UNBOUND:                -1.042
REMARK  5 active torsions:
REMARK  status: ('A' for Active; 'I' for Inactive)
REMARK    1  A    between atoms: N8_1  and  C24_2 
REMARK    2  A    between atoms: N8_1  and  C7_8 
REMARK    3  A    between atoms: C2_13  and  N1_14 
REMARK    4  A    between atoms: N1_14  and  C17_15 
REMARK    5  A    between atoms: C14_16  and  C13_19 
ROOT
ATOM      1  C17 FTA A   1       5.243  13.814   8.505  1.00  0.00     0.142 C 
ATOM      2  C14 FTA A   1       5.079  12.518   8.171  1.00  0.00     0.158 C 
ATOM      3  C18 FTA A   1       4.007  12.126   7.281  1.00  0.00     0.069 C 
ATOM      4  N21 FTA A   1       3.068  11.950   6.601  1.00  0.00    -0.197 NA
ENDROOT
BRANCH   2   5
ATOM      5  C13 FTA A   1       6.013  11.504   8.711  1.00  0.00     0.197 A 
ATOM      6  N15 FTA A   1       6.364  10.302   8.099  1.00  0.00    -0.093 NA
ATOM      7  N19 FTA A   1       7.224   9.632   8.959  1.00  0.00    -0.231 N 
ATOM      8  N20 FTA A   1       7.413  10.396  10.101  1.00  0.00    -0.017 NA
ATOM      9  H15 FTA A   1       7.653   8.712   8.778  1.00  0.00     0.200 HD
ATOM     10  N16 FTA A   1       6.672  11.562   9.944  1.00  0.00    -0.090 NA
ENDBRANCH   2   5
BRANCH   1  11
ATOM     11  N1  FTA A   1       5.311  14.147   9.809  1.00  0.00    -0.389 N 
ATOM     12  H11 FTA A   1       6.229  14.074  10.271  1.00  0.00     0.159 HD
BRANCH  11  13
ATOM     13  C2  FTA A   1       4.213  14.592  10.595  1.00  0.00     0.028 A 
ATOM     14  C4  FTA A   1       3.450  13.717  11.364  1.00  0.00     0.031 A 
ATOM     15  C6  FTA A   1       2.251  14.175  11.928  1.00  0.00     0.031 A 
ATOM     16  C7  FTA A   1       1.797  15.478  11.741  1.00  0.00     0.032 A 
ATOM     17  C5  FTA A   1       2.579  16.342  10.995  1.00  0.00     0.031 A 
ATOM     18  C3  FTA A   1       3.764  15.903  10.417  1.00  0.00     0.031 A 
BRANCH  16  19
ATOM     19  N8  FTA A   1       0.498  15.902  12.121  1.00  0.00    -0.356 N 
ATOM     20  H1  FTA A   1      -0.065  16.394  11.412  1.00  0.00     0.166 HD
BRANCH  19  21
ATOM     21  C24 FTA A   1      -0.094  15.703  13.405  1.00  0.00     0.032 A 
ATOM     22  C26 FTA A   1      -0.913  14.629  13.662  1.00  0.00     0.029 A 
ATOM     23  C28 FTA A   1      -1.591  14.586  14.866  1.00  0.00     0.002 A 
ATOM     24  C30 FTA A   1      -1.450  15.567  15.833  1.00  0.00     0.000 A 
ATOM     25  C29 FTA A   1      -0.608  16.622  15.604  1.00  0.00     0.002 A 
ATOM     26  C27 FTA A   1       0.076  16.670  14.385  1.00  0.00     0.029 A 
ENDBRANCH  19  21
ENDBRANCH  16  19
ENDBRANCH  11  13
ENDBRANCH   1  11
TORSDOF 5
ENDMDL
MODEL 8
REMARK VINA RESULT:    -5.869      1.432      2.084
REMARK INTER + INTRA:          -8.627
REMARK INTER:                  -7.568
REMARK INTRA:                  -1.059
REMARK UNBOUND:                -1.042
REMARK  5 active torsions:
REMARK  status: ('A' for Active; 'I' for Inactive)
REMARK    1  A    between atoms: N8_1  and  C24_2 
REMARK    2  A    between atoms: N8_1  and  C7_8 
REMARK    3  A    between atoms: C2_13  and  N1_14 
REMARK    4  A    between atoms: N1_14  and  C17_15 
REMARK    5  A    between atoms: C14_16  and  C13_19 
ROOT
ATOM      1  C17 FTA A   1       6.395  13.997   8.973  1.00  0.00     0.142 C 
ATOM      2  C14 FTA A   1       5.706  13.132   8.203  1.00  0.00     0.158 C 
ATOM      3  C18 FTA A   1       4.868  13.621   7.129  1.00  0.00     0.069 C 
ATOM      4  N21 FTA A   1       4.189  14.160   6.339  1.00  0.00    -0.197 NA
ENDROOT
BRANCH   2   5
ATOM      5  C13 FTA A   1       5.826  11.678   8.455  1.00  0.00     0.197 A 
ATOM      6  N15 FTA A   1       6.971  11.010   8.885  1.00  0.00    -0.093 NA
ATOM      7  N19 FTA A   1       6.666   9.656   8.950  1.00  0.00    -0.231 N 
ATOM      8  N20 FTA A   1       5.347   9.468   8.564  1.00  0.00    -0.017 NA
ATOM      9  H15 FTA A   1       7.315   8.910   9.238  1.00  0.00     0.200 HD
ATOM     10  N16 FTA A   1       4.821  10.722   8.267  1.00  0.00    -0.090 NA
ENDBRANCH   2   5
BRANCH   1  11
ATOM     11  N1  FTA A   1       6.265  13.924  10.312  1.00  0.00    -0.389 N 
ATOM     12  H11 FTA A   1       7.061  13.550  10.847  1.00  0.00     0.159 HD
BRANCH  11  13
ATOM     13  C2  FTA A   1       5.112  14.325  11.042  1.00  0.00     0.028 A 
ATOM     14  C4  FTA A   1       4.055  13.454  11.293  1.00  0.00     0.031 A 
ATOM     15  C6  FTA A   1       2.859  13.969  11.811  1.00  0.00     0.031 A 
ATOM     16  C7  FTA A   1       2.692  15.325  12.081  1.00  0.00     0.032 A 
ATOM     17  C5  FTA A   1       3.761  16.173  11.850  1.00  0.00     0.031 A 
ATOM     18  C3  FTA A   1       4.950  15.684  11.324  1.00  0.00     0.031 A 
BRANCH  16  19
ATOM     19  N8  FTA A   1       1.435  15.897  12.404  1.00  0.00    -0.356 N 
ATOM     20  H1  FTA A   1       1.439  16.834  12.833  1.00  0.00     0.166 HD
BRANCH  19  21
ATOM     21  C24 FTA A   1       0.166  15.281  12.185  1.00  0.00     0.032 A 
ATOM     22  C26 FTA A   1      -0.607  15.593  11.091  1.00  0.00     0.029 A 
ATOM     23  C28 FTA A   1      -1.894  15.095  11.026  1.00  0.00     0.002 A 
ATOM     24  C30 FTA A   1      -2.421  14.269  12.005  1.00  0.00     0.000 A 
ATOM     25  C29 FTA A   1      -1.648  13.920  13.080  1.00  0.00     0.002 A 
ATOM     26  C27 FTA A   1      -0.346  14.426  13.150  1.00  0.00     0.029 A 
ENDBRANCH  19  21
ENDBRANCH  16  19
ENDBRANCH  11  13
ENDBRANCH   1  11
TORSDOF 5
ENDMDL
MODEL 9
REMARK VINA RESULT:    -5.792      4.100      6.028
REMARK INTER + INTRA:          -8.527
REMARK INTER:                  -7.485
REMARK INTRA:                  -1.042
REMARK UNBOUND:                -1.042
REMARK  5 active torsions:
REMARK  status: ('A' for Active; 'I' for Inactive)
REMARK    1  A    between atoms: N8_1  and  C24_2 
REMARK    2  A    between atoms: N8_1  and  C7_8 
REMARK    3  A    between atoms: C2_13  and  N1_14 
REMARK    4  A    between atoms: N1_14  and  C17_15 
REMARK    5  A    between atoms: C14_16  and  C13_19 
ROOT
ATOM      1  C17 FTA A   1       7.729  10.041   7.140  1.00  0.00     0.142 C 
ATOM      2  C14 FTA A   1       8.945   9.622   6.735  1.00  0.00     0.158 C 
ATOM      3  C18 FTA A   1       9.062   8.669   5.653  1.00  0.00     0.069 C 
ATOM      4  N21 FTA A   1       9.003   7.857   4.809  1.00  0.00    -0.197 NA
ENDROOT
BRANCH   2   5
ATOM      5  C13 FTA A   1      10.157  10.156   7.397  1.00  0.00     0.197 A 
ATOM      6  N15 FTA A   1      11.071  11.048   6.842  1.00  0.00    -0.093 NA
ATOM      7  N19 FTA A   1      12.078  11.252   7.777  1.00  0.00    -0.231 N 
ATOM      8  N20 FTA A   1      11.806  10.497   8.909  1.00  0.00    -0.017 NA
ATOM      9  H15 FTA A   1      12.896  11.865   7.650  1.00  0.00     0.200 HD
ATOM     10  N16 FTA A   1      10.610   9.825   8.680  1.00  0.00    -0.090 NA
ENDBRANCH   2   5
BRANCH   1  11
ATOM     11  N1  FTA A   1       7.410   9.950   8.445  1.00  0.00    -0.389 N 
ATOM     12  H11 FTA A   1       7.430   9.014   8.876  1.00  0.00     0.159 HD
BRANCH  11  13
ATOM     13  C2  FTA A   1       7.048  11.047   9.274  1.00  0.00     0.028 A 
ATOM     14  C4  FTA A   1       7.859  11.486  10.318  1.00  0.00     0.031 A 
ATOM     15  C6  FTA A   1       7.344  12.413  11.235  1.00  0.00     0.031 A 
ATOM     16  C7  FTA A   1       6.046  12.907  11.138  1.00  0.00     0.032 A 
ATOM     17  C5  FTA A   1       5.262  12.480  10.081  1.00  0.00     0.031 A 
ATOM     18  C3  FTA A   1       5.749  11.551   9.169  1.00  0.00     0.031 A 
BRANCH  16  19
ATOM     19  N8  FTA A   1       5.438  13.676  12.162  1.00  0.00    -0.356 N 
ATOM     20  H1  FTA A   1       4.697  13.223  12.717  1.00  0.00     0.166 HD
BRANCH  19  21
ATOM     21  C24 FTA A   1       5.766  15.027  12.487  1.00  0.00     0.032 A 
ATOM     22  C26 FTA A   1       6.366  15.862  11.575  1.00  0.00     0.029 A 
ATOM     23  C28 FTA A   1       6.814  17.098  12.002  1.00  0.00     0.002 A 
ATOM     24  C30 FTA A   1       6.652  17.536  13.306  1.00  0.00     0.000 A 
ATOM     25  C29 FTA A   1       6.022  16.729  14.215  1.00  0.00     0.002 A 
ATOM     26  C27 FTA A   1       5.570  15.476  13.785  1.00  0.00     0.029 A 
ENDBRANCH  19  21
ENDBRANCH  16  19
ENDBRANCH  11  13
ENDBRANCH   1  11
TORSDOF 5
ENDMDL
