MODEL 1
REMARK VINA RESULT:    -8.696      0.000      0.000
REMARK INTER + INTRA:         -12.243
REMARK INTER:                 -11.544
REMARK INTRA:                  -0.698
REMARK UNBOUND:                -1.259
REMARK  5 active torsions:
REMARK  status: ('A' for Active; 'I' for Inactive)
REMARK    1  A    between atoms: C_7  and  N_8 
REMARK       I    between atoms: N_8  and  C_10 
REMARK    2  A    between atoms: C_10  and  C_12 
REMARK    3  A    between atoms: C_14  and  O_15 
REMARK    4  A    between atoms: C_22  and  C_23 
REMARK    5  A    between atoms: C_23  and  C_24 
ROOT
HETATM    1  C   UNL     1       8.998  12.185  24.508  0.00  0.00     0.066 A 
HETATM    2  C   UNL     1       9.562  12.050  23.206  0.00  0.00     0.035 A 
HETATM    3  C   UNL     1       9.689  11.605  25.581  0.00  0.00     0.083 A 
HETATM    4  C   UNL     1      10.939  10.991  25.423  0.00  0.00     0.069 A 
HETATM    5  C   UNL     1      11.455  10.891  24.130  0.00  0.00     0.065 A 
HETATM    6  C   UNL     1      10.812  11.410  23.015  0.00  0.00     0.020 A 
HETATM    7  N   UNL     1      12.588  10.290  23.657  0.00  0.00    -0.277 N 
HETATM    8  H   UNL     1      13.284   9.777  24.186  0.00  0.00     0.189 HD
HETATM    9  N   UNL     1      12.746  10.381  22.331  0.00  0.00    -0.178 NA
HETATM   10  C   UNL     1      11.685  11.098  21.923  0.00  0.00     0.071 A 
ENDROOT
BRANCH   1  11
HETATM   11  C   UNL     1       7.636  12.832  24.558  0.00  0.00     0.260 C 
HETATM   12  N   UNL     1       7.393  14.125  25.100  0.00  0.00    -0.318 N 
HETATM   13  C   UNL     1       8.401  14.855  25.870  0.00  0.00     0.159 C 
HETATM   14  O   UNL     1       6.746  12.130  24.065  0.00  0.00    -0.267 OA
BRANCH  12  15
HETATM   15  C   UNL     1       6.108  14.801  24.920  0.00  0.00     0.038 A 
HETATM   16  C   UNL     1       5.271  15.095  26.011  0.00  0.00     0.053 A 
HETATM   17  C   UNL     1       4.078  15.817  25.845  0.00  0.00     0.036 A 
HETATM   18 CL   UNL     1       3.100  16.193  27.218  0.00  0.00    -0.084 Cl
HETATM   19  C   UNL     1       3.675  16.256  24.590  0.00  0.00     0.024 A 
HETATM   20  C   UNL     1       4.478  15.969  23.497  0.00  0.00     0.004 A 
HETATM   21  C   UNL     1       5.679  15.256  23.662  0.00  0.00     0.030 A 
ENDBRANCH  12  15
ENDBRANCH   1  11
BRANCH   3  22
HETATM   22  O   UNL     1       9.200  11.517  26.855  0.00  0.00    -0.360 OA
HETATM   23  H   UNL     1       8.286  11.839  26.835  0.00  0.00     0.217 HD
ENDBRANCH   3  22
BRANCH  10  24
HETATM   24  C   UNL     1      11.522  11.383  20.466  0.00  0.00     0.100 C 
BRANCH  24  25
HETATM   25  C   UNL     1      10.574  12.554  20.313  0.00  0.00    -0.052 A 
HETATM   26  C   UNL     1       9.354  12.382  19.643  0.00  0.00     0.007 A 
HETATM   27  C   UNL     1       8.542  13.480  19.356  0.00  0.00     0.001 A 
HETATM   28  C   UNL     1       8.921  14.759  19.759  0.00  0.00     0.007 A 
HETATM   29  C   UNL     1      10.105  14.952  20.479  0.00  0.00    -0.061 A 
HETATM   30  C   UNL     1      10.924  13.845  20.754  0.00  0.00     0.014 A 
HETATM   31  C   UNL     1      10.460  16.316  20.992  0.00  0.00     0.048 C 
ENDBRANCH  24  25
ENDBRANCH  10  24
TORSDOF 5
ENDMDL
MODEL 2
REMARK VINA RESULT:    -8.551      2.473      4.460
REMARK INTER + INTRA:         -12.060
REMARK INTER:                 -11.330
REMARK INTRA:                  -0.730
REMARK UNBOUND:                -1.259
REMARK  5 active torsions:
REMARK  status: ('A' for Active; 'I' for Inactive)
REMARK    1  A    between atoms: C_7  and  N_8 
REMARK       I    between atoms: N_8  and  C_10 
REMARK    2  A    between atoms: C_10  and  C_12 
REMARK    3  A    between atoms: C_14  and  O_15 
REMARK    4  A    between atoms: C_22  and  C_23 
REMARK    5  A    between atoms: C_23  and  C_24 
ROOT
HETATM    1  C   UNL     1       8.982  14.921  21.549  0.00  0.00     0.066 A 
HETATM    2  C   UNL     1       9.361  13.557  21.393  0.00  0.00     0.035 A 
HETATM    3  C   UNL     1       9.961  15.899  21.330  0.00  0.00     0.083 A 
HETATM    4  C   UNL     1      11.251  15.581  20.881  0.00  0.00     0.069 A 
HETATM    5  C   UNL     1      11.572  14.230  20.734  0.00  0.00     0.065 A 
HETATM    6  C   UNL     1      10.665  13.206  20.966  0.00  0.00     0.020 A 
HETATM    7  N   UNL     1      12.746  13.615  20.397  0.00  0.00    -0.277 N 
HETATM    8  H   UNL     1      13.637  14.053  20.193  0.00  0.00     0.189 HD
HETATM    9  N   UNL     1      12.681  12.279  20.379  0.00  0.00    -0.178 NA
HETATM   10  C   UNL     1      11.401  12.008  20.688  0.00  0.00     0.071 A 
ENDROOT
BRANCH   1  11
HETATM   11  C   UNL     1       7.583  15.149  22.067  0.00  0.00     0.260 C 
HETATM   12  N   UNL     1       6.932  14.288  22.995  0.00  0.00    -0.318 N 
HETATM   13  C   UNL     1       7.469  12.975  23.357  0.00  0.00     0.159 C 
HETATM   14  O   UNL     1       7.058  16.173  21.616  0.00  0.00    -0.267 OA
BRANCH  12  15
HETATM   15  C   UNL     1       5.676  14.668  23.640  0.00  0.00     0.038 A 
HETATM   16  C   UNL     1       4.440  14.160  23.203  0.00  0.00     0.053 A 
HETATM   17  C   UNL     1       3.244  14.462  23.877  0.00  0.00     0.036 A 
HETATM   18 CL   UNL     1       1.753  13.783  23.332  0.00  0.00    -0.084 Cl
HETATM   19  C   UNL     1       3.240  15.287  24.995  0.00  0.00     0.024 A 
HETATM   20  C   UNL     1       4.446  15.810  25.438  0.00  0.00     0.004 A 
HETATM   21  C   UNL     1       5.646  15.499  24.773  0.00  0.00     0.030 A 
ENDBRANCH  12  15
ENDBRANCH   1  11
BRANCH   3  22
HETATM   22  O   UNL     1       9.793  17.232  21.589  0.00  0.00    -0.360 OA
HETATM   23  H   UNL     1       8.883  17.351  21.899  0.00  0.00     0.217 HD
ENDBRANCH   3  22
BRANCH  10  24
HETATM   24  C   UNL     1      10.966  10.583  20.780  0.00  0.00     0.100 C 
BRANCH  24  25
HETATM   25  C   UNL     1      10.354  10.360  22.147  0.00  0.00    -0.052 A 
HETATM   26  C   UNL     1      11.103  10.632  23.301  0.00  0.00     0.007 A 
HETATM   27  C   UNL     1      10.614  10.286  24.561  0.00  0.00     0.001 A 
HETATM   28  C   UNL     1       9.362   9.690  24.690  0.00  0.00     0.007 A 
HETATM   29  C   UNL     1       8.568   9.460  23.561  0.00  0.00    -0.061 A 
HETATM   30  C   UNL     1       9.070   9.798  22.294  0.00  0.00     0.014 A 
HETATM   31  C   UNL     1       7.182   8.906  23.715  0.00  0.00     0.048 C 
ENDBRANCH  24  25
ENDBRANCH  10  24
TORSDOF 5
ENDMDL
MODEL 3
REMARK VINA RESULT:    -8.424      2.540      3.615
REMARK INTER + INTRA:         -11.899
REMARK INTER:                 -10.626
REMARK INTRA:                  -1.274
REMARK UNBOUND:                -1.259
REMARK  5 active torsions:
REMARK  status: ('A' for Active; 'I' for Inactive)
REMARK    1  A    between atoms: C_7  and  N_8 
REMARK       I    between atoms: N_8  and  C_10 
REMARK    2  A    between atoms: C_10  and  C_12 
REMARK    3  A    between atoms: C_14  and  O_15 
REMARK    4  A    between atoms: C_22  and  C_23 
REMARK    5  A    between atoms: C_23  and  C_24 
ROOT
HETATM    1  C   UNL     1       7.179  14.872  24.911  0.00  0.00     0.066 A 
HETATM    2  C   UNL     1       7.996  15.157  23.778  0.00  0.00     0.035 A 
HETATM    3  C   UNL     1       7.822  14.571  26.119  0.00  0.00     0.083 A 
HETATM    4  C   UNL     1       9.216  14.634  26.263  0.00  0.00     0.069 A 
HETATM    5  C   UNL     1       9.972  14.926  25.127  0.00  0.00     0.065 A 
HETATM    6  C   UNL     1       9.407  15.200  23.889  0.00  0.00     0.020 A 
HETATM    7  N   UNL     1      11.325  14.979  24.935  0.00  0.00    -0.277 N 
HETATM    8  H   UNL     1      12.053  14.798  25.616  0.00  0.00     0.189 HD
HETATM    9  N   UNL     1      11.692  15.274  23.682  0.00  0.00    -0.178 NA
HETATM   10  C   UNL     1      10.529  15.452  23.033  0.00  0.00     0.071 A 
ENDROOT
BRANCH   1  11
HETATM   11  C   UNL     1       5.697  14.797  24.637  0.00  0.00     0.260 C 
HETATM   12  N   UNL     1       4.949  13.587  24.648  0.00  0.00    -0.318 N 
HETATM   13  C   UNL     1       5.588  12.270  24.696  0.00  0.00     0.159 C 
HETATM   14  O   UNL     1       5.188  15.902  24.416  0.00  0.00    -0.267 OA
BRANCH  12  15
HETATM   15  C   UNL     1       3.487  13.590  24.605  0.00  0.00     0.038 A 
HETATM   16  C   UNL     1       2.718  13.883  25.745  0.00  0.00     0.053 A 
HETATM   17  C   UNL     1       1.316  13.967  25.680  0.00  0.00     0.036 A 
HETATM   18 CL   UNL     1       0.412  14.369  27.095  0.00  0.00    -0.084 Cl
HETATM   19  C   UNL     1       0.639  13.750  24.487  0.00  0.00     0.024 A 
HETATM   20  C   UNL     1       1.376  13.448  23.351  0.00  0.00     0.004 A 
HETATM   21  C   UNL     1       2.780  13.376  23.410  0.00  0.00     0.030 A 
ENDBRANCH  12  15
ENDBRANCH   1  11
BRANCH   3  22
HETATM   22  O   UNL     1       7.182  14.130  27.245  0.00  0.00    -0.360 OA
HETATM   23  H   UNL     1       6.270  13.922  26.993  0.00  0.00     0.217 HD
ENDBRANCH   3  22
BRANCH  10  24
HETATM   24  C   UNL     1      10.557  15.781  21.577  0.00  0.00     0.100 C 
BRANCH  24  25
HETATM   25  C   UNL     1      10.052  14.577  20.808  0.00  0.00    -0.052 A 
HETATM   26  C   UNL     1       8.949  14.707  19.951  0.00  0.00     0.007 A 
HETATM   27  C   UNL     1       8.376  13.582  19.358  0.00  0.00     0.001 A 
HETATM   28  C   UNL     1       8.911  12.316  19.588  0.00  0.00     0.007 A 
HETATM   29  C   UNL     1      10.046  12.164  20.392  0.00  0.00    -0.061 A 
HETATM   30  C   UNL     1      10.611  13.298  20.996  0.00  0.00     0.014 A 
HETATM   31  C   UNL     1      10.674  10.811  20.558  0.00  0.00     0.048 C 
ENDBRANCH  24  25
ENDBRANCH  10  24
TORSDOF 5
ENDMDL
MODEL 4
REMARK VINA RESULT:    -8.257      4.425      6.519
REMARK INTER + INTRA:         -11.688
REMARK INTER:                 -10.991
REMARK INTRA:                  -0.697
REMARK UNBOUND:                -1.259
REMARK  5 active torsions:
REMARK  status: ('A' for Active; 'I' for Inactive)
REMARK    1  A    between atoms: C_7  and  N_8 
REMARK       I    between atoms: N_8  and  C_10 
REMARK    2  A    between atoms: C_10  and  C_12 
REMARK    3  A    between atoms: C_14  and  O_15 
REMARK    4  A    between atoms: C_22  and  C_23 
REMARK    5  A    between atoms: C_23  and  C_24 
ROOT
HETATM    1  C   UNL     1       3.920  10.516  23.988  0.00  0.00     0.066 A 
HETATM    2  C   UNL     1       4.758  11.556  24.484  0.00  0.00     0.035 A 
HETATM    3  C   UNL     1       4.497   9.562  23.139  0.00  0.00     0.083 A 
HETATM    4  C   UNL     1       5.869   9.551  22.847  0.00  0.00     0.069 A 
HETATM    5  C   UNL     1       6.651  10.585  23.364  0.00  0.00     0.065 A 
HETATM    6  C   UNL     1       6.142  11.584  24.182  0.00  0.00     0.020 A 
HETATM    7  N   UNL     1       7.973  10.885  23.194  0.00  0.00    -0.277 N 
HETATM    8  H   UNL     1       8.652  10.390  22.627  0.00  0.00     0.189 HD
HETATM    9  N   UNL     1       8.376  11.987  23.838  0.00  0.00    -0.178 NA
HETATM   10  C   UNL     1       7.274  12.409  24.483  0.00  0.00     0.071 A 
ENDROOT
BRANCH   1  11
HETATM   11  C   UNL     1       2.457  10.644  24.336  0.00  0.00     0.260 C 
HETATM   12  N   UNL     1       1.680  11.808  24.078  0.00  0.00    -0.318 N 
HETATM   13  C   UNL     1       2.281  13.077  23.664  0.00  0.00     0.159 C 
HETATM   14  O   UNL     1       1.991   9.624  24.856  0.00  0.00    -0.267 OA
BRANCH  12  15
HETATM   15  C   UNL     1       0.225  11.803  24.221  0.00  0.00     0.038 A 
HETATM   16  C   UNL     1      -0.397  11.433  25.426  0.00  0.00     0.053 A 
HETATM   17  C   UNL     1      -1.791  11.510  25.585  0.00  0.00     0.036 A 
HETATM   18 CL   UNL     1      -2.510  11.084  27.097  0.00  0.00    -0.084 Cl
HETATM   19  C   UNL     1      -2.608  11.942  24.549  0.00  0.00     0.024 A 
HETATM   20  C   UNL     1      -2.019  12.303  23.346  0.00  0.00     0.004 A 
HETATM   21  C   UNL     1      -0.623  12.239  23.188  0.00  0.00     0.030 A 
ENDBRANCH  12  15
ENDBRANCH   1  11
BRANCH   3  22
HETATM   22  O   UNL     1       3.793   8.602  22.466  0.00  0.00    -0.360 OA
HETATM   23  H   UNL     1       3.955   8.737  21.521  0.00  0.00     0.217 HD
ENDBRANCH   3  22
BRANCH  10  24
HETATM   24  C   UNL     1       7.351  13.654  25.305  0.00  0.00     0.100 C 
BRANCH  24  25
HETATM   25  C   UNL     1       6.142  14.509  24.986  0.00  0.00    -0.052 A 
HETATM   26  C   UNL     1       5.984  15.042  23.698  0.00  0.00     0.007 A 
HETATM   27  C   UNL     1       4.964  15.956  23.430  0.00  0.00     0.001 A 
HETATM   28  C   UNL     1       4.073  16.330  24.434  0.00  0.00     0.007 A 
HETATM   29  C   UNL     1       4.173  15.771  25.712  0.00  0.00    -0.061 A 
HETATM   30  C   UNL     1       5.209  14.861  25.980  0.00  0.00     0.014 A 
HETATM   31  C   UNL     1       3.154  16.105  26.762  0.00  0.00     0.048 C 
ENDBRANCH  24  25
ENDBRANCH  10  24
TORSDOF 5
ENDMDL
MODEL 5
REMARK VINA RESULT:    -8.193      2.401      3.209
REMARK INTER + INTRA:         -11.608
REMARK INTER:                 -10.256
REMARK INTRA:                  -1.352
REMARK UNBOUND:                -1.259
REMARK  5 active torsions:
REMARK  status: ('A' for Active; 'I' for Inactive)
REMARK    1  A    between atoms: C_7  and  N_8 
REMARK       I    between atoms: N_8  and  C_10 
REMARK    2  A    between atoms: C_10  and  C_12 
REMARK    3  A    between atoms: C_14  and  O_15 
REMARK    4  A    between atoms: C_22  and  C_23 
REMARK    5  A    between atoms: C_23  and  C_24 
ROOT
HETATM    1  C   UNL     1       8.048  11.715  24.749  0.00  0.00     0.066 A 
HETATM    2  C   UNL     1       9.262  12.439  24.926  0.00  0.00     0.035 A 
HETATM    3  C   UNL     1       8.140  10.346  24.464  0.00  0.00     0.083 A 
HETATM    4  C   UNL     1       9.367   9.666  24.443  0.00  0.00     0.069 A 
HETATM    5  C   UNL     1      10.528  10.416  24.631  0.00  0.00     0.065 A 
HETATM    6  C   UNL     1      10.517  11.781  24.882  0.00  0.00     0.020 A 
HETATM    7  N   UNL     1      11.847  10.060  24.586  0.00  0.00    -0.277 N 
HETATM    8  H   UNL     1      12.234   9.145  24.390  0.00  0.00     0.189 HD
HETATM    9  N   UNL     1      12.698  11.072  24.797  0.00  0.00    -0.178 NA
HETATM   10  C   UNL     1      11.900  12.130  25.019  0.00  0.00     0.071 A 
ENDROOT
BRANCH   1  11
HETATM   11  C   UNL     1       6.791  12.549  24.758  0.00  0.00     0.260 C 
HETATM   12  N   UNL     1       6.156  13.038  23.583  0.00  0.00    -0.318 N 
HETATM   13  C   UNL     1       6.789  12.976  22.264  0.00  0.00     0.159 C 
HETATM   14  O   UNL     1       6.353  12.756  25.896  0.00  0.00    -0.267 OA
BRANCH  12  15
HETATM   15  C   UNL     1       4.824  13.643  23.627  0.00  0.00     0.038 A 
HETATM   16  C   UNL     1       3.658  12.860  23.568  0.00  0.00     0.053 A 
HETATM   17  C   UNL     1       2.382  13.435  23.695  0.00  0.00     0.036 A 
HETATM   18 CL   UNL     1       0.977  12.432  23.657  0.00  0.00    -0.084 Cl
HETATM   19  C   UNL     1       2.228  14.805  23.870  0.00  0.00     0.024 A 
HETATM   20  C   UNL     1       3.363  15.599  23.921  0.00  0.00     0.004 A 
HETATM   21  C   UNL     1       4.642  15.024  23.806  0.00  0.00     0.030 A 
ENDBRANCH  12  15
ENDBRANCH   1  11
BRANCH   3  22
HETATM   22  O   UNL     1       7.078   9.556  24.119  0.00  0.00    -0.360 OA
HETATM   23  H   UNL     1       7.051   9.518  23.152  0.00  0.00     0.217 HD
ENDBRANCH   3  22
BRANCH  10  24
HETATM   24  C   UNL     1      12.522  13.463  25.276  0.00  0.00     0.100 C 
BRANCH  24  25
HETATM   25  C   UNL     1      11.987  14.443  24.252  0.00  0.00    -0.052 A 
HETATM   26  C   UNL     1      11.127  15.475  24.655  0.00  0.00     0.007 A 
HETATM   27  C   UNL     1      10.502  16.287  23.708  0.00  0.00     0.001 A 
HETATM   28  C   UNL     1      10.750  16.101  22.349  0.00  0.00     0.007 A 
HETATM   29  C   UNL     1      11.648  15.117  21.922  0.00  0.00    -0.061 A 
HETATM   30  C   UNL     1      12.263  14.294  22.879  0.00  0.00     0.014 A 
HETATM   31  C   UNL     1      11.982  14.984  20.465  0.00  0.00     0.048 C 
ENDBRANCH  24  25
ENDBRANCH  10  24
TORSDOF 5
ENDMDL
MODEL 6
REMARK VINA RESULT:    -8.187      2.389      3.724
REMARK INTER + INTRA:         -11.600
REMARK INTER:                 -10.847
REMARK INTRA:                  -0.754
REMARK UNBOUND:                -1.259
REMARK  5 active torsions:
REMARK  status: ('A' for Active; 'I' for Inactive)
REMARK    1  A    between atoms: C_7  and  N_8 
REMARK       I    between atoms: N_8  and  C_10 
REMARK    2  A    between atoms: C_10  and  C_12 
REMARK    3  A    between atoms: C_14  and  O_15 
REMARK    4  A    between atoms: C_22  and  C_23 
REMARK    5  A    between atoms: C_23  and  C_24 
ROOT
HETATM    1  C   UNL     1       8.368  12.096  22.120  0.00  0.00     0.066 A 
HETATM    2  C   UNL     1       9.391  12.308  23.088  0.00  0.00     0.035 A 
HETATM    3  C   UNL     1       8.650  11.233  21.052  0.00  0.00     0.083 A 
HETATM    4  C   UNL     1       9.853  10.517  20.964  0.00  0.00     0.069 A 
HETATM    5  C   UNL     1      10.821  10.752  21.942  0.00  0.00     0.065 A 
HETATM    6  C   UNL     1      10.626  11.619  23.009  0.00  0.00     0.020 A 
HETATM    7  N   UNL     1      12.095  10.277  22.080  0.00  0.00    -0.277 N 
HETATM    8  H   UNL     1      12.590   9.646  21.461  0.00  0.00     0.189 HD
HETATM    9  N   UNL     1      12.746  10.750  23.150  0.00  0.00    -0.178 NA
HETATM   10  C   UNL     1      11.847  11.545  23.755  0.00  0.00     0.071 A 
ENDROOT
BRANCH   1  11
HETATM   11  C   UNL     1       7.130  12.941  22.291  0.00  0.00     0.260 C 
HETATM   12  N   UNL     1       6.142  12.706  23.288  0.00  0.00    -0.318 N 
HETATM   13  C   UNL     1       6.116  11.485  24.095  0.00  0.00     0.159 C 
HETATM   14  O   UNL     1       7.063  13.875  21.484  0.00  0.00    -0.267 OA
BRANCH  12  15
HETATM   15  C   UNL     1       5.085  13.680  23.562  0.00  0.00     0.038 A 
HETATM   16  C   UNL     1       3.725  13.332  23.483  0.00  0.00     0.053 A 
HETATM   17  C   UNL     1       2.714  14.246  23.827  0.00  0.00     0.036 A 
HETATM   18 CL   UNL     1       1.057  13.764  23.754  0.00  0.00    -0.084 Cl
HETATM   19  C   UNL     1       3.024  15.533  24.247  0.00  0.00     0.024 A 
HETATM   20  C   UNL     1       4.359  15.903  24.323  0.00  0.00     0.004 A 
HETATM   21  C   UNL     1       5.373  14.987  23.990  0.00  0.00     0.030 A 
ENDBRANCH  12  15
ENDBRANCH   1  11
BRANCH   3  22
HETATM   22  O   UNL     1       7.832  11.051  19.971  0.00  0.00    -0.360 OA
HETATM   23  H   UNL     1       7.247  10.307  20.176  0.00  0.00     0.217 HD
ENDBRANCH   3  22
BRANCH  10  24
HETATM   24  C   UNL     1      12.245  12.270  24.998  0.00  0.00     0.100 C 
BRANCH  24  25
HETATM   25  C   UNL     1      11.435  13.547  25.084  0.00  0.00    -0.052 A 
HETATM   26  C   UNL     1      10.476  13.699  26.095  0.00  0.00     0.007 A 
HETATM   27  C   UNL     1       9.614  14.797  26.096  0.00  0.00     0.001 A 
HETATM   28  C   UNL     1       9.717  15.772  25.106  0.00  0.00     0.007 A 
HETATM   29  C   UNL     1      10.703  15.675  24.118  0.00  0.00    -0.061 A 
HETATM   30  C   UNL     1      11.559  14.561  24.115  0.00  0.00     0.014 A 
HETATM   31  C   UNL     1      10.871  16.775  23.111  0.00  0.00     0.048 C 
ENDBRANCH  24  25
ENDBRANCH  10  24
TORSDOF 5
ENDMDL
MODEL 7
REMARK VINA RESULT:    -8.135      3.544      7.508
REMARK INTER + INTRA:         -11.534
REMARK INTER:                 -10.275
REMARK INTRA:                  -1.259
REMARK UNBOUND:                -1.259
REMARK  5 active torsions:
REMARK  status: ('A' for Active; 'I' for Inactive)
REMARK    1  A    between atoms: C_7  and  N_8 
REMARK       I    between atoms: N_8  and  C_10 
REMARK    2  A    between atoms: C_10  and  C_12 
REMARK    3  A    between atoms: C_14  and  O_15 
REMARK    4  A    between atoms: C_22  and  C_23 
REMARK    5  A    between atoms: C_23  and  C_24 
ROOT
HETATM    1  C   UNL     1       6.323  10.853  23.512  0.00  0.00     0.066 A 
HETATM    2  C   UNL     1       5.190  11.700  23.340  0.00  0.00     0.035 A 
HETATM    3  C   UNL     1       6.145   9.666  24.236  0.00  0.00     0.083 A 
HETATM    4  C   UNL     1       4.889   9.255  24.706  0.00  0.00     0.069 A 
HETATM    5  C   UNL     1       3.808  10.115  24.505  0.00  0.00     0.065 A 
HETATM    6  C   UNL     1       3.915  11.322  23.828  0.00  0.00     0.020 A 
HETATM    7  N   UNL     1       2.505  10.032  24.908  0.00  0.00    -0.277 N 
HETATM    8  H   UNL     1       2.073   9.299  25.459  0.00  0.00     0.189 HD
HETATM    9  N   UNL     1       1.749  11.075  24.544  0.00  0.00    -0.178 NA
HETATM   10  C   UNL     1       2.587  11.860  23.846  0.00  0.00     0.071 A 
ENDROOT
BRANCH   1  11
HETATM   11  C   UNL     1       7.629  11.406  22.998  0.00  0.00     0.260 C 
HETATM   12  N   UNL     1       7.928  11.579  21.617  0.00  0.00    -0.318 N 
HETATM   13  C   UNL     1       7.088  11.020  20.556  0.00  0.00     0.159 C 
HETATM   14  O   UNL     1       8.416  11.713  23.901  0.00  0.00    -0.267 OA
BRANCH  12  15
HETATM   15  C   UNL     1       9.105  12.327  21.177  0.00  0.00     0.038 A 
HETATM   16  C   UNL     1       9.210  13.716  21.369  0.00  0.00     0.053 A 
HETATM   17  C   UNL     1      10.376  14.418  21.021  0.00  0.00     0.036 A 
HETATM   18 CL   UNL     1      10.479  16.117  21.312  0.00  0.00    -0.084 Cl
HETATM   19  C   UNL     1      11.465  13.764  20.460  0.00  0.00     0.024 A 
HETATM   20  C   UNL     1      11.382  12.396  20.250  0.00  0.00     0.004 A 
HETATM   21  C   UNL     1      10.220  11.689  20.609  0.00  0.00     0.030 A 
ENDBRANCH  12  15
ENDBRANCH   1  11
BRANCH   3  22
HETATM   22  O   UNL     1       7.163   8.833  24.614  0.00  0.00    -0.360 OA
HETATM   23  H   UNL     1       7.206   8.120  23.961  0.00  0.00     0.217 HD
ENDBRANCH   3  22
BRANCH  10  24
HETATM   24  C   UNL     1       2.077  13.149  23.292  0.00  0.00     0.100 C 
BRANCH  24  25
HETATM   25  C   UNL     1       2.734  14.285  24.048  0.00  0.00    -0.052 A 
HETATM   26  C   UNL     1       3.811  14.976  23.473  0.00  0.00     0.007 A 
HETATM   27  C   UNL     1       4.527  15.917  24.216  0.00  0.00     0.001 A 
HETATM   28  C   UNL     1       4.161  16.200  25.530  0.00  0.00     0.007 A 
HETATM   29  C   UNL     1       3.056  15.568  26.109  0.00  0.00    -0.061 A 
HETATM   30  C   UNL     1       2.347  14.613  25.362  0.00  0.00     0.014 A 
HETATM   31  C   UNL     1       2.610  15.947  27.491  0.00  0.00     0.048 C 
ENDBRANCH  24  25
ENDBRANCH  10  24
TORSDOF 5
ENDMDL
MODEL 8
REMARK VINA RESULT:    -8.131      4.524      7.611
REMARK INTER + INTRA:         -11.530
REMARK INTER:                 -10.256
REMARK INTRA:                  -1.273
REMARK UNBOUND:                -1.259
REMARK  5 active torsions:
REMARK  status: ('A' for Active; 'I' for Inactive)
REMARK    1  A    between atoms: C_7  and  N_8 
REMARK       I    between atoms: N_8  and  C_10 
REMARK    2  A    between atoms: C_10  and  C_12 
REMARK    3  A    between atoms: C_14  and  O_15 
REMARK    4  A    between atoms: C_22  and  C_23 
REMARK    5  A    between atoms: C_23  and  C_24 
ROOT
HETATM    1  C   UNL     1       7.122  11.125  23.657  0.00  0.00     0.066 A 
HETATM    2  C   UNL     1       6.484  12.399  23.670  0.00  0.00     0.035 A 
HETATM    3  C   UNL     1       8.021  10.835  24.693  0.00  0.00     0.083 A 
HETATM    4  C   UNL     1       8.232  11.710  25.769  0.00  0.00     0.069 A 
HETATM    5  C   UNL     1       7.578  12.942  25.741  0.00  0.00     0.065 A 
HETATM    6  C   UNL     1       6.702  13.313  24.731  0.00  0.00     0.020 A 
HETATM    7  N   UNL     1       7.642  14.015  26.586  0.00  0.00    -0.277 N 
HETATM    8  H   UNL     1       8.212  14.113  27.418  0.00  0.00     0.189 HD
HETATM    9  N   UNL     1       6.877  15.050  26.221  0.00  0.00    -0.178 NA
HETATM   10  C   UNL     1       6.261  14.624  25.105  0.00  0.00     0.071 A 
ENDROOT
BRANCH   1  11
HETATM   11  C   UNL     1       6.850  10.278  22.439  0.00  0.00     0.260 C 
HETATM   12  N   UNL     1       5.616   9.613  22.196  0.00  0.00    -0.318 N 
HETATM   13  C   UNL     1       4.572   9.498  23.216  0.00  0.00     0.159 C 
HETATM   14  O   UNL     1       7.806  10.230  21.657  0.00  0.00    -0.267 OA
BRANCH  12  15
HETATM   15  C   UNL     1       5.320   8.998  20.902  0.00  0.00     0.038 A 
HETATM   16  C   UNL     1       5.307   7.602  20.736  0.00  0.00     0.053 A 
HETATM   17  C   UNL     1       4.941   7.013  19.514  0.00  0.00     0.036 A 
HETATM   18 CL   UNL     1       4.898   5.293  19.365  0.00  0.00    -0.084 Cl
HETATM   19  C   UNL     1       4.591   7.792  18.419  0.00  0.00     0.024 A 
HETATM   20  C   UNL     1       4.607   9.172  18.555  0.00  0.00     0.004 A 
HETATM   21  C   UNL     1       4.961   9.764  19.781  0.00  0.00     0.030 A 
ENDBRANCH  12  15
ENDBRANCH   1  11
BRANCH   3  22
HETATM   22  O   UNL     1       8.819   9.725  24.733  0.00  0.00    -0.360 OA
HETATM   23  H   UNL     1       8.378   9.036  24.216  0.00  0.00     0.217 HD
ENDBRANCH   3  22
BRANCH  10  24
HETATM   24  C   UNL     1       5.324  15.549  24.398  0.00  0.00     0.100 C 
BRANCH  24  25
HETATM   25  C   UNL     1       3.906  15.116  24.707  0.00  0.00    -0.052 A 
HETATM   26  C   UNL     1       3.407  15.237  26.012  0.00  0.00     0.007 A 
HETATM   27  C   UNL     1       2.163  14.701  26.348  0.00  0.00     0.001 A 
HETATM   28  C   UNL     1       1.389  14.063  25.382  0.00  0.00     0.007 A 
HETATM   29  C   UNL     1       1.836  13.979  24.059  0.00  0.00    -0.061 A 
HETATM   30  C   UNL     1       3.095  14.509  23.729  0.00  0.00     0.014 A 
HETATM   31  C   UNL     1       0.957  13.375  23.004  0.00  0.00     0.048 C 
ENDBRANCH  24  25
ENDBRANCH  10  24
TORSDOF 5
ENDMDL
MODEL 9
REMARK VINA RESULT:    -8.094      2.146      3.183
REMARK INTER + INTRA:         -11.483
REMARK INTER:                 -10.345
REMARK INTRA:                  -1.139
REMARK UNBOUND:                -1.259
REMARK  5 active torsions:
REMARK  status: ('A' for Active; 'I' for Inactive)
REMARK    1  A    between atoms: C_7  and  N_8 
REMARK       I    between atoms: N_8  and  C_10 
REMARK    2  A    between atoms: C_10  and  C_12 
REMARK    3  A    between atoms: C_14  and  O_15 
REMARK    4  A    between atoms: C_22  and  C_23 
REMARK    5  A    between atoms: C_23  and  C_24 
ROOT
HETATM    1  C   UNL     1       8.888  14.106  25.820  0.00  0.00     0.066 A 
HETATM    2  C   UNL     1       9.378  12.944  25.158  0.00  0.00     0.035 A 
HETATM    3  C   UNL     1       9.743  14.751  26.724  0.00  0.00     0.083 A 
HETATM    4  C   UNL     1      11.072  14.345  26.919  0.00  0.00     0.069 A 
HETATM    5  C   UNL     1      11.508  13.206  26.241  0.00  0.00     0.065 A 
HETATM    6  C   UNL     1      10.708  12.496  25.358  0.00  0.00     0.020 A 
HETATM    7  N   UNL     1      12.697  12.533  26.285  0.00  0.00    -0.277 N 
HETATM    8  H   UNL     1      13.509  12.747  26.853  0.00  0.00     0.189 HD
HETATM    9  N   UNL     1      12.746  11.450  25.500  0.00  0.00    -0.178 NA
HETATM   10  C   UNL     1      11.547  11.432  24.892  0.00  0.00     0.071 A 
ENDROOT
BRANCH   1  11
HETATM   11  C   UNL     1       7.438  14.433  25.564  0.00  0.00     0.260 C 
HETATM   12  N   UNL     1       6.869  14.546  24.265  0.00  0.00    -0.318 N 
HETATM   13  C   UNL     1       7.685  14.586  23.051  0.00  0.00     0.159 C 
HETATM   14  O   UNL     1       6.782  14.579  26.602  0.00  0.00    -0.267 OA
BRANCH  12  15
HETATM   15  C   UNL     1       5.422  14.636  24.068  0.00  0.00     0.038 A 
HETATM   16  C   UNL     1       4.614  13.487  24.009  0.00  0.00     0.053 A 
HETATM   17  C   UNL     1       3.215  13.580  23.904  0.00  0.00     0.036 A 
HETATM   18 CL   UNL     1       2.257  12.144  23.876  0.00  0.00    -0.084 Cl
HETATM   19  C   UNL     1       2.582  14.814  23.841  0.00  0.00     0.024 A 
HETATM   20  C   UNL     1       3.358  15.962  23.886  0.00  0.00     0.004 A 
HETATM   21  C   UNL     1       4.757  15.872  24.004  0.00  0.00     0.030 A 
ENDBRANCH  12  15
ENDBRANCH   1  11
BRANCH   3  22
HETATM   22  O   UNL     1       9.366  15.779  27.544  0.00  0.00    -0.360 OA
HETATM   23  H   UNL     1      10.166  16.277  27.766  0.00  0.00     0.217 HD
ENDBRANCH   3  22
BRANCH  10  24
HETATM   24  C   UNL     1      11.237  10.326  23.938  0.00  0.00     0.100 C 
BRANCH  24  25
HETATM   25  C   UNL     1      11.351  10.868  22.528  0.00  0.00    -0.052 A 
HETATM   26  C   UNL     1      12.616  11.060  21.954  0.00  0.00     0.007 A 
HETATM   27  C   UNL     1      12.746  11.702  20.722  0.00  0.00     0.001 A 
HETATM   28  C   UNL     1      11.615  12.136  20.033  0.00  0.00     0.007 A 
HETATM   29  C   UNL     1      10.337  11.906  20.555  0.00  0.00    -0.061 A 
HETATM   30  C   UNL     1      10.214  11.270  21.802  0.00  0.00     0.014 A 
HETATM   31  C   UNL     1       9.121  12.289  19.765  0.00  0.00     0.048 C 
ENDBRANCH  24  25
ENDBRANCH  10  24
TORSDOF 5
ENDMDL
