MODEL 1
REMARK VINA RESULT:    -8.781      0.000      0.000
REMARK INTER + INTRA:         -10.220
REMARK INTER:                 -10.764
REMARK INTRA:                   0.544
REMARK UNBOUND:                 0.614
REMARK  9 active torsions:
REMARK  status: ('A' for Active; 'I' for Inactive)
REMARK    1  A    between atoms: N_2  and  C_4 
REMARK    2  A    between atoms: C_4  and  C_5 
REMARK    3  A    between atoms: C_5  and  N_6 
REMARK    4  A    between atoms: N_6  and  C_7 
REMARK    5  A    between atoms: C_20  and  O_21 
REMARK    6  A    between atoms: C_23  and  O_24 
REMARK    7  A    between atoms: O_24  and  C_25 
REMARK       I    between atoms: C_25  and  N_26 
REMARK    8  A    between atoms: C_33  and  O_34 
REMARK    9  A    between atoms: C_35  and  O_36 
ROOT
HETATM    1  C   UNL     1       1.714   5.871  24.395  0.00  0.00     0.066 C 
HETATM    2  C   UNL     1       1.848   5.072  26.097  0.00  0.00     0.182 C 
HETATM    3  O   UNL     1       1.629   3.875  26.340  0.00  0.00    -0.290 OA
HETATM    4  C   UNL     1       2.488   5.562  27.296  0.00  0.00     0.133 C 
HETATM    5  C   UNL     1       2.053   6.739  26.943  0.00  0.00     0.076 C 
HETATM    6  N   UNL     1       1.369   7.238  27.970  0.00  0.00    -0.326 N 
HETATM    7  C   UNL     1       1.276   8.529  27.806  0.00  0.00     0.232 C 
HETATM    8  O   UNL     1       2.200   9.272  27.546  0.00  0.00    -0.272 OA
HETATM    9  C   UNL     1      -0.125   8.671  27.484  0.00  0.00     0.062 C 
HETATM   10  C   UNL     1      -0.687   8.972  28.800  0.00  0.00     0.027 C 
HETATM   11  C   UNL     1      -0.089   9.186  26.262  0.00  0.00     0.035 C 
HETATM   12  C   UNL     1      -0.125  10.585  26.177  0.00  0.00    -0.021 C 
HETATM   13  C   UNL     1      -0.787  10.997  25.119  0.00  0.00     0.004 C 
HETATM   14  C   UNL     1      -1.649  12.169  25.268  0.00  0.00     0.177 C 
HETATM   15  C   UNL     1      -2.175  12.479  23.939  0.00  0.00     0.194 C 
HETATM   16  C   UNL     1      -3.009  13.703  23.831  0.00  0.00    -0.055 C 
HETATM   17  C   UNL     1      -3.017  14.650  24.988  0.00  0.00     0.046 C 
HETATM   18  C   UNL     1      -3.762  13.898  22.735  0.00  0.00    -0.015 C 
HETATM   19  C   UNL     1      -4.145  15.269  22.359  0.00  0.00     0.035 C 
HETATM   20  C   UNL     1      -5.542  15.578  22.765  0.00  0.00     0.017 C 
HETATM   21  C   UNL     1      -3.482  15.378  20.984  0.00  0.00     0.154 C 
HETATM   22  C   UNL     1      -1.725  15.036  21.476  0.00  0.00     0.150 C 
HETATM   23  C   UNL     1      -0.689  13.389  22.112  0.00  0.00     0.039 C 
HETATM   24  C   UNL     1       0.032  11.399  22.207  0.00  0.00    -0.012 C 
HETATM   25  C   UNL     1      -0.488  11.751  20.409  0.00  0.00     0.010 C 
HETATM   26  C   UNL     1       0.615   9.391  22.892  0.00  0.00     0.049 C 
HETATM   27  C   UNL     1       1.439   7.680  24.013  0.00  0.00     0.019 C 
HETATM   28  C   UNL     1       2.374   7.531  25.417  0.00  0.00     0.203 C 
HETATM   29  O   UNL     1       3.598   7.494  25.192  0.00  0.00    -0.286 OA
HETATM   30  H   UNL     1       1.176   6.802  28.876  0.00  0.00     0.168 HD
ENDROOT
BRANCH   1  31
HETATM   31  N   UNL     1       2.713   4.246  24.092  0.00  0.00    -0.288 NA
HETATM   32  H   UNL     1       2.854   4.556  23.118  0.00  0.00     0.127 HD
BRANCH  31  33
HETATM   33  C   UNL     1       4.487   3.593  23.646  0.00  0.00     0.112 C 
BRANCH  33  34
HETATM   34  C   UNL     1       6.185   3.840  22.693  0.00  0.00     0.130 C 
BRANCH  34  35
HETATM   35  N   UNL     1       7.684   4.355  22.915  0.00  0.00    -0.420 N 
HETATM   36  C   UNL     1       8.669   3.432  23.470  0.00  0.00     0.142 C 
HETATM   37  C   UNL     1       8.334   5.195  21.898  0.00  0.00     0.142 C 
ENDBRANCH  34  35
ENDBRANCH  33  34
ENDBRANCH  31  33
ENDBRANCH   1  31
BRANCH  22  38
HETATM   38  O   UNL     1      -1.253  16.682  21.277  0.00  0.00    -0.388 OA
HETATM   39  C   UNL     1      -0.571  17.355  20.035  0.00  0.00     0.202 C 
ENDBRANCH  22  38
BRANCH  21  40
HETATM   40  O   UNL     1      -4.278  14.816  19.926  0.00  0.00    -0.392 OA
HETATM   41  H   UNL     1      -5.169  15.170  19.836  0.00  0.00     0.210 HD
ENDBRANCH  21  40
BRANCH  14  42
HETATM   42  O   UNL     1      -2.844  11.901  25.936  0.00  0.00    -0.384 OA
HETATM   43  C   UNL     1      -2.720  12.170  27.282  0.00  0.00     0.202 C 
ENDBRANCH  14  42
BRANCH  15  44
HETATM   44  O   UNL     1      -2.664  11.369  23.139  0.00  0.00    -0.291 OA
BRANCH  44  45
HETATM   45  C   UNL     1      -3.704  10.681  23.664  0.00  0.00     0.359 C 
HETATM   46  N   UNL     1      -3.337   9.447  24.072  0.00  0.00    -0.346 N 
HETATM   47  H   UNL     1      -2.385   9.140  24.179  0.00  0.00     0.161 HD
HETATM   48  H   UNL     1      -4.114   8.819  24.214  0.00  0.00     0.161 HD
HETATM   49  O   UNL     1      -4.888  10.980  23.653  0.00  0.00    -0.239 OA
ENDBRANCH  44  45
ENDBRANCH  15  44
TORSDOF 9
ENDMDL
MODEL 2
REMARK VINA RESULT:    -8.387      1.701      2.189
REMARK INTER + INTRA:          -9.734
REMARK INTER:                 -10.305
REMARK INTRA:                   0.571
REMARK UNBOUND:                 0.614
REMARK  9 active torsions:
REMARK  status: ('A' for Active; 'I' for Inactive)
REMARK    1  A    between atoms: N_2  and  C_4 
REMARK    2  A    between atoms: C_4  and  C_5 
REMARK    3  A    between atoms: C_5  and  N_6 
REMARK    4  A    between atoms: N_6  and  C_7 
REMARK    5  A    between atoms: C_20  and  O_21 
REMARK    6  A    between atoms: C_23  and  O_24 
REMARK    7  A    between atoms: O_24  and  C_25 
REMARK       I    between atoms: C_25  and  N_26 
REMARK    8  A    between atoms: C_33  and  O_34 
REMARK    9  A    between atoms: C_35  and  O_36 
ROOT
HETATM    1  C   UNL     1       1.687   5.851  24.408  0.00  0.00     0.066 C 
HETATM    2  C   UNL     1       1.809   5.054  26.113  0.00  0.00     0.182 C 
HETATM    3  O   UNL     1       1.580   3.860  26.357  0.00  0.00    -0.290 OA
HETATM    4  C   UNL     1       2.450   5.542  27.312  0.00  0.00     0.133 C 
HETATM    5  C   UNL     1       2.026   6.722  26.955  0.00  0.00     0.076 C 
HETATM    6  N   UNL     1       1.343   7.229  27.979  0.00  0.00    -0.326 N 
HETATM    7  C   UNL     1       1.261   8.519  27.812  0.00  0.00     0.232 C 
HETATM    8  O   UNL     1       2.193   9.254  27.553  0.00  0.00    -0.272 OA
HETATM    9  C   UNL     1      -0.137   8.673  27.485  0.00  0.00     0.062 C 
HETATM   10  C   UNL     1      -0.701   8.982  28.799  0.00  0.00     0.027 C 
HETATM   11  C   UNL     1      -0.093   9.185  26.262  0.00  0.00     0.035 C 
HETATM   12  C   UNL     1      -0.118  10.584  26.174  0.00  0.00    -0.021 C 
HETATM   13  C   UNL     1      -0.772  10.999  25.114  0.00  0.00     0.004 C 
HETATM   14  C   UNL     1      -1.625  12.179  25.257  0.00  0.00     0.177 C 
HETATM   15  C   UNL     1      -2.144  12.490  23.926  0.00  0.00     0.194 C 
HETATM   16  C   UNL     1      -2.969  13.721  23.813  0.00  0.00    -0.055 C 
HETATM   17  C   UNL     1      -2.971  14.671  24.967  0.00  0.00     0.046 C 
HETATM   18  C   UNL     1      -3.716  13.920  22.714  0.00  0.00    -0.015 C 
HETATM   19  C   UNL     1      -4.087  15.293  22.334  0.00  0.00     0.035 C 
HETATM   20  C   UNL     1      -5.482  15.615  22.735  0.00  0.00     0.017 C 
HETATM   21  C   UNL     1      -3.418  15.393  20.961  0.00  0.00     0.154 C 
HETATM   22  C   UNL     1      -1.665  15.038  21.459  0.00  0.00     0.150 C 
HETATM   23  C   UNL     1      -0.646  13.384  22.101  0.00  0.00     0.039 C 
HETATM   24  C   UNL     1       0.058  11.388  22.203  0.00  0.00    -0.012 C 
HETATM   25  C   UNL     1      -0.453  11.740  20.402  0.00  0.00     0.010 C 
HETATM   26  C   UNL     1       0.622   9.376  22.894  0.00  0.00     0.049 C 
HETATM   27  C   UNL     1       1.428   7.661  24.021  0.00  0.00     0.019 C 
HETATM   28  C   UNL     1       2.358   7.508  25.429  0.00  0.00     0.203 C 
HETATM   29  O   UNL     1       3.582   7.460  25.207  0.00  0.00    -0.286 OA
HETATM   30  H   UNL     1       1.143   6.796  28.885  0.00  0.00     0.168 HD
ENDROOT
BRANCH   1  31
HETATM   31  N   UNL     1       2.673   4.217  24.112  0.00  0.00    -0.288 NA
HETATM   32  H   UNL     1       1.927   3.716  24.620  0.00  0.00     0.127 HD
BRANCH  31  33
HETATM   33  C   UNL     1       2.566   2.499  23.211  0.00  0.00     0.112 C 
BRANCH  33  34
HETATM   34  C   UNL     1       1.929   1.426  21.696  0.00  0.00     0.130 C 
BRANCH  34  35
HETATM   35  N   UNL     1       1.872   1.424  20.097  0.00  0.00    -0.420 N 
HETATM   36  C   UNL     1       0.583   1.620  19.439  0.00  0.00     0.142 C 
HETATM   37  C   UNL     1       2.914   2.110  19.319  0.00  0.00     0.142 C 
ENDBRANCH  34  35
ENDBRANCH  33  34
ENDBRANCH  31  33
ENDBRANCH   1  31
BRANCH  22  38
HETATM   38  O   UNL     1      -1.180  16.680  21.257  0.00  0.00    -0.388 OA
HETATM   39  C   UNL     1      -0.427  17.329  20.044  0.00  0.00     0.202 C 
ENDBRANCH  22  38
BRANCH  21  40
HETATM   40  O   UNL     1      -4.216  14.836  19.902  0.00  0.00    -0.392 OA
HETATM   41  H   UNL     1      -4.253  13.875  19.863  0.00  0.00     0.210 HD
ENDBRANCH  21  40
BRANCH  14  42
HETATM   42  O   UNL     1      -2.824  11.922  25.923  0.00  0.00    -0.384 OA
HETATM   43  C   UNL     1      -2.682  12.127  27.278  0.00  0.00     0.202 C 
ENDBRANCH  14  42
BRANCH  15  44
HETATM   44  O   UNL     1      -2.641  11.383  23.127  0.00  0.00    -0.291 OA
BRANCH  44  45
HETATM   45  C   UNL     1      -3.694  10.711  23.645  0.00  0.00     0.359 C 
HETATM   46  N   UNL     1      -3.353   9.467  24.044  0.00  0.00    -0.346 N 
HETATM   47  H   UNL     1      -2.407   9.140  24.149  0.00  0.00     0.161 HD
HETATM   48  H   UNL     1      -4.142   8.854  24.180  0.00  0.00     0.161 HD
HETATM   49  O   UNL     1      -4.872  11.034  23.635  0.00  0.00    -0.239 OA
ENDBRANCH  44  45
ENDBRANCH  15  44
TORSDOF 9
ENDMDL
MODEL 3
REMARK VINA RESULT:    -7.886      2.659     10.496
REMARK INTER + INTRA:          -9.115
REMARK INTER:                 -10.897
REMARK INTRA:                   1.782
REMARK UNBOUND:                 0.614
REMARK  9 active torsions:
REMARK  status: ('A' for Active; 'I' for Inactive)
REMARK    1  A    between atoms: N_2  and  C_4 
REMARK    2  A    between atoms: C_4  and  C_5 
REMARK    3  A    between atoms: C_5  and  N_6 
REMARK    4  A    between atoms: N_6  and  C_7 
REMARK    5  A    between atoms: C_20  and  O_21 
REMARK    6  A    between atoms: C_23  and  O_24 
REMARK    7  A    between atoms: O_24  and  C_25 
REMARK       I    between atoms: C_25  and  N_26 
REMARK    8  A    between atoms: C_33  and  O_34 
REMARK    9  A    between atoms: C_35  and  O_36 
ROOT
HETATM    1  C   UNL     1      -1.267  12.990  22.504  0.00  0.00     0.066 C 
HETATM    2  C   UNL     1      -2.470  14.193  23.318  0.00  0.00     0.182 C 
HETATM    3  O   UNL     1      -2.404  15.428  23.234  0.00  0.00    -0.290 OA
HETATM    4  C   UNL     1      -3.778  13.947  23.880  0.00  0.00     0.133 C 
HETATM    5  C   UNL     1      -3.287  12.818  24.308  0.00  0.00     0.076 C 
HETATM    6  N   UNL     1      -3.505  12.758  25.620  0.00  0.00    -0.326 N 
HETATM    7  C   UNL     1      -3.400  11.512  25.992  0.00  0.00     0.232 C 
HETATM    8  O   UNL     1      -3.946  10.570  25.453  0.00  0.00    -0.272 OA
HETATM    9  C   UNL     1      -2.160  11.544  26.732  0.00  0.00     0.062 C 
HETATM   10  C   UNL     1      -2.653  11.728  28.097  0.00  0.00     0.027 C 
HETATM   11  C   UNL     1      -1.391  10.711  26.042  0.00  0.00     0.035 C 
HETATM   12  C   UNL     1      -1.386   9.375  26.466  0.00  0.00    -0.021 C 
HETATM   13  C   UNL     1      -0.210   8.813  26.310  0.00  0.00     0.004 C 
HETATM   14  C   UNL     1       0.257   7.906  27.358  0.00  0.00     0.177 C 
HETATM   15  C   UNL     1       1.524   7.339  26.895  0.00  0.00     0.194 C 
HETATM   16  C   UNL     1       2.140   6.307  27.767  0.00  0.00    -0.055 C 
HETATM   17  C   UNL     1       1.311   5.737  28.872  0.00  0.00     0.046 C 
HETATM   18  C   UNL     1       3.423   5.955  27.572  0.00  0.00    -0.015 C 
HETATM   19  C   UNL     1       3.880   4.628  28.015  0.00  0.00     0.035 C 
HETATM   20  C   UNL     1       4.616   4.703  29.305  0.00  0.00     0.017 C 
HETATM   21  C   UNL     1       4.314   4.022  26.678  0.00  0.00     0.154 C 
HETATM   22  C   UNL     1       2.709   4.161  25.756  0.00  0.00     0.150 C 
HETATM   23  C   UNL     1       1.612   5.702  24.975  0.00  0.00     0.039 C 
HETATM   24  C   UNL     1       1.131   7.474  23.918  0.00  0.00    -0.012 C 
HETATM   25  C   UNL     1       2.707   6.736  23.143  0.00  0.00     0.010 C 
HETATM   26  C   UNL     1       0.354   9.452  23.347  0.00  0.00     0.049 C 
HETATM   27  C   UNL     1      -0.911  11.228  23.015  0.00  0.00     0.019 C 
HETATM   28  C   UNL     1      -2.538  11.588  23.316  0.00  0.00     0.203 C 
HETATM   29  O   UNL     1      -3.284  11.337  22.351  0.00  0.00    -0.286 OA
HETATM   30  H   UNL     1      -3.950  13.456  26.222  0.00  0.00     0.168 HD
ENDROOT
BRANCH   1  31
HETATM   31  N   UNL     1      -1.705  14.256  21.113  0.00  0.00    -0.288 NA
HETATM   32  H   UNL     1      -1.810  13.457  20.468  0.00  0.00     0.127 HD
BRANCH  31  33
HETATM   33  C   UNL     1      -3.144  14.800  19.927  0.00  0.00     0.112 C 
BRANCH  33  34
HETATM   34  C   UNL     1      -4.871  14.409  19.080  0.00  0.00     0.130 C 
BRANCH  34  35
HETATM   35  N   UNL     1      -5.532  13.495  17.945  0.00  0.00    -0.420 N 
HETATM   36  C   UNL     1      -6.587  12.558  18.322  0.00  0.00     0.142 C 
HETATM   37  C   UNL     1      -5.848  14.066  16.627  0.00  0.00     0.142 C 
ENDBRANCH  34  35
ENDBRANCH  33  34
ENDBRANCH  31  33
ENDBRANCH   1  31
BRANCH  22  38
HETATM   38  O   UNL     1       2.403   2.467  25.851  0.00  0.00    -0.388 OA
HETATM   39  C   UNL     1       2.345   1.422  24.683  0.00  0.00     0.202 C 
ENDBRANCH  22  38
BRANCH  21  40
HETATM   40  O   UNL     1       5.646   4.402  26.291  0.00  0.00    -0.392 OA
HETATM   41  H   UNL     1       5.710   5.114  25.645  0.00  0.00     0.210 HD
ENDBRANCH  21  40
BRANCH  14  42
HETATM   42  O   UNL     1       0.700   8.562  28.507  0.00  0.00    -0.384 OA
HETATM   43  C   UNL     1      -0.328   8.703  29.414  0.00  0.00     0.202 C 
ENDBRANCH  14  42
BRANCH  15  44
HETATM   44  O   UNL     1       2.486   8.253  26.304  0.00  0.00    -0.291 OA
BRANCH  44  45
HETATM   45  C   UNL     1       3.354   8.829  27.166  0.00  0.00     0.359 C 
HETATM   46  N   UNL     1       4.333   9.501  26.523  0.00  0.00    -0.346 N 
HETATM   47  H   UNL     1       4.318   9.734  25.545  0.00  0.00     0.161 HD
HETATM   48  H   UNL     1       5.131   9.711  27.104  0.00  0.00     0.161 HD
HETATM   49  O   UNL     1       3.430   8.675  28.375  0.00  0.00    -0.239 OA
ENDBRANCH  44  45
ENDBRANCH  15  44
TORSDOF 9
ENDMDL
MODEL 4
REMARK VINA RESULT:    -7.866      2.748     10.572
REMARK INTER + INTRA:          -9.091
REMARK INTER:                  -9.634
REMARK INTRA:                   0.544
REMARK UNBOUND:                 0.614
REMARK  9 active torsions:
REMARK  status: ('A' for Active; 'I' for Inactive)
REMARK    1  A    between atoms: N_2  and  C_4 
REMARK    2  A    between atoms: C_4  and  C_5 
REMARK    3  A    between atoms: C_5  and  N_6 
REMARK    4  A    between atoms: N_6  and  C_7 
REMARK    5  A    between atoms: C_20  and  O_21 
REMARK    6  A    between atoms: C_23  and  O_24 
REMARK    7  A    between atoms: O_24  and  C_25 
REMARK       I    between atoms: C_25  and  N_26 
REMARK    8  A    between atoms: C_33  and  O_34 
REMARK    9  A    between atoms: C_35  and  O_36 
ROOT
HETATM    1  C   UNL     1      -0.053  13.033  24.714  0.00  0.00     0.066 C 
HETATM    2  C   UNL     1      -1.267  13.753  25.964  0.00  0.00     0.182 C 
HETATM    3  O   UNL     1      -1.219  14.906  26.419  0.00  0.00    -0.290 OA
HETATM    4  C   UNL     1      -2.568  13.270  26.366  0.00  0.00     0.133 C 
HETATM    5  C   UNL     1      -2.059  12.074  26.269  0.00  0.00     0.076 C 
HETATM    6  N   UNL     1      -2.269  11.454  27.429  0.00  0.00    -0.326 N 
HETATM    7  C   UNL     1      -2.144  10.171  27.230  0.00  0.00     0.232 C 
HETATM    8  O   UNL     1      -2.681   9.543  26.340  0.00  0.00    -0.272 OA
HETATM    9  C   UNL     1      -0.900   9.901  27.912  0.00  0.00     0.062 C 
HETATM   10  C   UNL     1      -1.387   9.474  29.224  0.00  0.00     0.027 C 
HETATM   11  C   UNL     1      -0.124   9.456  26.933  0.00  0.00     0.035 C 
HETATM   12  C   UNL     1      -0.098   8.067  26.743  0.00  0.00    -0.021 C 
HETATM   13  C   UNL     1       1.085   7.644  26.361  0.00  0.00     0.004 C 
HETATM   14  C   UNL     1       1.571   6.382  26.919  0.00  0.00     0.177 C 
HETATM   15  C   UNL     1       2.842   6.088  26.258  0.00  0.00     0.194 C 
HETATM   16  C   UNL     1       3.478   4.791  26.604  0.00  0.00    -0.055 C 
HETATM   17  C   UNL     1       2.663   3.790  27.357  0.00  0.00     0.046 C 
HETATM   18  C   UNL     1       4.764   4.575  26.277  0.00  0.00    -0.015 C 
HETATM   19  C   UNL     1       5.242   3.193  26.108  0.00  0.00     0.035 C 
HETATM   20  C   UNL     1       5.985   2.720  27.306  0.00  0.00     0.017 C 
HETATM   21  C   UNL     1       5.676   3.226  24.641  0.00  0.00     0.154 C 
HETATM   22  C   UNL     1       4.063   3.723  23.867  0.00  0.00     0.150 C 
HETATM   23  C   UNL     1       2.941   5.433  23.822  0.00  0.00     0.039 C 
HETATM   24  C   UNL     1       2.429   7.480  23.626  0.00  0.00    -0.012 C 
HETATM   25  C   UNL     1       4.011   7.169  22.611  0.00  0.00     0.010 C 
HETATM   26  C   UNL     1       1.622   9.500  23.959  0.00  0.00     0.049 C 
HETATM   27  C   UNL     1       0.331  11.228  24.420  0.00  0.00     0.019 C 
HETATM   28  C   UNL     1      -1.299  11.400  24.846  0.00  0.00     0.203 C 
HETATM   29  O   UNL     1      -2.047  11.576  23.866  0.00  0.00    -0.286 OA
HETATM   30  H   UNL     1      -2.719  11.820  28.272  0.00  0.00     0.168 HD
ENDROOT
BRANCH   1  31
HETATM   31  N   UNL     1      -0.516  14.767  24.000  0.00  0.00    -0.288 NA
HETATM   32  H   UNL     1       0.237  14.643  23.305  0.00  0.00     0.127 HD
BRANCH  31  33
HETATM   33  C   UNL     1      -1.203  15.639  22.406  0.00  0.00     0.112 C 
BRANCH  33  34
HETATM   34  C   UNL     1      -2.644  15.858  21.091  0.00  0.00     0.130 C 
BRANCH  34  35
HETATM   35  N   UNL     1      -4.154  15.414  20.800  0.00  0.00    -0.420 N 
HETATM   36  C   UNL     1      -4.460  14.749  19.536  0.00  0.00     0.142 C 
HETATM   37  C   UNL     1      -4.965  14.811  21.867  0.00  0.00     0.142 C 
ENDBRANCH  34  35
ENDBRANCH  33  34
ENDBRANCH  31  33
ENDBRANCH   1  31
BRANCH  22  38
HETATM   38  O   UNL     1       3.781   2.147  23.227  0.00  0.00    -0.388 OA
HETATM   39  C   UNL     1       2.409   1.434  22.969  0.00  0.00     0.202 C 
ENDBRANCH  22  38
BRANCH  21  40
HETATM   40  O   UNL     1       7.000   3.755  24.455  0.00  0.00    -0.392 OA
HETATM   41  H   UNL     1       7.410   4.149  25.232  0.00  0.00     0.210 HD
ENDBRANCH  21  40
BRANCH  14  42
HETATM   42  O   UNL     1       2.011   6.489  28.239  0.00  0.00    -0.384 OA
HETATM   43  C   UNL     1       0.987   6.215  29.118  0.00  0.00     0.202 C 
ENDBRANCH  14  42
BRANCH  15  44
HETATM   44  O   UNL     1       3.788   7.181  26.117  0.00  0.00    -0.291 OA
BRANCH  44  45
HETATM   45  C   UNL     1       4.276   7.689  27.271  0.00  0.00     0.359 C 
HETATM   46  N   UNL     1       4.040   9.014  27.378  0.00  0.00    -0.346 N 
HETATM   47  H   UNL     1       3.404   9.530  26.794  0.00  0.00     0.161 HD
HETATM   48  H   UNL     1       4.608   9.472  28.075  0.00  0.00     0.161 HD
HETATM   49  O   UNL     1       5.000   7.142  28.089  0.00  0.00    -0.239 OA
ENDBRANCH  44  45
ENDBRANCH  15  44
TORSDOF 9
ENDMDL
MODEL 5
REMARK VINA RESULT:    -7.760      3.095     10.171
REMARK INTER + INTRA:          -8.960
REMARK INTER:                  -9.568
REMARK INTRA:                   0.608
REMARK UNBOUND:                 0.614
REMARK  9 active torsions:
REMARK  status: ('A' for Active; 'I' for Inactive)
REMARK    1  A    between atoms: N_2  and  C_4 
REMARK    2  A    between atoms: C_4  and  C_5 
REMARK    3  A    between atoms: C_5  and  N_6 
REMARK    4  A    between atoms: N_6  and  C_7 
REMARK    5  A    between atoms: C_20  and  O_21 
REMARK    6  A    between atoms: C_23  and  O_24 
REMARK    7  A    between atoms: O_24  and  C_25 
REMARK       I    between atoms: C_25  and  N_26 
REMARK    8  A    between atoms: C_33  and  O_34 
REMARK    9  A    between atoms: C_35  and  O_36 
ROOT
HETATM    1  C   UNL     1      -0.166  12.974  24.835  0.00  0.00     0.066 C 
HETATM    2  C   UNL     1      -1.348  13.692  26.116  0.00  0.00     0.182 C 
HETATM    3  O   UNL     1      -1.296  14.849  26.561  0.00  0.00    -0.290 OA
HETATM    4  C   UNL     1      -2.632  13.202  26.560  0.00  0.00     0.133 C 
HETATM    5  C   UNL     1      -2.116  12.010  26.456  0.00  0.00     0.076 C 
HETATM    6  N   UNL     1      -2.286  11.396  27.626  0.00  0.00    -0.326 N 
HETATM    7  C   UNL     1      -2.157  10.113  27.433  0.00  0.00     0.232 C 
HETATM    8  O   UNL     1      -2.715   9.474  26.563  0.00  0.00    -0.272 OA
HETATM    9  C   UNL     1      -0.891   9.858  28.079  0.00  0.00     0.062 C 
HETATM   10  C   UNL     1      -1.334   9.437  29.408  0.00  0.00     0.027 C 
HETATM   11  C   UNL     1      -0.140   9.412  27.080  0.00  0.00     0.035 C 
HETATM   12  C   UNL     1      -0.109   8.023  26.899  0.00  0.00    -0.021 C 
HETATM   13  C   UNL     1       1.066   7.606  26.485  0.00  0.00     0.004 C 
HETATM   14  C   UNL     1       1.579   6.353  27.037  0.00  0.00     0.177 C 
HETATM   15  C   UNL     1       2.832   6.064  26.340  0.00  0.00     0.194 C 
HETATM   16  C   UNL     1       3.489   4.775  26.676  0.00  0.00    -0.055 C 
HETATM   17  C   UNL     1       2.706   3.773  27.460  0.00  0.00     0.046 C 
HETATM   18  C   UNL     1       4.766   4.567  26.313  0.00  0.00    -0.015 C 
HETATM   19  C   UNL     1       5.251   3.188  26.139  0.00  0.00     0.035 C 
HETATM   20  C   UNL     1       6.033   2.730  27.317  0.00  0.00     0.017 C 
HETATM   21  C   UNL     1       5.640   3.213  24.659  0.00  0.00     0.154 C 
HETATM   22  C   UNL     1       4.001   3.692  23.930  0.00  0.00     0.150 C 
HETATM   23  C   UNL     1       2.863   5.393  23.907  0.00  0.00     0.039 C 
HETATM   24  C   UNL     1       2.329   7.434  23.712  0.00  0.00    -0.012 C 
HETATM   25  C   UNL     1       3.882   7.129  22.652  0.00  0.00     0.010 C 
HETATM   26  C   UNL     1       1.515   9.449  24.055  0.00  0.00     0.049 C 
HETATM   27  C   UNL     1       0.224  11.170  24.543  0.00  0.00     0.019 C 
HETATM   28  C   UNL     1      -1.394  11.331  25.015  0.00  0.00     0.203 C 
HETATM   29  O   UNL     1      -2.173  11.494  24.058  0.00  0.00    -0.286 OA
HETATM   30  H   UNL     1      -2.714  11.765  28.480  0.00  0.00     0.168 HD
ENDROOT
BRANCH   1  31
HETATM   31  N   UNL     1      -0.665  14.698  24.123  0.00  0.00    -0.288 NA
HETATM   32  H   UNL     1       0.068  15.116  24.717  0.00  0.00     0.127 HD
BRANCH  31  33
HETATM   33  C   UNL     1       0.011  16.176  23.059  0.00  0.00     0.112 C 
BRANCH  33  34
HETATM   34  C   UNL     1       1.450  16.953  21.974  0.00  0.00     0.130 C 
BRANCH  34  35
HETATM   35  N   UNL     1       2.865  16.588  21.321  0.00  0.00    -0.420 N 
HETATM   36  C   UNL     1       3.835  15.841  22.117  0.00  0.00     0.142 C 
HETATM   37  C   UNL     1       2.939  16.131  19.925  0.00  0.00     0.142 C 
ENDBRANCH  34  35
ENDBRANCH  33  34
ENDBRANCH  31  33
ENDBRANCH   1  31
BRANCH  22  38
HETATM   38  O   UNL     1       3.713   2.109  23.310  0.00  0.00    -0.388 OA
HETATM   39  C   UNL     1       2.353   1.334  23.218  0.00  0.00     0.202 C 
ENDBRANCH  22  38
BRANCH  21  40
HETATM   40  O   UNL     1       6.953   3.752  24.429  0.00  0.00    -0.392 OA
HETATM   41  H   UNL     1       7.110   4.122  23.554  0.00  0.00     0.210 HD
ENDBRANCH  21  40
BRANCH  14  42
HETATM   42  O   UNL     1       2.058   6.473  28.342  0.00  0.00    -0.384 OA
HETATM   43  C   UNL     1       1.056   6.219  29.254  0.00  0.00     0.202 C 
ENDBRANCH  14  42
BRANCH  15  44
HETATM   44  O   UNL     1       3.764   7.163  26.163  0.00  0.00    -0.291 OA
BRANCH  44  45
HETATM   45  C   UNL     1       4.273   7.692  27.299  0.00  0.00     0.359 C 
HETATM   46  N   UNL     1       4.029   9.017  27.392  0.00  0.00    -0.346 N 
HETATM   47  H   UNL     1       3.378   9.520  26.814  0.00  0.00     0.161 HD
HETATM   48  H   UNL     1       4.609   9.489  28.070  0.00  0.00     0.161 HD
HETATM   49  O   UNL     1       5.018   7.163  28.109  0.00  0.00    -0.239 OA
ENDBRANCH  44  45
ENDBRANCH  15  44
TORSDOF 9
ENDMDL
MODEL 6
REMARK VINA RESULT:    -7.603      4.546     12.205
REMARK INTER + INTRA:          -8.766
REMARK INTER:                  -9.323
REMARK INTRA:                   0.558
REMARK UNBOUND:                 0.614
REMARK  9 active torsions:
REMARK  status: ('A' for Active; 'I' for Inactive)
REMARK    1  A    between atoms: N_2  and  C_4 
REMARK    2  A    between atoms: C_4  and  C_5 
REMARK    3  A    between atoms: C_5  and  N_6 
REMARK    4  A    between atoms: N_6  and  C_7 
REMARK    5  A    between atoms: C_20  and  O_21 
REMARK    6  A    between atoms: C_23  and  O_24 
REMARK    7  A    between atoms: O_24  and  C_25 
REMARK       I    between atoms: C_25  and  N_26 
REMARK    8  A    between atoms: C_33  and  O_34 
REMARK    9  A    between atoms: C_35  and  O_36 
ROOT
HETATM    1  C   UNL     1       0.635   7.714  23.922  0.00  0.00     0.066 C 
HETATM    2  C   UNL     1       1.578   9.121  24.750  0.00  0.00     0.182 C 
HETATM    3  O   UNL     1       1.307  10.325  24.630  0.00  0.00    -0.290 OA
HETATM    4  C   UNL     1       2.515   9.079  25.849  0.00  0.00     0.133 C 
HETATM    5  C   UNL     1       2.941   7.961  25.330  0.00  0.00     0.076 C 
HETATM    6  N   UNL     1       4.257   8.076  25.157  0.00  0.00    -0.326 N 
HETATM    7  C   UNL     1       4.754   6.877  25.030  0.00  0.00     0.232 C 
HETATM    8  O   UNL     1       4.530   5.942  25.772  0.00  0.00    -0.272 OA
HETATM    9  C   UNL     1       5.102   6.865  23.629  0.00  0.00     0.062 C 
HETATM   10  C   UNL     1       6.511   7.255  23.686  0.00  0.00     0.027 C 
HETATM   11  C   UNL     1       4.347   5.882  23.153  0.00  0.00     0.035 C 
HETATM   12  C   UNL     1       4.936   4.611  23.112  0.00  0.00    -0.021 C 
HETATM   13  C   UNL     1       4.534   3.915  22.073  0.00  0.00     0.004 C 
HETATM   14  C   UNL     1       5.525   3.091  21.380  0.00  0.00     0.177 C 
HETATM   15  C   UNL     1       4.807   2.347  20.346  0.00  0.00     0.194 C 
HETATM   16  C   UNL     1       5.605   1.363  19.571  0.00  0.00    -0.055 C 
HETATM   17  C   UNL     1       6.968   1.014  20.075  0.00  0.00     0.046 C 
HETATM   18  C   UNL     1       5.109   0.859  18.427  0.00  0.00    -0.015 C 
HETATM   19  C   UNL     1       5.586  -0.448  17.949  0.00  0.00     0.035 C 
HETATM   20  C   UNL     1       6.592  -0.302  16.864  0.00  0.00     0.017 C 
HETATM   21  C   UNL     1       4.280  -1.246  17.968  0.00  0.00     0.154 C 
HETATM   22  C   UNL     1       3.837  -1.048  19.760  0.00  0.00     0.150 C 
HETATM   23  C   UNL     1       3.190   0.499  20.933  0.00  0.00     0.039 C 
HETATM   24  C   UNL     1       2.074   2.178  21.585  0.00  0.00    -0.012 C 
HETATM   25  C   UNL     1       0.997   1.196  20.358  0.00  0.00     0.010 C 
HETATM   26  C   UNL     1       1.474   4.147  22.362  0.00  0.00     0.049 C 
HETATM   27  C   UNL     1       1.267   5.995  23.548  0.00  0.00     0.019 C 
HETATM   28  C   UNL     1       1.961   6.554  24.988  0.00  0.00     0.203 C 
HETATM   29  O   UNL     1       1.290   6.273  25.999  0.00  0.00    -0.286 OA
HETATM   30  H   UNL     1       4.855   8.882  25.358  0.00  0.00     0.168 HD
ENDROOT
BRANCH   1  31
HETATM   31  N   UNL     1      -0.739   8.850  24.663  0.00  0.00    -0.288 NA
HETATM   32  H   UNL     1      -0.157   9.663  24.406  0.00  0.00     0.127 HD
BRANCH  31  33
HETATM   33  C   UNL     1      -2.032  10.217  24.177  0.00  0.00     0.112 C 
BRANCH  33  34
HETATM   34  C   UNL     1      -3.879  10.877  24.207  0.00  0.00     0.130 C 
BRANCH  34  35
HETATM   35  N   UNL     1      -5.246  10.742  25.029  0.00  0.00    -0.420 N 
HETATM   36  C   UNL     1      -6.284   9.848  24.525  0.00  0.00     0.142 C 
HETATM   37  C   UNL     1      -5.221  10.666  26.497  0.00  0.00     0.142 C 
ENDBRANCH  34  35
ENDBRANCH  33  34
ENDBRANCH  31  33
ENDBRANCH   1  31
BRANCH  22  38
HETATM   38  O   UNL     1       4.252  -2.678  20.136  0.00  0.00    -0.388 OA
HETATM   39  C   UNL     1       5.133  -3.209  21.320  0.00  0.00     0.202 C 
ENDBRANCH  22  38
BRANCH  21  40
HETATM   40  O   UNL     1       3.483  -1.053  16.786  0.00  0.00    -0.392 OA
HETATM   41  H   UNL     1       3.837  -0.438  16.135  0.00  0.00     0.210 HD
ENDBRANCH  21  40
BRANCH  14  42
HETATM   42  O   UNL     1       6.398   3.826  20.578  0.00  0.00    -0.384 OA
HETATM   43  C   UNL     1       7.513   4.207  21.293  0.00  0.00     0.202 C 
ENDBRANCH  14  42
BRANCH  15  44
HETATM   44  O   UNL     1       3.847   3.081  19.541  0.00  0.00    -0.291 OA
BRANCH  44  45
HETATM   45  C   UNL     1       4.361   4.059  18.761  0.00  0.00     0.359 C 
HETATM   46  N   UNL     1       3.994   5.287  19.186  0.00  0.00    -0.346 N 
HETATM   47  H   UNL     1       3.576   5.482  20.080  0.00  0.00     0.161 HD
HETATM   48  H   UNL     1       4.126   6.012  18.495  0.00  0.00     0.161 HD
HETATM   49  O   UNL     1       4.941   3.944  17.693  0.00  0.00    -0.239 OA
ENDBRANCH  44  45
ENDBRANCH  15  44
TORSDOF 9
ENDMDL
MODEL 7
REMARK VINA RESULT:    -7.592      3.243     11.203
REMARK INTER + INTRA:          -8.752
REMARK INTER:                  -9.209
REMARK INTRA:                   0.457
REMARK UNBOUND:                 0.614
REMARK  9 active torsions:
REMARK  status: ('A' for Active; 'I' for Inactive)
REMARK    1  A    between atoms: N_2  and  C_4 
REMARK    2  A    between atoms: C_4  and  C_5 
REMARK    3  A    between atoms: C_5  and  N_6 
REMARK    4  A    between atoms: N_6  and  C_7 
REMARK    5  A    between atoms: C_20  and  O_21 
REMARK    6  A    between atoms: C_23  and  O_24 
REMARK    7  A    between atoms: O_24  and  C_25 
REMARK       I    between atoms: C_25  and  N_26 
REMARK    8  A    between atoms: C_33  and  O_34 
REMARK    9  A    between atoms: C_35  and  O_36 
ROOT
HETATM    1  C   UNL     1       0.965  11.403  24.343  0.00  0.00     0.066 C 
HETATM    2  C   UNL     1      -0.423  12.335  25.212  0.00  0.00     0.182 C 
HETATM    3  O   UNL     1      -0.492  13.569  25.320  0.00  0.00    -0.290 OA
HETATM    4  C   UNL     1      -1.734  11.875  25.608  0.00  0.00     0.133 C 
HETATM    5  C   UNL     1      -1.152  10.747  25.907  0.00  0.00     0.076 C 
HETATM    6  N   UNL     1      -1.461  10.458  27.170  0.00  0.00    -0.326 N 
HETATM    7  C   UNL     1      -1.244   9.187  27.359  0.00  0.00     0.232 C 
HETATM    8  O   UNL     1      -1.639   8.292  26.639  0.00  0.00    -0.272 OA
HETATM    9  C   UNL     1      -0.076   9.224  28.207  0.00  0.00     0.062 C 
HETATM   10  C   UNL     1      -0.688   9.140  29.533  0.00  0.00     0.027 C 
HETATM   11  C   UNL     1       0.833   8.592  27.475  0.00  0.00     0.035 C 
HETATM   12  C   UNL     1       0.956   7.213  27.693  0.00  0.00    -0.021 C 
HETATM   13  C   UNL     1       2.197   6.803  27.565  0.00  0.00     0.004 C 
HETATM   14  C   UNL     1       2.683   5.793  28.504  0.00  0.00     0.177 C 
HETATM   15  C   UNL     1       4.036   5.437  28.080  0.00  0.00     0.194 C 
HETATM   16  C   UNL     1       4.698   4.346  28.842  0.00  0.00    -0.055 C 
HETATM   17  C   UNL     1       3.857   3.529  29.769  0.00  0.00     0.046 C 
HETATM   18  C   UNL     1       6.023   4.159  28.717  0.00  0.00    -0.015 C 
HETATM   19  C   UNL     1       6.593   2.831  28.997  0.00  0.00     0.035 C 
HETATM   20  C   UNL     1       7.216   2.775  30.346  0.00  0.00     0.017 C 
HETATM   21  C   UNL     1       7.192   2.491  27.630  0.00  0.00     0.154 C 
HETATM   22  C   UNL     1       5.656   2.613  26.595  0.00  0.00     0.150 C 
HETATM   23  C   UNL     1       4.455   4.140  25.955  0.00  0.00     0.039 C 
HETATM   24  C   UNL     1       3.858   6.001  25.134  0.00  0.00    -0.012 C 
HETATM   25  C   UNL     1       5.562   5.556  24.406  0.00  0.00     0.010 C 
HETATM   26  C   UNL     1       2.908   7.956  24.795  0.00  0.00     0.049 C 
HETATM   27  C   UNL     1       1.479   9.627  24.616  0.00  0.00     0.019 C 
HETATM   28  C   UNL     1      -0.196   9.770  24.816  0.00  0.00     0.203 C 
HETATM   29  O   UNL     1      -0.834   9.602  23.760  0.00  0.00    -0.286 OA
HETATM   30  H   UNL     1      -2.026  11.005  27.825  0.00  0.00     0.168 HD
ENDROOT
BRANCH   1  31
HETATM   31  N   UNL     1       0.494  12.823  23.122  0.00  0.00    -0.288 NA
HETATM   32  H   UNL     1       0.960  12.286  22.373  0.00  0.00     0.127 HD
BRANCH  31  33
HETATM   33  C   UNL     1      -0.572  13.201  21.542  0.00  0.00     0.112 C 
BRANCH  33  34
HETATM   34  C   UNL     1      -2.335  13.352  20.694  0.00  0.00     0.130 C 
BRANCH  34  35
HETATM   35  N   UNL     1      -3.869  13.652  21.036  0.00  0.00    -0.420 N 
HETATM   36  C   UNL     1      -4.190  14.335  22.286  0.00  0.00     0.142 C 
HETATM   37  C   UNL     1      -4.782  14.125  19.984  0.00  0.00     0.142 C 
ENDBRANCH  34  35
ENDBRANCH  33  34
ENDBRANCH  31  33
ENDBRANCH   1  31
BRANCH  22  38
HETATM   38  O   UNL     1       5.537   0.903  26.408  0.00  0.00    -0.388 OA
HETATM   39  C   UNL     1       4.477  -0.071  27.028  0.00  0.00     0.202 C 
ENDBRANCH  22  38
BRANCH  21  40
HETATM   40  O   UNL     1       8.498   3.059  27.429  0.00  0.00    -0.392 OA
HETATM   41  H   UNL     1       8.923   2.851  26.590  0.00  0.00     0.210 HD
ENDBRANCH  21  40
BRANCH  14  42
HETATM   42  O   UNL     1       2.960   6.301  29.774  0.00  0.00    -0.384 OA
HETATM   43  C   UNL     1       1.845   6.231  30.581  0.00  0.00     0.202 C 
ENDBRANCH  14  42
BRANCH  15  44
HETATM   44  O   UNL     1       4.932   6.523  27.724  0.00  0.00    -0.291 OA
BRANCH  44  45
HETATM   45  C   UNL     1       5.163   7.437  28.695  0.00  0.00     0.359 C 
HETATM   46  N   UNL     1       4.732   8.667  28.342  0.00  0.00    -0.346 N 
HETATM   47  H   UNL     1       4.127   8.859  27.562  0.00  0.00     0.161 HD
HETATM   48  H   UNL     1       5.118   9.409  28.907  0.00  0.00     0.161 HD
HETATM   49  O   UNL     1       5.823   7.303  29.713  0.00  0.00    -0.239 OA
ENDBRANCH  44  45
ENDBRANCH  15  44
TORSDOF 9
ENDMDL
MODEL 8
REMARK VINA RESULT:    -7.577      2.776     10.809
REMARK INTER + INTRA:          -8.734
REMARK INTER:                  -9.170
REMARK INTRA:                   0.436
REMARK UNBOUND:                 0.614
REMARK  9 active torsions:
REMARK  status: ('A' for Active; 'I' for Inactive)
REMARK    1  A    between atoms: N_2  and  C_4 
REMARK    2  A    between atoms: C_4  and  C_5 
REMARK    3  A    between atoms: C_5  and  N_6 
REMARK    4  A    between atoms: N_6  and  C_7 
REMARK    5  A    between atoms: C_20  and  O_21 
REMARK    6  A    between atoms: C_23  and  O_24 
REMARK    7  A    between atoms: O_24  and  C_25 
REMARK       I    between atoms: C_25  and  N_26 
REMARK    8  A    between atoms: C_33  and  O_34 
REMARK    9  A    between atoms: C_35  and  O_36 
ROOT
HETATM    1  C   UNL     1       0.423  12.185  24.167  0.00  0.00     0.066 C 
HETATM    2  C   UNL     1      -0.762  13.125  25.293  0.00  0.00     0.182 C 
HETATM    3  O   UNL     1      -0.680  14.333  25.560  0.00  0.00    -0.290 OA
HETATM    4  C   UNL     1      -2.072  12.747  25.770  0.00  0.00     0.133 C 
HETATM    5  C   UNL     1      -1.595  11.537  25.860  0.00  0.00     0.076 C 
HETATM    6  N   UNL     1      -1.812  11.113  27.104  0.00  0.00    -0.326 N 
HETATM    7  C   UNL     1      -1.722   9.812  27.110  0.00  0.00     0.232 C 
HETATM    8  O   UNL     1      -2.282   9.066  26.332  0.00  0.00    -0.272 OA
HETATM    9  C   UNL     1      -0.481   9.619  27.822  0.00  0.00     0.062 C 
HETATM   10  C   UNL     1      -0.968   9.417  29.187  0.00  0.00     0.027 C 
HETATM   11  C   UNL     1       0.277   9.005  26.922  0.00  0.00     0.035 C 
HETATM   12  C   UNL     1       0.264   7.603  26.953  0.00  0.00    -0.021 C 
HETATM   13  C   UNL     1       1.433   7.094  26.639  0.00  0.00     0.004 C 
HETATM   14  C   UNL     1       1.890   5.923  27.387  0.00  0.00     0.177 C 
HETATM   15  C   UNL     1       3.148   5.495  26.776  0.00  0.00     0.194 C 
HETATM   16  C   UNL     1       3.753   4.251  27.319  0.00  0.00    -0.055 C 
HETATM   17  C   UNL     1       2.919   3.404  28.224  0.00  0.00     0.046 C 
HETATM   18  C   UNL     1       5.031   3.953  27.027  0.00  0.00    -0.015 C 
HETATM   19  C   UNL     1       5.472   2.549  27.076  0.00  0.00     0.035 C 
HETATM   20  C   UNL     1       6.211   2.250  28.331  0.00  0.00     0.017 C 
HETATM   21  C   UNL     1       5.895   2.338  25.620  0.00  0.00     0.154 C 
HETATM   22  C   UNL     1       4.290   2.751  24.783  0.00  0.00     0.150 C 
HETATM   23  C   UNL     1       3.212   4.462  24.473  0.00  0.00     0.039 C 
HETATM   24  C   UNL     1       2.752   6.466  23.959  0.00  0.00    -0.012 C 
HETATM   25  C   UNL     1       4.317   5.957  23.000  0.00  0.00     0.010 C 
HETATM   26  C   UNL     1       2.000   8.534  23.973  0.00  0.00     0.049 C 
HETATM   27  C   UNL     1       0.758  10.346  24.160  0.00  0.00     0.019 C 
HETATM   28  C   UNL     1      -0.864  10.627  24.559  0.00  0.00     0.203 C 
HETATM   29  O   UNL     1      -1.615  10.667  23.566  0.00  0.00    -0.286 OA
HETATM   30  H   UNL     1      -2.246  11.619  27.881  0.00  0.00     0.168 HD
ENDROOT
BRANCH   1  31
HETATM   31  N   UNL     1      -0.000  13.796  23.191  0.00  0.00    -0.288 NA
HETATM   32  H   UNL     1       0.305  13.314  22.331  0.00  0.00     0.127 HD
BRANCH  31  33
HETATM   33  C   UNL     1      -1.184  14.496  21.818  0.00  0.00     0.112 C 
BRANCH  33  34
HETATM   34  C   UNL     1      -2.704  14.229  20.606  0.00  0.00     0.130 C 
BRANCH  34  35
HETATM   35  N   UNL     1      -4.281  13.957  20.614  0.00  0.00    -0.420 N 
HETATM   36  C   UNL     1      -5.093  14.563  21.666  0.00  0.00     0.142 C 
HETATM   37  C   UNL     1      -5.040  13.973  19.355  0.00  0.00     0.142 C 
ENDBRANCH  34  35
ENDBRANCH  33  34
ENDBRANCH  31  33
ENDBRANCH   1  31
BRANCH  22  38
HETATM   38  O   UNL     1       3.962   1.102  24.400  0.00  0.00    -0.388 OA
HETATM   39  C   UNL     1       2.571   0.414  24.177  0.00  0.00     0.202 C 
ENDBRANCH  22  38
BRANCH  21  40
HETATM   40  O   UNL     1       7.231   2.796  25.348  0.00  0.00    -0.392 OA
HETATM   41  H   UNL     1       7.935   2.159  25.507  0.00  0.00     0.210 HD
ENDBRANCH  21  40
BRANCH  14  42
HETATM   42  O   UNL     1       2.344   6.224  28.672  0.00  0.00    -0.384 OA
HETATM   43  C   UNL     1       1.314   6.143  29.583  0.00  0.00     0.202 C 
ENDBRANCH  14  42
BRANCH  15  44
HETATM   44  O   UNL     1       4.122   6.526  26.461  0.00  0.00    -0.291 OA
BRANCH  44  45
HETATM   45  C   UNL     1       4.596   7.228  27.515  0.00  0.00     0.359 C 
HETATM   46  N   UNL     1       4.258   8.533  27.444  0.00  0.00    -0.346 N 
HETATM   47  H   UNL     1       3.569   8.912  26.817  0.00  0.00     0.161 HD
HETATM   48  H   UNL     1       4.805   9.127  28.050  0.00  0.00     0.161 HD
HETATM   49  O   UNL     1       5.381   6.859  28.375  0.00  0.00    -0.239 OA
ENDBRANCH  44  45
ENDBRANCH  15  44
TORSDOF 9
ENDMDL
MODEL 9
REMARK VINA RESULT:    -7.362      3.783     11.056
REMARK INTER + INTRA:          -8.469
REMARK INTER:                  -9.084
REMARK INTRA:                   0.614
REMARK UNBOUND:                 0.614
REMARK  9 active torsions:
REMARK  status: ('A' for Active; 'I' for Inactive)
REMARK    1  A    between atoms: N_2  and  C_4 
REMARK    2  A    between atoms: C_4  and  C_5 
REMARK    3  A    between atoms: C_5  and  N_6 
REMARK    4  A    between atoms: N_6  and  C_7 
REMARK    5  A    between atoms: C_20  and  O_21 
REMARK    6  A    between atoms: C_23  and  O_24 
REMARK    7  A    between atoms: O_24  and  C_25 
REMARK       I    between atoms: C_25  and  N_26 
REMARK    8  A    between atoms: C_33  and  O_34 
REMARK    9  A    between atoms: C_35  and  O_36 
ROOT
HETATM    1  C   UNL     1       0.908  10.971  24.402  0.00  0.00     0.066 C 
HETATM    2  C   UNL     1      -0.481  11.925  25.249  0.00  0.00     0.182 C 
HETATM    3  O   UNL     1      -0.581  13.161  25.274  0.00  0.00    -0.290 OA
HETATM    4  C   UNL     1      -1.765  11.457  25.718  0.00  0.00     0.133 C 
HETATM    5  C   UNL     1      -1.141  10.369  26.074  0.00  0.00     0.076 C 
HETATM    6  N   UNL     1      -1.404  10.161  27.363  0.00  0.00    -0.326 N 
HETATM    7  C   UNL     1      -1.145   8.912  27.633  0.00  0.00     0.232 C 
HETATM    8  O   UNL     1      -1.534   7.959  26.989  0.00  0.00    -0.272 OA
HETATM    9  C   UNL     1       0.047   9.040  28.438  0.00  0.00     0.062 C 
HETATM   10  C   UNL     1      -0.522   9.032  29.786  0.00  0.00     0.027 C 
HETATM   11  C   UNL     1       0.952   8.384  27.723  0.00  0.00     0.035 C 
HETATM   12  C   UNL     1       1.122   7.027  28.032  0.00  0.00    -0.021 C 
HETATM   13  C   UNL     1       2.370   6.643  27.892  0.00  0.00     0.004 C 
HETATM   14  C   UNL     1       2.913   5.714  28.883  0.00  0.00     0.177 C 
HETATM   15  C   UNL     1       4.263   5.365  28.442  0.00  0.00     0.194 C 
HETATM   16  C   UNL     1       4.978   4.349  29.255  0.00  0.00    -0.055 C 
HETATM   17  C   UNL     1       4.190   3.576  30.262  0.00  0.00     0.046 C 
HETATM   18  C   UNL     1       6.304   4.190  29.101  0.00  0.00    -0.015 C 
HETATM   19  C   UNL     1       6.920   2.900  29.453  0.00  0.00     0.035 C 
HETATM   20  C   UNL     1       7.585   2.955  30.782  0.00  0.00     0.017 C 
HETATM   21  C   UNL     1       7.488   2.482  28.095  0.00  0.00     0.154 C 
HETATM   22  C   UNL     1       5.919   2.490  27.103  0.00  0.00     0.150 C 
HETATM   23  C   UNL     1       4.655   3.936  26.398  0.00  0.00     0.039 C 
HETATM   24  C   UNL     1       3.979   5.718  25.470  0.00  0.00    -0.012 C 
HETATM   25  C   UNL     1       5.673   5.269  24.721  0.00  0.00     0.010 C 
HETATM   26  C   UNL     1       2.963   7.619  25.028  0.00  0.00     0.049 C 
HETATM   27  C   UNL     1       1.482   9.234  24.781  0.00  0.00     0.019 C 
HETATM   28  C   UNL     1      -0.191   9.345  25.023  0.00  0.00     0.203 C 
HETATM   29  O   UNL     1      -0.854   9.086  24.002  0.00  0.00    -0.286 OA
HETATM   30  H   UNL     1      -1.965  10.737  27.998  0.00  0.00     0.168 HD
ENDROOT
BRANCH   1  31
HETATM   31  N   UNL     1       0.359  12.290  23.102  0.00  0.00    -0.288 NA
HETATM   32  H   UNL     1       1.073  12.923  23.495  0.00  0.00     0.127 HD
BRANCH  31  33
HETATM   33  C   UNL     1       0.997  13.288  21.562  0.00  0.00     0.112 C 
BRANCH  33  34
HETATM   34  C   UNL     1       2.185  14.660  20.816  0.00  0.00     0.130 C 
BRANCH  34  35
HETATM   35  N   UNL     1       3.109  15.892  21.253  0.00  0.00    -0.420 N 
HETATM   36  C   UNL     1       2.474  17.083  21.811  0.00  0.00     0.142 C 
HETATM   37  C   UNL     1       4.377  15.651  21.958  0.00  0.00     0.142 C 
ENDBRANCH  34  35
ENDBRANCH  33  34
ENDBRANCH  31  33
ENDBRANCH   1  31
BRANCH  22  38
HETATM   38  O   UNL     1       5.844   0.769  27.038  0.00  0.00    -0.388 OA
HETATM   39  C   UNL     1       4.840  -0.189  27.769  0.00  0.00     0.202 C 
ENDBRANCH  22  38
BRANCH  21  40
HETATM   40  O   UNL     1       8.770   3.069  27.813  0.00  0.00    -0.392 OA
HETATM   41  H   UNL     1       9.209   3.500  28.554  0.00  0.00     0.210 HD
ENDBRANCH  21  40
BRANCH  14  42
HETATM   42  O   UNL     1       3.213   6.316  30.105  0.00  0.00    -0.384 OA
HETATM   43  C   UNL     1       2.123   6.279  30.948  0.00  0.00     0.202 C 
ENDBRANCH  14  42
BRANCH  15  44
HETATM   44  O   UNL     1       5.115   6.449  27.983  0.00  0.00    -0.291 OA
BRANCH  44  45
HETATM   45  C   UNL     1       5.317   7.452  28.868  0.00  0.00     0.359 C 
HETATM   46  N   UNL     1       4.828   8.627  28.418  0.00  0.00    -0.346 N 
HETATM   47  H   UNL     1       4.205   8.724  27.634  0.00  0.00     0.161 HD
HETATM   48  H   UNL     1       5.188   9.431  28.910  0.00  0.00     0.161 HD
HETATM   49  O   UNL     1       5.996   7.436  29.882  0.00  0.00    -0.239 OA
ENDBRANCH  44  45
ENDBRANCH  15  44
TORSDOF 9
ENDMDL
