MODEL 1
REMARK VINA RESULT:    -8.981      0.000      0.000
REMARK INTER + INTRA:         -12.574
REMARK INTER:                 -11.451
REMARK INTRA:                  -1.123
REMARK UNBOUND:                -0.706
REMARK  6 active torsions:
REMARK  status: ('A' for Active; 'I' for Inactive)
REMARK    1  A    between atoms: O_2  and  C_3 
REMARK    2  A    between atoms: C_8  and  N_9 
REMARK       I    between atoms: N_9  and  C_11 
REMARK    3  A    between atoms: C_11  and  C_13 
REMARK    4  A    between atoms: C_15  and  O_16 
REMARK    5  A    between atoms: C_23  and  C_24 
REMARK    6  A    between atoms: C_24  and  C_25 
ROOT
HETATM    1  C   UNL     1       9.066  12.064  24.657  0.00  0.00     0.066 C 
HETATM    2  C   UNL     1       9.436  11.620  23.357  0.00  0.00     0.035 C 
HETATM    3  C   UNL     1      10.020  11.980  25.677  0.00  0.00     0.083 C 
HETATM    4  C   UNL     1      11.245  11.323  25.500  0.00  0.00     0.069 C 
HETATM    5  C   UNL     1      11.585  10.956  24.196  0.00  0.00     0.065 A 
HETATM    6  C   UNL     1      10.743  11.149  23.111  0.00  0.00     0.020 A 
HETATM    7  N   UNL     1      12.735  10.431  23.674  0.00  0.00    -0.277 N 
HETATM    8  H   UNL     1      13.566  10.143  24.176  0.00  0.00     0.189 HD
HETATM    9  N   UNL     1      12.746  10.352  22.335  0.00  0.00    -0.178 NA
HETATM   10  C   UNL     1      11.552  10.855  21.973  0.00  0.00     0.071 A 
ENDROOT
BRANCH   1  11
HETATM   11  C   UNL     1       7.775  12.821  24.735  0.00  0.00     0.260 C 
HETATM   12  N   UNL     1       7.668  14.235  24.648  0.00  0.00    -0.318 N 
HETATM   13  C   UNL     1       8.811  15.153  24.577  0.00  0.00     0.159 C 
HETATM   14  O   UNL     1       6.796  12.072  24.821  0.00  0.00    -0.267 OA
BRANCH  12  15
HETATM   15  C   UNL     1       6.353  14.860  24.635  0.00  0.00     0.039 A 
HETATM   16  C   UNL     1       5.608  15.051  25.814  0.00  0.00     0.066 A 
HETATM   17  C   UNL     1       4.387  15.748  25.800  0.00  0.00     0.070 A 
HETATM   18  C   UNL     1       3.853  16.198  24.595  0.00  0.00     0.037 A 
HETATM   19  C   UNL     1       4.546  15.972  23.414  0.00  0.00     0.005 A 
HETATM   20  C   UNL     1       5.775  15.312  23.438  0.00  0.00     0.030 A 
BRANCH  17  21
HETATM   21  O   UNL     1       3.772  15.917  27.017  0.00  0.00    -0.356 OA
HETATM   22  C   UNL     1       2.391  15.553  27.047  0.00  0.00     0.210 C 
ENDBRANCH  17  21
ENDBRANCH  12  15
ENDBRANCH   1  11
BRANCH   3  23
HETATM   23  O   UNL     1       9.904  12.630  26.875  0.00  0.00    -0.360 OA
HETATM   24  H   UNL     1      10.604  13.311  26.903  0.00  0.00     0.217 HD
ENDBRANCH   3  23
BRANCH  10  25
HETATM   25  C   UNL     1      11.222  10.989  20.523  0.00  0.00     0.100 C 
BRANCH  25  26
HETATM   26  C   UNL     1      10.370  12.233  20.327  0.00  0.00    -0.052 A 
HETATM   27  C   UNL     1       9.142  12.143  19.652  0.00  0.00     0.007 A 
HETATM   28  C   UNL     1       8.417  13.292  19.336  0.00  0.00     0.001 A 
HETATM   29  C   UNL     1       8.892  14.550  19.701  0.00  0.00     0.007 A 
HETATM   30  C   UNL     1      10.092  14.669  20.412  0.00  0.00    -0.061 A 
HETATM   31  C   UNL     1      10.822  13.510  20.720  0.00  0.00     0.014 A 
HETATM   32  C   UNL     1      10.551  16.022  20.878  0.00  0.00     0.048 C 
ENDBRANCH  25  26
ENDBRANCH  10  25
TORSDOF 6
ENDMDL
MODEL 2
REMARK VINA RESULT:    -8.960      1.278      2.060
REMARK INTER + INTRA:         -12.546
REMARK INTER:                 -11.314
REMARK INTRA:                  -1.233
REMARK UNBOUND:                -0.706
REMARK  6 active torsions:
REMARK  status: ('A' for Active; 'I' for Inactive)
REMARK    1  A    between atoms: O_2  and  C_3 
REMARK    2  A    between atoms: C_8  and  N_9 
REMARK       I    between atoms: N_9  and  C_11 
REMARK    3  A    between atoms: C_11  and  C_13 
REMARK    4  A    between atoms: C_15  and  O_16 
REMARK    5  A    between atoms: C_23  and  C_24 
REMARK    6  A    between atoms: C_24  and  C_25 
ROOT
HETATM    1  C   UNL     1       9.560  13.246  25.535  0.00  0.00     0.066 C 
HETATM    2  C   UNL     1       9.918  12.287  24.548  0.00  0.00     0.035 C 
HETATM    3  C   UNL     1      10.466  13.491  26.574  0.00  0.00     0.083 C 
HETATM    4  C   UNL     1      11.613  12.708  26.761  0.00  0.00     0.069 C 
HETATM    5  C   UNL     1      11.950  11.820  25.738  0.00  0.00     0.065 A 
HETATM    6  C   UNL     1      11.170  11.638  24.605  0.00  0.00     0.020 A 
HETATM    7  N   UNL     1      13.048  11.027  25.553  0.00  0.00    -0.277 N 
HETATM    8  H   UNL     1      13.825  10.889  26.187  0.00  0.00     0.189 HD
HETATM    9  N   UNL     1      13.092  10.417  24.357  0.00  0.00    -0.178 NA
HETATM   10  C   UNL     1      11.975  10.840  23.739  0.00  0.00     0.071 A 
ENDROOT
BRANCH   1  11
HETATM   11  C   UNL     1       8.362  14.086  25.212  0.00  0.00     0.260 C 
HETATM   12  N   UNL     1       7.029  13.597  25.167  0.00  0.00    -0.318 N 
HETATM   13  C   UNL     1       6.654  12.187  25.325  0.00  0.00     0.159 C 
HETATM   14  O   UNL     1       8.653  15.275  25.049  0.00  0.00    -0.267 OA
BRANCH  12  15
HETATM   15  C   UNL     1       5.928  14.523  24.941  0.00  0.00     0.039 A 
HETATM   16  C   UNL     1       5.041  14.889  25.972  0.00  0.00     0.066 A 
HETATM   17  C   UNL     1       4.046  15.862  25.765  0.00  0.00     0.070 A 
HETATM   18  C   UNL     1       3.873  16.427  24.505  0.00  0.00     0.037 A 
HETATM   19  C   UNL     1       4.702  16.039  23.462  0.00  0.00     0.005 A 
HETATM   20  C   UNL     1       5.711  15.100  23.681  0.00  0.00     0.030 A 
BRANCH  17  21
HETATM   21  O   UNL     1       3.271  16.175  26.856  0.00  0.00    -0.356 OA
HETATM   22  C   UNL     1       2.159  15.305  27.071  0.00  0.00     0.210 C 
ENDBRANCH  17  21
ENDBRANCH  12  15
ENDBRANCH   1  11
BRANCH   3  23
HETATM   23  O   UNL     1      10.388  14.574  27.405  0.00  0.00    -0.360 OA
HETATM   24  H   UNL     1      10.757  15.338  26.921  0.00  0.00     0.217 HD
ENDBRANCH   3  23
BRANCH  10  25
HETATM   25  C   UNL     1      11.708  10.411  22.334  0.00  0.00     0.100 C 
BRANCH  25  26
HETATM   26  C   UNL     1      11.393  11.642  21.498  0.00  0.00    -0.052 A 
HETATM   27  C   UNL     1      12.207  12.781  21.593  0.00  0.00     0.007 A 
HETATM   28  C   UNL     1      11.853  13.966  20.946  0.00  0.00     0.001 A 
HETATM   29  C   UNL     1      10.691  14.033  20.181  0.00  0.00     0.007 A 
HETATM   30  C   UNL     1       9.880  12.901  20.033  0.00  0.00    -0.061 A 
HETATM   31  C   UNL     1      10.237  11.714  20.692  0.00  0.00     0.014 A 
HETATM   32  C   UNL     1       8.677  12.957  19.133  0.00  0.00     0.048 C 
ENDBRANCH  25  26
ENDBRANCH  10  25
TORSDOF 6
ENDMDL
MODEL 3
REMARK VINA RESULT:    -8.822      2.685      4.067
REMARK INTER + INTRA:         -12.365
REMARK INTER:                 -11.077
REMARK INTRA:                  -1.287
REMARK UNBOUND:                -0.706
REMARK  6 active torsions:
REMARK  status: ('A' for Active; 'I' for Inactive)
REMARK    1  A    between atoms: O_2  and  C_3 
REMARK    2  A    between atoms: C_8  and  N_9 
REMARK       I    between atoms: N_9  and  C_11 
REMARK    3  A    between atoms: C_11  and  C_13 
REMARK    4  A    between atoms: C_15  and  O_16 
REMARK    5  A    between atoms: C_23  and  C_24 
REMARK    6  A    between atoms: C_24  and  C_25 
ROOT
HETATM    1  C   UNL     1       7.173  14.664  24.999  0.00  0.00     0.066 C 
HETATM    2  C   UNL     1       7.933  14.882  23.817  0.00  0.00     0.035 C 
HETATM    3  C   UNL     1       7.840  14.716  26.228  0.00  0.00     0.083 C 
HETATM    4  C   UNL     1       9.236  14.802  26.315  0.00  0.00     0.069 C 
HETATM    5  C   UNL     1       9.930  15.072  25.135  0.00  0.00     0.065 A 
HETATM    6  C   UNL     1       9.309  15.181  23.899  0.00  0.00     0.020 A 
HETATM    7  N   UNL     1      11.251  15.340  24.902  0.00  0.00    -0.277 N 
HETATM    8  H   UNL     1      12.010  15.332  25.571  0.00  0.00     0.189 HD
HETATM    9  N   UNL     1      11.524  15.705  23.639  0.00  0.00    -0.178 NA
HETATM   10  C   UNL     1      10.326  15.677  23.029  0.00  0.00     0.071 A 
ENDROOT
BRANCH   1  11
HETATM   11  C   UNL     1       5.686  14.661  24.817  0.00  0.00     0.260 C 
HETATM   12  N   UNL     1       4.871  13.499  24.891  0.00  0.00    -0.318 N 
HETATM   13  C   UNL     1       5.383  12.133  25.049  0.00  0.00     0.159 C 
HETATM   14  O   UNL     1       5.231  15.797  24.657  0.00  0.00    -0.267 OA
BRANCH  12  15
HETATM   15  C   UNL     1       3.424  13.625  24.799  0.00  0.00     0.039 A 
HETATM   16  C   UNL     1       2.728  13.352  23.606  0.00  0.00     0.066 A 
HETATM   17  C   UNL     1       1.322  13.379  23.560  0.00  0.00     0.070 A 
HETATM   18  C   UNL     1       0.593  13.753  24.685  0.00  0.00     0.037 A 
HETATM   19  C   UNL     1       1.263  14.078  25.856  0.00  0.00     0.005 A 
HETATM   20  C   UNL     1       2.657  14.016  25.907  0.00  0.00     0.030 A 
BRANCH  17  21
HETATM   21  O   UNL     1       0.750  13.048  22.355  0.00  0.00    -0.356 OA
HETATM   22  C   UNL     1      -0.662  12.842  22.399  0.00  0.00     0.210 C 
ENDBRANCH  17  21
ENDBRANCH  12  15
ENDBRANCH   1  11
BRANCH   3  23
HETATM   23  O   UNL     1       7.199  14.819  27.432  0.00  0.00    -0.360 OA
HETATM   24  H   UNL     1       6.601  15.589  27.376  0.00  0.00     0.217 HD
ENDBRANCH   3  23
BRANCH  10  25
HETATM   25  C   UNL     1      10.222  16.093  21.599  0.00  0.00     0.100 C 
BRANCH  25  26
HETATM   26  C   UNL     1      10.067  14.849  20.738  0.00  0.00    -0.052 A 
HETATM   27  C   UNL     1       8.871  14.626  20.037  0.00  0.00     0.007 A 
HETATM   28  C   UNL     1       8.655  13.426  19.360  0.00  0.00     0.001 A 
HETATM   29  C   UNL     1       9.631  12.432  19.355  0.00  0.00     0.007 A 
HETATM   30  C   UNL     1      10.851  12.642  20.009  0.00  0.00    -0.061 A 
HETATM   31  C   UNL     1      11.060  13.848  20.696  0.00  0.00     0.014 A 
HETATM   32  C   UNL     1      11.932  11.601  19.923  0.00  0.00     0.048 C 
ENDBRANCH  25  26
ENDBRANCH  10  25
TORSDOF 6
ENDMDL
MODEL 4
REMARK VINA RESULT:    -8.730      2.400      4.581
REMARK INTER + INTRA:         -12.243
REMARK INTER:                 -11.537
REMARK INTRA:                  -0.706
REMARK UNBOUND:                -0.706
REMARK  6 active torsions:
REMARK  status: ('A' for Active; 'I' for Inactive)
REMARK    1  A    between atoms: O_2  and  C_3 
REMARK    2  A    between atoms: C_8  and  N_9 
REMARK       I    between atoms: N_9  and  C_11 
REMARK    3  A    between atoms: C_11  and  C_13 
REMARK    4  A    between atoms: C_15  and  O_16 
REMARK    5  A    between atoms: C_23  and  C_24 
REMARK    6  A    between atoms: C_24  and  C_25 
ROOT
HETATM    1  C   UNL     1       9.093  13.472  20.810  0.00  0.00     0.066 C 
HETATM    2  C   UNL     1      10.099  13.169  21.769  0.00  0.00     0.035 C 
HETATM    3  C   UNL     1       9.257  12.984  19.509  0.00  0.00     0.083 C 
HETATM    4  C   UNL     1      10.443  12.368  19.088  0.00  0.00     0.069 C 
HETATM    5  C   UNL     1      11.375  12.043  20.076  0.00  0.00     0.065 A 
HETATM    6  C   UNL     1      11.204  12.366  21.414  0.00  0.00     0.020 A 
HETATM    7  N   UNL     1      12.545  11.337  20.020  0.00  0.00    -0.277 N 
HETATM    8  H   UNL     1      12.998  10.957  19.199  0.00  0.00     0.189 HD
HETATM    9  N   UNL     1      13.100  11.095  21.218  0.00  0.00    -0.178 NA
HETATM   10  C   UNL     1      12.247  11.665  22.089  0.00  0.00     0.071 A 
ENDROOT
BRANCH   1  11
HETATM   11  C   UNL     1       7.832  14.061  21.365  0.00  0.00     0.260 C 
HETATM   12  N   UNL     1       6.888  13.343  22.147  0.00  0.00    -0.318 N 
HETATM   13  C   UNL     1       6.964  11.905  22.430  0.00  0.00     0.159 C 
HETATM   14  O   UNL     1       7.730  15.267  21.119  0.00  0.00    -0.267 OA
BRANCH  12  15
HETATM   15  C   UNL     1       5.745  14.041  22.720  0.00  0.00     0.039 A 
HETATM   16  C   UNL     1       4.510  13.399  22.929  0.00  0.00     0.066 A 
HETATM   17  C   UNL     1       3.448  14.055  23.577  0.00  0.00     0.070 A 
HETATM   18  C   UNL     1       3.579  15.388  23.957  0.00  0.00     0.037 A 
HETATM   19  C   UNL     1       4.770  16.055  23.710  0.00  0.00     0.005 A 
HETATM   20  C   UNL     1       5.833  15.389  23.100  0.00  0.00     0.030 A 
BRANCH  17  21
HETATM   21  O   UNL     1       2.307  13.314  23.770  0.00  0.00    -0.356 OA
HETATM   22  C   UNL     1       1.603  13.601  24.979  0.00  0.00     0.210 C 
ENDBRANCH  17  21
ENDBRANCH  12  15
ENDBRANCH   1  11
BRANCH   3  23
HETATM   23  O   UNL     1       8.250  12.945  18.584  0.00  0.00    -0.360 OA
HETATM   24  H   UNL     1       7.436  13.250  19.030  0.00  0.00     0.217 HD
ENDBRANCH   3  23
BRANCH  10  25
HETATM   25  C   UNL     1      12.507  11.544  23.554  0.00  0.00     0.100 C 
BRANCH  25  26
HETATM   26  C   UNL     1      11.178  11.379  24.275  0.00  0.00    -0.052 A 
HETATM   27  C   UNL     1      10.780  12.320  25.238  0.00  0.00     0.007 A 
HETATM   28  C   UNL     1       9.638  12.109  26.011  0.00  0.00     0.001 A 
HETATM   29  C   UNL     1       8.862  10.967  25.828  0.00  0.00     0.007 A 
HETATM   30  C   UNL     1       9.209  10.031  24.846  0.00  0.00    -0.061 A 
HETATM   31  C   UNL     1      10.364  10.243  24.077  0.00  0.00     0.014 A 
HETATM   32  C   UNL     1       8.317   8.847  24.596  0.00  0.00     0.048 C 
ENDBRANCH  25  26
ENDBRANCH  10  25
TORSDOF 6
ENDMDL
MODEL 5
REMARK VINA RESULT:    -8.668      3.868      8.944
REMARK INTER + INTRA:         -12.161
REMARK INTER:                 -11.428
REMARK INTRA:                  -0.733
REMARK UNBOUND:                -0.706
REMARK  6 active torsions:
REMARK  status: ('A' for Active; 'I' for Inactive)
REMARK    1  A    between atoms: O_2  and  C_3 
REMARK    2  A    between atoms: C_8  and  N_9 
REMARK       I    between atoms: N_9  and  C_11 
REMARK    3  A    between atoms: C_11  and  C_13 
REMARK    4  A    between atoms: C_15  and  O_16 
REMARK    5  A    between atoms: C_23  and  C_24 
REMARK    6  A    between atoms: C_24  and  C_25 
ROOT
HETATM    1  C   UNL     1       5.700  14.846  23.824  0.00  0.00     0.066 C 
HETATM    2  C   UNL     1       4.395  14.551  23.341  0.00  0.00     0.035 C 
HETATM    3  C   UNL     1       5.851  15.118  25.189  0.00  0.00     0.083 C 
HETATM    4  C   UNL     1       4.751  15.276  26.042  0.00  0.00     0.069 C 
HETATM    5  C   UNL     1       3.499  14.921  25.537  0.00  0.00     0.065 A 
HETATM    6  C   UNL     1       3.301  14.498  24.231  0.00  0.00     0.020 A 
HETATM    7  N   UNL     1       2.272  14.834  26.136  0.00  0.00    -0.277 N 
HETATM    8  H   UNL     1       2.030  15.082  27.087  0.00  0.00     0.189 HD
HETATM    9  N   UNL     1       1.316  14.303  25.357  0.00  0.00    -0.178 NA
HETATM   10  C   UNL     1       1.954  14.029  24.205  0.00  0.00     0.071 A 
ENDROOT
BRANCH   1  11
HETATM   11  C   UNL     1       6.818  14.576  22.864  0.00  0.00     0.260 C 
HETATM   12  N   UNL     1       7.433  13.308  22.685  0.00  0.00    -0.318 N 
HETATM   13  C   UNL     1       7.132  12.118  23.489  0.00  0.00     0.159 C 
HETATM   14  O   UNL     1       7.109  15.570  22.191  0.00  0.00    -0.267 OA
BRANCH  12  15
HETATM   15  C   UNL     1       8.444  13.135  21.652  0.00  0.00     0.039 A 
HETATM   16  C   UNL     1       9.815  13.324  21.912  0.00  0.00     0.066 A 
HETATM   17  C   UNL     1      10.787  13.053  20.933  0.00  0.00     0.070 A 
HETATM   18  C   UNL     1      10.400  12.663  19.654  0.00  0.00     0.037 A 
HETATM   19  C   UNL     1       9.051  12.524  19.361  0.00  0.00     0.005 A 
HETATM   20  C   UNL     1       8.091  12.758  20.347  0.00  0.00     0.030 A 
BRANCH  17  21
HETATM   21  O   UNL     1      12.095  13.226  21.315  0.00  0.00    -0.356 OA
HETATM   22  C   UNL     1      12.722  14.400  20.796  0.00  0.00     0.210 C 
ENDBRANCH  17  21
ENDBRANCH  12  15
ENDBRANCH   1  11
BRANCH   3  23
HETATM   23  O   UNL     1       7.059  15.125  25.829  0.00  0.00    -0.360 OA
HETATM   24  H   UNL     1       7.635  14.486  25.366  0.00  0.00     0.217 HD
ENDBRANCH   3  23
BRANCH  10  25
HETATM   25  C   UNL     1       1.211  13.359  23.097  0.00  0.00     0.100 C 
BRANCH  25  26
HETATM   26  C   UNL     1       0.088  12.525  23.695  0.00  0.00    -0.052 A 
HETATM   27  C   UNL     1      -1.243  12.955  23.581  0.00  0.00     0.007 A 
HETATM   28  C   UNL     1      -2.269  12.282  24.245  0.00  0.00     0.001 A 
HETATM   29  C   UNL     1      -1.991  11.159  25.021  0.00  0.00     0.007 A 
HETATM   30  C   UNL     1      -0.679  10.681  25.120  0.00  0.00    -0.061 A 
HETATM   31  C   UNL     1       0.351  11.366  24.457  0.00  0.00     0.014 A 
HETATM   32  C   UNL     1      -0.402   9.417  25.886  0.00  0.00     0.048 C 
ENDBRANCH  25  26
ENDBRANCH  10  25
TORSDOF 6
ENDMDL
MODEL 6
REMARK VINA RESULT:    -8.641      2.217      3.603
REMARK INTER + INTRA:         -12.125
REMARK INTER:                 -11.793
REMARK INTRA:                  -0.332
REMARK UNBOUND:                -0.706
REMARK  6 active torsions:
REMARK  status: ('A' for Active; 'I' for Inactive)
REMARK    1  A    between atoms: O_2  and  C_3 
REMARK    2  A    between atoms: C_8  and  N_9 
REMARK       I    between atoms: N_9  and  C_11 
REMARK    3  A    between atoms: C_11  and  C_13 
REMARK    4  A    between atoms: C_15  and  O_16 
REMARK    5  A    between atoms: C_23  and  C_24 
REMARK    6  A    between atoms: C_24  and  C_25 
ROOT
HETATM    1  C   UNL     1       8.552  12.017  22.430  0.00  0.00     0.066 C 
HETATM    2  C   UNL     1       9.748  12.545  22.991  0.00  0.00     0.035 C 
HETATM    3  C   UNL     1       8.644  10.847  21.667  0.00  0.00     0.083 C 
HETATM    4  C   UNL     1       9.878  10.291  21.302  0.00  0.00     0.069 C 
HETATM    5  C   UNL     1      11.016  10.809  21.923  0.00  0.00     0.065 A 
HETATM    6  C   UNL     1      10.977  11.876  22.809  0.00  0.00     0.020 A 
HETATM    7  N   UNL     1      12.325  10.413  21.890  0.00  0.00    -0.277 N 
HETATM    8  H   UNL     1      12.732   9.672  21.334  0.00  0.00     0.189 HD
HETATM    9  N   UNL     1      13.121  11.070  22.747  0.00  0.00    -0.178 NA
HETATM   10  C   UNL     1      12.288  11.927  23.367  0.00  0.00     0.071 A 
ENDROOT
BRANCH   1  11
HETATM   11  C   UNL     1       7.280  12.627  22.935  0.00  0.00     0.260 C 
HETATM   12  N   UNL     1       6.822  13.926  22.591  0.00  0.00    -0.318 N 
HETATM   13  C   UNL     1       7.579  14.888  21.781  0.00  0.00     0.159 C 
HETATM   14  O   UNL     1       6.635  11.846  23.641  0.00  0.00    -0.267 OA
BRANCH  12  15
HETATM   15  C   UNL     1       5.520  14.380  23.060  0.00  0.00     0.039 A 
HETATM   16  C   UNL     1       4.390  13.540  23.048  0.00  0.00     0.066 A 
HETATM   17  C   UNL     1       3.166  13.958  23.599  0.00  0.00     0.070 A 
HETATM   18  C   UNL     1       3.030  15.250  24.101  0.00  0.00     0.037 A 
HETATM   19  C   UNL     1       4.117  16.112  24.071  0.00  0.00     0.005 A 
HETATM   20  C   UNL     1       5.341  15.680  23.557  0.00  0.00     0.030 A 
BRANCH  17  21
HETATM   21  O   UNL     1       2.146  13.038  23.576  0.00  0.00    -0.356 OA
HETATM   22  C   UNL     1       0.869  13.548  23.959  0.00  0.00     0.210 C 
ENDBRANCH  17  21
ENDBRANCH  12  15
ENDBRANCH   1  11
BRANCH   3  23
HETATM   23  O   UNL     1       7.564  10.082  21.324  0.00  0.00    -0.360 OA
HETATM   24  H   UNL     1       7.697   9.792  20.400  0.00  0.00     0.217 HD
ENDBRANCH   3  23
BRANCH  10  25
HETATM   25  C   UNL     1      12.815  12.802  24.456  0.00  0.00     0.100 C 
BRANCH  25  26
HETATM   26  C   UNL     1      11.828  13.933  24.696  0.00  0.00    -0.052 A 
HETATM   27  C   UNL     1      10.944  13.874  25.785  0.00  0.00     0.007 A 
HETATM   28  C   UNL     1       9.938  14.827  25.939  0.00  0.00     0.001 A 
HETATM   29  C   UNL     1       9.802  15.866  25.021  0.00  0.00     0.007 A 
HETATM   30  C   UNL     1      10.695  15.976  23.947  0.00  0.00    -0.061 A 
HETATM   31  C   UNL     1      11.701  15.010  23.793  0.00  0.00     0.014 A 
HETATM   32  C   UNL     1      10.596  17.150  23.013  0.00  0.00     0.048 C 
ENDBRANCH  25  26
ENDBRANCH  10  25
TORSDOF 6
ENDMDL
MODEL 7
REMARK VINA RESULT:    -8.632      2.216      3.001
REMARK INTER + INTRA:         -12.113
REMARK INTER:                 -10.990
REMARK INTRA:                  -1.123
REMARK UNBOUND:                -0.706
REMARK  6 active torsions:
REMARK  status: ('A' for Active; 'I' for Inactive)
REMARK    1  A    between atoms: O_2  and  C_3 
REMARK    2  A    between atoms: C_8  and  N_9 
REMARK       I    between atoms: N_9  and  C_11 
REMARK    3  A    between atoms: C_11  and  C_13 
REMARK    4  A    between atoms: C_15  and  O_16 
REMARK    5  A    between atoms: C_23  and  C_24 
REMARK    6  A    between atoms: C_24  and  C_25 
ROOT
HETATM    1  C   UNL     1       8.493  11.943  24.130  0.00  0.00     0.066 C 
HETATM    2  C   UNL     1       9.712  12.674  24.082  0.00  0.00     0.035 C 
HETATM    3  C   UNL     1       8.565  10.555  24.296  0.00  0.00     0.083 C 
HETATM    4  C   UNL     1       9.781   9.860  24.240  0.00  0.00     0.069 C 
HETATM    5  C   UNL     1      10.949  10.624  24.249  0.00  0.00     0.065 A 
HETATM    6  C   UNL     1      10.948  12.011  24.237  0.00  0.00     0.020 A 
HETATM    7  N   UNL     1      12.266  10.264  24.332  0.00  0.00    -0.277 N 
HETATM    8  H   UNL     1      12.650   9.327  24.343  0.00  0.00     0.189 HD
HETATM    9  N   UNL     1      13.112  11.296  24.469  0.00  0.00    -0.178 NA
HETATM   10  C   UNL     1      12.306  12.373  24.480  0.00  0.00     0.071 A 
ENDROOT
BRANCH   1  11
HETATM   11  C   UNL     1       7.251  12.770  24.263  0.00  0.00     0.260 C 
HETATM   12  N   UNL     1       6.614  13.439  23.184  0.00  0.00    -0.318 N 
HETATM   13  C   UNL     1       7.141  13.500  21.816  0.00  0.00     0.159 C 
HETATM   14  O   UNL     1       6.799  12.757  25.412  0.00  0.00    -0.267 OA
BRANCH  12  15
HETATM   15  C   UNL     1       5.354  14.133  23.408  0.00  0.00     0.039 A 
HETATM   16  C   UNL     1       4.128  13.445  23.486  0.00  0.00     0.066 A 
HETATM   17  C   UNL     1       2.934  14.115  23.804  0.00  0.00     0.070 A 
HETATM   18  C   UNL     1       2.933  15.497  23.974  0.00  0.00     0.037 A 
HETATM   19  C   UNL     1       4.122  16.202  23.848  0.00  0.00     0.005 A 
HETATM   20  C   UNL     1       5.310  15.527  23.568  0.00  0.00     0.030 A 
BRANCH  17  21
HETATM   21  O   UNL     1       1.808  13.334  23.901  0.00  0.00    -0.356 OA
HETATM   22  C   UNL     1       0.949  13.653  24.996  0.00  0.00     0.210 C 
ENDBRANCH  17  21
ENDBRANCH  12  15
ENDBRANCH   1  11
BRANCH   3  23
HETATM   23  O   UNL     1       7.495   9.780  24.650  0.00  0.00    -0.360 OA
HETATM   24  H   UNL     1       7.319   9.172  23.905  0.00  0.00     0.217 HD
ENDBRANCH   3  23
BRANCH  10  25
HETATM   25  C   UNL     1      12.897  13.729  24.682  0.00  0.00     0.100 C 
BRANCH  25  26
HETATM   26  C   UNL     1      12.137  14.728  23.824  0.00  0.00    -0.052 A 
HETATM   27  C   UNL     1      11.269  15.652  24.427  0.00  0.00     0.007 A 
HETATM   28  C   UNL     1      10.456  16.478  23.649  0.00  0.00     0.001 A 
HETATM   29  C   UNL     1      10.503  16.410  22.259  0.00  0.00     0.007 A 
HETATM   30  C   UNL     1      11.390  15.528  21.628  0.00  0.00    -0.061 A 
HETATM   31  C   UNL     1      12.200  14.694  22.415  0.00  0.00     0.014 A 
HETATM   32  C   UNL     1      11.499  15.526  20.129  0.00  0.00     0.048 C 
ENDBRANCH  25  26
ENDBRANCH  10  25
TORSDOF 6
ENDMDL
MODEL 8
REMARK VINA RESULT:    -8.620      2.151      2.846
REMARK INTER + INTRA:         -12.097
REMARK INTER:                 -10.542
REMARK INTRA:                  -1.556
REMARK UNBOUND:                -0.706
REMARK  6 active torsions:
REMARK  status: ('A' for Active; 'I' for Inactive)
REMARK    1  A    between atoms: O_2  and  C_3 
REMARK    2  A    between atoms: C_8  and  N_9 
REMARK       I    between atoms: N_9  and  C_11 
REMARK    3  A    between atoms: C_11  and  C_13 
REMARK    4  A    between atoms: C_15  and  O_16 
REMARK    5  A    between atoms: C_23  and  C_24 
REMARK    6  A    between atoms: C_24  and  C_25 
ROOT
HETATM    1  C   UNL     1       9.146  13.985  24.595  0.00  0.00     0.066 C 
HETATM    2  C   UNL     1       9.609  12.801  23.957  0.00  0.00     0.035 C 
HETATM    3  C   UNL     1      10.091  14.957  24.943  0.00  0.00     0.083 C 
HETATM    4  C   UNL     1      11.469  14.725  24.843  0.00  0.00     0.069 C 
HETATM    5  C   UNL     1      11.872  13.576  24.161  0.00  0.00     0.065 A 
HETATM    6  C   UNL     1      10.978  12.642  23.656  0.00  0.00     0.020 A 
HETATM    7  N   UNL     1      13.109  13.134  23.782  0.00  0.00    -0.277 N 
HETATM    8  H   UNL     1      14.006  13.554  23.993  0.00  0.00     0.189 HD
HETATM    9  N   UNL     1      13.089  12.046  22.997  0.00  0.00    -0.178 NA
HETATM   10  C   UNL     1      11.779  11.774  22.856  0.00  0.00     0.071 A 
ENDROOT
BRANCH   1  11
HETATM   11  C   UNL     1       7.660  14.182  24.588  0.00  0.00     0.260 C 
HETATM   12  N   UNL     1       6.921  14.672  23.478  0.00  0.00    -0.318 N 
HETATM   13  C   UNL     1       7.520  15.153  22.227  0.00  0.00     0.159 C 
HETATM   14  O   UNL     1       7.133  13.808  25.640  0.00  0.00    -0.267 OA
BRANCH  12  15
HETATM   15  C   UNL     1       5.468  14.729  23.546  0.00  0.00     0.039 A 
HETATM   16  C   UNL     1       4.666  13.608  23.260  0.00  0.00     0.066 A 
HETATM   17  C   UNL     1       3.270  13.648  23.429  0.00  0.00     0.070 A 
HETATM   18  C   UNL     1       2.647  14.832  23.814  0.00  0.00     0.037 A 
HETATM   19  C   UNL     1       3.416  15.964  24.047  0.00  0.00     0.005 A 
HETATM   20  C   UNL     1       4.804  15.909  23.913  0.00  0.00     0.030 A 
BRANCH  17  21
HETATM   21  O   UNL     1       2.595  12.481  23.167  0.00  0.00    -0.356 OA
HETATM   22  C   UNL     1       1.697  12.063  24.196  0.00  0.00     0.210 C 
ENDBRANCH  17  21
ENDBRANCH  12  15
ENDBRANCH   1  11
BRANCH   3  23
HETATM   23  O   UNL     1       9.765  16.241  25.283  0.00  0.00    -0.360 OA
HETATM   24  H   UNL     1      10.521  16.610  25.779  0.00  0.00     0.217 HD
ENDBRANCH   3  23
BRANCH  10  25
HETATM   25  C   UNL     1      11.355  10.643  21.979  0.00  0.00     0.100 C 
BRANCH  25  26
HETATM   26  C   UNL     1      10.273  11.136  21.032  0.00  0.00    -0.052 A 
HETATM   27  C   UNL     1      10.582  12.091  20.050  0.00  0.00     0.007 A 
HETATM   28  C   UNL     1       9.577  12.662  19.269  0.00  0.00     0.001 A 
HETATM   29  C   UNL     1       8.248  12.281  19.440  0.00  0.00     0.007 A 
HETATM   30  C   UNL     1       7.913  11.300  20.382  0.00  0.00    -0.061 A 
HETATM   31  C   UNL     1       8.927  10.735  21.170  0.00  0.00     0.014 A 
HETATM   32  C   UNL     1       6.489  10.831  20.496  0.00  0.00     0.048 C 
ENDBRANCH  25  26
ENDBRANCH  10  25
TORSDOF 6
ENDMDL
MODEL 9
REMARK VINA RESULT:    -8.531      3.065      7.556
REMARK INTER + INTRA:         -11.980
REMARK INTER:                 -10.705
REMARK INTRA:                  -1.275
REMARK UNBOUND:                -0.706
REMARK  6 active torsions:
REMARK  status: ('A' for Active; 'I' for Inactive)
REMARK    1  A    between atoms: O_2  and  C_3 
REMARK    2  A    between atoms: C_8  and  N_9 
REMARK       I    between atoms: N_9  and  C_11 
REMARK    3  A    between atoms: C_11  and  C_13 
REMARK    4  A    between atoms: C_15  and  O_16 
REMARK    5  A    between atoms: C_23  and  C_24 
REMARK    6  A    between atoms: C_24  and  C_25 
ROOT
HETATM    1  C   UNL     1       7.062  11.612  23.162  0.00  0.00     0.066 C 
HETATM    2  C   UNL     1       5.795  12.243  23.304  0.00  0.00     0.035 C 
HETATM    3  C   UNL     1       7.172  10.267  23.533  0.00  0.00     0.083 C 
HETATM    4  C   UNL     1       6.137   9.589  24.191  0.00  0.00     0.069 C 
HETATM    5  C   UNL     1       4.899  10.229  24.256  0.00  0.00     0.065 A 
HETATM    6  C   UNL     1       4.682  11.511  23.770  0.00  0.00     0.020 A 
HETATM    7  N   UNL     1       3.679   9.800  24.700  0.00  0.00    -0.277 N 
HETATM    8  H   UNL     1       3.458   8.915  25.140  0.00  0.00     0.189 HD
HETATM    9  N   UNL     1       2.673  10.655  24.460  0.00  0.00    -0.178 NA
HETATM   10  C   UNL     1       3.267  11.682  23.826  0.00  0.00     0.071 A 
ENDROOT
BRANCH   1  11
HETATM   11  C   UNL     1       8.081  12.384  22.381  0.00  0.00     0.260 C 
HETATM   12  N   UNL     1       8.932  13.377  22.935  0.00  0.00    -0.318 N 
HETATM   13  C   UNL     1       8.858  13.858  24.320  0.00  0.00     0.159 C 
HETATM   14  O   UNL     1       8.147  12.017  21.204  0.00  0.00    -0.267 OA
BRANCH  12  15
HETATM   15  C   UNL     1       9.957  13.994  22.105  0.00  0.00     0.039 A 
HETATM   16  C   UNL     1      11.091  13.282  21.671  0.00  0.00     0.066 A 
HETATM   17  C   UNL     1      12.020  13.860  20.786  0.00  0.00     0.070 A 
HETATM   18  C   UNL     1      11.870  15.184  20.383  0.00  0.00     0.037 A 
HETATM   19  C   UNL     1      10.788  15.920  20.844  0.00  0.00     0.005 A 
HETATM   20  C   UNL     1       9.850  15.331  21.692  0.00  0.00     0.030 A 
BRANCH  17  21
HETATM   21  O   UNL     1      13.061  13.055  20.391  0.00  0.00    -0.356 OA
HETATM   22  C   UNL     1      12.814  11.653  20.510  0.00  0.00     0.210 C 
ENDBRANCH  17  21
ENDBRANCH  12  15
ENDBRANCH   1  11
BRANCH   3  23
HETATM   23  O   UNL     1       8.226   9.470  23.180  0.00  0.00    -0.360 OA
HETATM   24  H   UNL     1       7.864   8.727  22.659  0.00  0.00     0.217 HD
ENDBRANCH   3  23
BRANCH  10  25
HETATM   25  C   UNL     1       2.435  12.821  23.337  0.00  0.00     0.100 C 
BRANCH  25  26
HETATM   26  C   UNL     1       2.780  14.062  24.146  0.00  0.00    -0.052 A 
HETATM   27  C   UNL     1       3.680  15.008  23.630  0.00  0.00     0.007 A 
HETATM   28  C   UNL     1       4.119  16.075  24.414  0.00  0.00     0.001 A 
HETATM   29  C   UNL     1       3.658  16.230  25.720  0.00  0.00     0.007 A 
HETATM   30  C   UNL     1       2.728  15.326  26.248  0.00  0.00    -0.061 A 
HETATM   31  C   UNL     1       2.296  14.249  25.458  0.00  0.00     0.014 A 
HETATM   32  C   UNL     1       2.170  15.552  27.626  0.00  0.00     0.048 C 
ENDBRANCH  25  26
ENDBRANCH  10  25
TORSDOF 6
ENDMDL
