REMARK  6 active torsions:
REMARK  status: ('A' for Active; 'I' for Inactive)
REMARK    1  A    between atoms: O_2  and  C_3 
REMARK    2  A    between atoms: C_8  and  N_9 
REMARK       I    between atoms: N_9  and  C_11 
REMARK    3  A    between atoms: C_11  and  C_13 
REMARK    4  A    between atoms: C_15  and  O_16 
REMARK    5  A    between atoms: C_23  and  C_24 
REMARK    6  A    between atoms: C_24  and  C_25 
ROOT
HETATM    1  C   UNL     1       5.349   1.612  -5.905  0.00  0.00     0.066 C 
HETATM    2  C   UNL     1       4.907   2.962  -5.976  0.00  0.00     0.035 C 
HETATM    3  C   UNL     1       6.193   1.142  -6.918  0.00  0.00     0.083 C 
HETATM    4  C   UNL     1       6.467   1.895  -8.068  0.00  0.00     0.069 C 
HETATM    5  C   UNL     1       6.059   3.230  -8.065  0.00  0.00     0.065 A 
HETATM    6  C   UNL     1       5.346   3.802  -7.021  0.00  0.00     0.020 A 
HETATM    7  N   UNL     1       6.281   4.247  -8.952  0.00  0.00    -0.277 N 
HETATM    8  H   UNL     1       6.755   4.195  -9.845  0.00  0.00     0.189 HD
HETATM    9  N   UNL     1       5.855   5.448  -8.531  0.00  0.00    -0.178 NA
HETATM   10  C   UNL     1       5.339   5.198  -7.314  0.00  0.00     0.071 A 
ENDROOT
BRANCH   1  11
HETATM   11  C   UNL     1       5.075   0.912  -4.609  0.00  0.00     0.260 C 
HETATM   12  N   UNL     1       4.872  -0.488  -4.481  0.00  0.00    -0.318 N 
HETATM   13  C   UNL     1       4.797  -1.424  -5.609  0.00  0.00     0.159 C 
HETATM   14  O   UNL     1       5.107   1.682  -3.644  0.00  0.00    -0.267 OA
BRANCH  12  15
HETATM   15  C   UNL     1       4.713  -1.077  -3.159  0.00  0.00     0.039 A 
HETATM   16  C   UNL     1       5.123  -2.394  -2.877  0.00  0.00     0.066 A 
HETATM   17  C   UNL     1       5.058  -2.914  -1.572  0.00  0.00     0.070 A 
HETATM   18  C   UNL     1       4.511  -2.152  -0.543  0.00  0.00     0.037 A 
HETATM   19  C   UNL     1       4.051  -0.871  -0.812  0.00  0.00     0.005 A 
HETATM   20  C   UNL     1       4.151  -0.346  -2.101  0.00  0.00     0.030 A 
BRANCH  17  21
HETATM   21  O   UNL     1       5.531  -4.193  -1.406  0.00  0.00    -0.356 OA
HETATM   22  C   UNL     1       6.111  -4.457  -0.128  0.00  0.00     0.210 C 
ENDBRANCH  17  21
ENDBRANCH  12  15
ENDBRANCH   1  11
BRANCH   3  23
HETATM   23  O   UNL     1       6.917  -0.014  -6.823  0.00  0.00    -0.360 OA
HETATM   24  H   UNL     1       7.164  -0.124  -5.884  0.00  0.00     0.217 HD
ENDBRANCH   3  23
BRANCH  10  25
HETATM   25  C   UNL     1       4.812   6.330  -6.495  0.00  0.00     0.100 C 
BRANCH  25  26
HETATM   26  C   UNL     1       5.916   6.822  -5.572  0.00  0.00    -0.052 A 
HETATM   27  C   UNL     1       5.894   6.483  -4.210  0.00  0.00     0.007 A 
HETATM   28  C   UNL     1       6.814   7.041  -3.322  0.00  0.00     0.001 A 
HETATM   29  C   UNL     1       7.782   7.934  -3.776  0.00  0.00     0.007 A 
HETATM   30  C   UNL     1       7.856   8.259  -5.136  0.00  0.00    -0.061 A 
HETATM   31  C   UNL     1       6.923   7.701  -6.024  0.00  0.00     0.014 A 
HETATM   32  C   UNL     1       8.959   9.153  -5.630  0.00  0.00     0.048 C 
ENDBRANCH  25  26
ENDBRANCH  10  25
TORSDOF 6
