MODEL 1
REMARK VINA RESULT:    -7.786      0.000      0.000
REMARK INTER + INTRA:          -8.014
REMARK INTER:                  -8.014
REMARK INTRA:                   0.000
REMARK UNBOUND:                 0.000
REMARK  2 active torsions:
REMARK  status: ('A' for Active; 'I' for Inactive)
REMARK    1  A    between atoms: C_17  and  O_18 
REMARK    2  A    between atoms: C_20  and  O_21 
ROOT
HETATM    1  C   UNL     1       5.792   6.503  22.571  0.00  0.00     0.040 C 
HETATM    2  C   UNL     1       3.910   7.232  23.289  0.00  0.00     0.130 C 
HETATM    3  C   UNL     1       5.385   6.816  24.589  0.00  0.00     0.067 C 
HETATM    4  C   UNL     1       4.777   5.985  25.561  0.00  0.00     0.157 A 
HETATM    5  O   UNL     1       5.094   5.843  26.936  0.00  0.00    -0.371 OA
HETATM    6  C   UNL     1       4.435   7.032  26.523  0.00  0.00     0.174 A 
HETATM    7  C   UNL     1       3.056   7.398  26.501  0.00  0.00     0.007 C 
HETATM    8  C   UNL     1       2.648   8.554  25.981  0.00  0.00    -0.001 C 
HETATM    9  C   UNL     1       1.313   8.977  26.120  0.00  0.00     0.003 C 
HETATM   10  C   UNL     1       0.995  10.190  25.692  0.00  0.00     0.050 C 
HETATM   11  C   UNL     1      -0.384  10.476  25.766  0.00  0.00     0.150 C 
HETATM   12  O   UNL     1      -1.158   9.526  26.034  0.00  0.00    -0.293 OA
HETATM   13  C   UNL     1      -0.749  11.817  25.118  0.00  0.00     0.107 C 
HETATM   14  C   UNL     1      -2.027  11.213  24.948  0.00  0.00     0.079 A 
HETATM   15  C   UNL     1      -3.039  11.494  26.368  0.00  0.00     0.062 C 
HETATM   16 CL   UNL     1      -2.311  11.066  27.939  0.00  0.00    -0.085 Cl
HETATM   17  C   UNL     1      -4.394  11.522  26.527  0.00  0.00     0.084 C 
HETATM   18  C   UNL     1      -4.799  11.517  25.268  0.00  0.00     0.055 C 
HETATM   19  C   UNL     1      -3.549  10.930  24.106  0.00  0.00     0.126 A 
HETATM   20  C   UNL     1      -1.736  10.239  23.654  0.00  0.00     0.053 A 
HETATM   21  C   UNL     1       0.239   9.238  23.438  0.00  0.00     0.290 C 
HETATM   22  O   UNL     1       0.382  10.191  22.689  0.00  0.00    -0.260 OA
HETATM   23  O   UNL     1       2.106   8.289  23.234  0.00  0.00    -0.313 OA
ENDROOT
BRANCH  17  24
HETATM   24  O   UNL     1      -5.145  11.308  27.638  0.00  0.00    -0.359 OA
HETATM   25  H   UNL     1      -5.792  10.596  27.408  0.00  0.00     0.217 HD
ENDBRANCH  17  24
BRANCH  19  26
HETATM   26  O   UNL     1      -4.559  12.283  23.285  0.00  0.00    -0.379 OA
HETATM   27  H   UNL     1      -4.848  13.259  23.720  0.00  0.00     0.211 HD
ENDBRANCH  19  26
TORSDOF 2
ENDMDL
MODEL 2
REMARK VINA RESULT:    -7.691      4.721      7.800
REMARK INTER + INTRA:          -7.916
REMARK INTER:                  -7.916
REMARK INTRA:                   0.000
REMARK UNBOUND:                 0.000
REMARK  2 active torsions:
REMARK  status: ('A' for Active; 'I' for Inactive)
REMARK    1  A    between atoms: C_17  and  O_18 
REMARK    2  A    between atoms: C_20  and  O_21 
ROOT
HETATM    1  C   UNL     1      -1.079   8.748  28.375  0.00  0.00     0.040 C 
HETATM    2  C   UNL     1      -0.791  10.149  26.781  0.00  0.00     0.130 C 
HETATM    3  C   UNL     1      -2.322  10.388  28.060  0.00  0.00     0.067 C 
HETATM    4  C   UNL     1      -3.456  10.557  27.229  0.00  0.00     0.157 A 
HETATM    5  O   UNL     1      -4.643  11.291  27.479  0.00  0.00    -0.371 OA
HETATM    6  C   UNL     1      -3.456  12.019  27.198  0.00  0.00     0.174 A 
HETATM    7  C   UNL     1      -2.938  12.564  25.985  0.00  0.00     0.007 C 
HETATM    8  C   UNL     1      -1.740  13.144  25.936  0.00  0.00    -0.001 C 
HETATM    9  C   UNL     1      -1.316  13.828  24.781  0.00  0.00     0.003 C 
HETATM   10  C   UNL     1      -0.170  14.490  24.833  0.00  0.00     0.050 C 
HETATM   11  C   UNL     1       0.227  15.040  23.596  0.00  0.00     0.150 C 
HETATM   12  O   UNL     1      -0.419  14.696  22.577  0.00  0.00    -0.293 OA
HETATM   13  C   UNL     1       1.628  15.661  23.643  0.00  0.00     0.107 C 
HETATM   14  C   UNL     1       1.630  15.386  22.246  0.00  0.00     0.079 A 
HETATM   15  C   UNL     1       0.936  16.740  21.348  0.00  0.00     0.062 C 
HETATM   16 CL   UNL     1      -0.660  17.308  21.907  0.00  0.00    -0.085 Cl
HETATM   17  C   UNL     1       1.101  17.155  20.058  0.00  0.00     0.084 C 
HETATM   18  C   UNL     1       2.126  16.410  19.680  0.00  0.00     0.055 C 
HETATM   19  C   UNL     1       2.386  14.954  20.715  0.00  0.00     0.126 A 
HETATM   20  C   UNL     1       1.935  13.769  22.251  0.00  0.00     0.053 A 
HETATM   21  C   UNL     1       1.080  12.482  23.851  0.00  0.00     0.290 C 
HETATM   22  O   UNL     1       2.214  12.647  24.272  0.00  0.00    -0.260 OA
HETATM   23  O   UNL     1       0.270  11.262  25.363  0.00  0.00    -0.313 OA
ENDROOT
BRANCH  17  24
HETATM   24  O   UNL     1       0.278  17.891  19.268  0.00  0.00    -0.359 OA
HETATM   25  H   UNL     1       0.040  18.700  19.785  0.00  0.00     0.217 HD
ENDBRANCH  17  24
BRANCH  19  26
HETATM   26  O   UNL     1       4.053  15.608  20.149  0.00  0.00    -0.379 OA
HETATM   27  H   UNL     1       5.005  15.047  20.089  0.00  0.00     0.211 HD
ENDBRANCH  19  26
TORSDOF 2
ENDMDL
MODEL 3
REMARK VINA RESULT:    -7.610      3.184      5.281
REMARK INTER + INTRA:          -7.833
REMARK INTER:                  -7.833
REMARK INTRA:                   0.000
REMARK UNBOUND:                 0.000
REMARK  2 active torsions:
REMARK  status: ('A' for Active; 'I' for Inactive)
REMARK    1  A    between atoms: C_17  and  O_18 
REMARK    2  A    between atoms: C_20  and  O_21 
ROOT
HETATM    1  C   UNL     1      -0.434   8.041  30.981  0.00  0.00     0.040 C 
HETATM    2  C   UNL     1      -0.811   9.261  29.260  0.00  0.00     0.130 C 
HETATM    3  C   UNL     1       0.362   7.638  29.099  0.00  0.00     0.067 C 
HETATM    4  C   UNL     1       1.533   8.109  28.458  0.00  0.00     0.157 A 
HETATM    5  O   UNL     1       2.422   7.411  27.601  0.00  0.00    -0.371 OA
HETATM    6  C   UNL     1       1.149   7.776  27.086  0.00  0.00     0.174 A 
HETATM    7  C   UNL     1       0.716   8.904  26.326  0.00  0.00     0.007 C 
HETATM    8  C   UNL     1      -0.567   9.090  26.021  0.00  0.00    -0.001 C 
HETATM    9  C   UNL     1      -0.957  10.106  25.129  0.00  0.00     0.003 C 
HETATM   10  C   UNL     1      -2.230  10.164  24.766  0.00  0.00     0.050 C 
HETATM   11  C   UNL     1      -2.544  11.284  23.968  0.00  0.00     0.150 C 
HETATM   12  O   UNL     1      -1.667  12.174  23.851  0.00  0.00    -0.293 OA
HETATM   13  C   UNL     1      -4.047  11.417  23.696  0.00  0.00     0.107 C 
HETATM   14  C   UNL     1      -3.740  12.799  23.536  0.00  0.00     0.079 A 
HETATM   15  C   UNL     1      -3.290  13.143  21.863  0.00  0.00     0.062 C 
HETATM   16 CL   UNL     1      -2.022  12.101  21.167  0.00  0.00    -0.085 Cl
HETATM   17  C   UNL     1      -3.341  14.292  21.127  0.00  0.00     0.084 C 
HETATM   18  C   UNL     1      -4.050  15.073  21.922  0.00  0.00     0.055 C 
HETATM   19  C   UNL     1      -4.084  14.523  23.641  0.00  0.00     0.126 A 
HETATM   20  C   UNL     1      -3.600  13.266  25.108  0.00  0.00     0.053 A 
HETATM   21  C   UNL     1      -2.715  11.879  26.606  0.00  0.00     0.290 C 
HETATM   22  O   UNL     1      -3.906  11.711  26.813  0.00  0.00    -0.260 OA
HETATM   23  O   UNL     1      -1.876  10.568  28.022  0.00  0.00    -0.313 OA
ENDROOT
BRANCH  17  24
HETATM   24  O   UNL     1      -2.622  14.657  20.034  0.00  0.00    -0.359 OA
HETATM   25  H   UNL     1      -1.790  15.072  20.369  0.00  0.00     0.217 HD
ENDBRANCH  17  24
BRANCH  19  26
HETATM   26  O   UNL     1      -5.745  15.287  23.211  0.00  0.00    -0.379 OA
HETATM   27  H   UNL     1      -6.606  15.438  23.890  0.00  0.00     0.211 HD
ENDBRANCH  19  26
TORSDOF 2
ENDMDL
MODEL 4
REMARK VINA RESULT:    -7.589      4.357      6.651
REMARK INTER + INTRA:          -7.811
REMARK INTER:                  -7.811
REMARK INTRA:                   0.000
REMARK UNBOUND:                 0.000
REMARK  2 active torsions:
REMARK  status: ('A' for Active; 'I' for Inactive)
REMARK    1  A    between atoms: C_17  and  O_18 
REMARK    2  A    between atoms: C_20  and  O_21 
ROOT
HETATM    1  C   UNL     1       5.382  15.291  20.794  0.00  0.00     0.040 C 
HETATM    2  C   UNL     1       3.668  14.703  21.937  0.00  0.00     0.130 C 
HETATM    3  C   UNL     1       3.441  15.879  20.323  0.00  0.00     0.067 C 
HETATM    4  C   UNL     1       2.653  16.963  20.782  0.00  0.00     0.157 A 
HETATM    5  O   UNL     1       1.730  17.762  20.061  0.00  0.00    -0.371 OA
HETATM    6  C   UNL     1       1.348  16.433  20.388  0.00  0.00     0.174 A 
HETATM    7  C   UNL     1       0.597  15.900  21.478  0.00  0.00     0.007 C 
HETATM    8  C   UNL     1       0.431  14.587  21.635  0.00  0.00    -0.001 C 
HETATM    9  C   UNL     1      -0.451  14.083  22.608  0.00  0.00     0.003 C 
HETATM   10  C   UNL     1      -0.671  12.777  22.636  0.00  0.00     0.050 C 
HETATM   11  C   UNL     1      -1.472  12.356  23.718  0.00  0.00     0.150 C 
HETATM   12  O   UNL     1      -1.722  13.199  24.613  0.00  0.00    -0.293 OA
HETATM   13  C   UNL     1      -1.579  10.830  23.821  0.00  0.00     0.107 C 
HETATM   14  C   UNL     1      -1.827  11.094  25.198  0.00  0.00     0.079 A 
HETATM   15  C   UNL     1      -3.552  11.347  25.479  0.00  0.00     0.062 C 
HETATM   16 CL   UNL     1      -4.344  12.548  24.425  0.00  0.00    -0.085 Cl
HETATM   17  C   UNL     1      -4.322  11.196  26.595  0.00  0.00     0.084 C 
HETATM   18  C   UNL     1      -3.484  10.566  27.400  0.00  0.00     0.055 C 
HETATM   19  C   UNL     1      -1.752  10.734  26.921  0.00  0.00     0.126 A 
HETATM   20  C   UNL     1      -0.300  11.400  25.731  0.00  0.00     0.053 A 
HETATM   21  C   UNL     1       1.142  12.470  24.419  0.00  0.00     0.290 C 
HETATM   22  O   UNL     1       1.488  11.313  24.244  0.00  0.00    -0.260 OA
HETATM   23  O   UNL     1       2.507  13.485  23.178  0.00  0.00    -0.313 OA
ENDROOT
BRANCH  17  24
HETATM   24  O   UNL     1      -5.503  11.781  26.925  0.00  0.00    -0.359 OA
HETATM   25  H   UNL     1      -5.641  11.615  27.889  0.00  0.00     0.217 HD
ENDBRANCH  17  24
BRANCH  19  26
HETATM   26  O   UNL     1      -2.022   9.022  27.645  0.00  0.00    -0.379 OA
HETATM   27  H   UNL     1      -1.950   8.728  28.709  0.00  0.00     0.211 HD
ENDBRANCH  19  26
TORSDOF 2
ENDMDL
MODEL 5
REMARK VINA RESULT:    -7.557      3.940      5.323
REMARK INTER + INTRA:          -7.777
REMARK INTER:                  -7.777
REMARK INTRA:                   0.000
REMARK UNBOUND:                 0.000
REMARK  2 active torsions:
REMARK  status: ('A' for Active; 'I' for Inactive)
REMARK    1  A    between atoms: C_17  and  O_18 
REMARK    2  A    between atoms: C_20  and  O_21 
ROOT
HETATM    1  C   UNL     1      -0.557   6.230  26.876  0.00  0.00     0.040 C 
HETATM    2  C   UNL     1      -0.754   8.134  25.915  0.00  0.00     0.130 C 
HETATM    3  C   UNL     1       1.072   7.400  26.316  0.00  0.00     0.067 C 
HETATM    4  C   UNL     1       1.740   8.456  26.984  0.00  0.00     0.157 A 
HETATM    5  O   UNL     1       3.125   8.762  27.006  0.00  0.00    -0.371 OA
HETATM    6  C   UNL     1       2.400   9.036  25.814  0.00  0.00     0.174 A 
HETATM    7  C   UNL     1       1.770  10.223  25.335  0.00  0.00     0.007 C 
HETATM    8  C   UNL     1       1.058  10.230  24.210  0.00  0.00    -0.001 C 
HETATM    9  C   UNL     1       0.590  11.438  23.660  0.00  0.00     0.003 C 
HETATM   10  C   UNL     1      -0.005  11.396  22.476  0.00  0.00     0.050 C 
HETATM   11  C   UNL     1      -0.543  12.633  22.065  0.00  0.00     0.150 C 
HETATM   12  O   UNL     1      -0.574  13.559  22.911  0.00  0.00    -0.293 OA
HETATM   13  C   UNL     1      -1.363  12.526  20.774  0.00  0.00     0.107 C 
HETATM   14  C   UNL     1      -2.026  13.680  21.279  0.00  0.00     0.079 A 
HETATM   15  C   UNL     1      -1.192  15.149  20.762  0.00  0.00     0.062 C 
HETATM   16 CL   UNL     1       0.562  15.202  21.083  0.00  0.00    -0.085 Cl
HETATM   17  C   UNL     1      -1.628  16.432  20.600  0.00  0.00     0.084 C 
HETATM   18  C   UNL     1      -2.936  16.271  20.704  0.00  0.00     0.055 C 
HETATM   19  C   UNL     1      -3.417  14.734  21.517  0.00  0.00     0.126 A 
HETATM   20  C   UNL     1      -3.012  12.999  22.407  0.00  0.00     0.053 A 
HETATM   21  C   UNL     1      -2.305  11.254  23.593  0.00  0.00     0.290 C 
HETATM   22  O   UNL     1      -2.976  10.695  22.740  0.00  0.00    -0.260 OA
HETATM   23  O   UNL     1      -1.636   9.605  24.717  0.00  0.00    -0.313 OA
ENDROOT
BRANCH  17  24
HETATM   24  O   UNL     1      -0.933  17.598  20.629  0.00  0.00    -0.359 OA
HETATM   25  H   UNL     1      -0.808  17.875  19.688  0.00  0.00     0.217 HD
ENDBRANCH  17  24
BRANCH  19  26
HETATM   26  O   UNL     1      -4.669  15.133  20.176  0.00  0.00    -0.379 OA
HETATM   27  H   UNL     1      -5.747  15.344  20.310  0.00  0.00     0.211 HD
ENDBRANCH  19  26
TORSDOF 2
ENDMDL
MODEL 6
REMARK VINA RESULT:    -7.485      5.158      5.650
REMARK INTER + INTRA:          -7.704
REMARK INTER:                  -7.704
REMARK INTRA:                   0.000
REMARK UNBOUND:                 0.000
REMARK  2 active torsions:
REMARK  status: ('A' for Active; 'I' for Inactive)
REMARK    1  A    between atoms: C_17  and  O_18 
REMARK    2  A    between atoms: C_20  and  O_21 
ROOT
HETATM    1  C   UNL     1       3.379  15.268  18.885  0.00  0.00     0.040 C 
HETATM    2  C   UNL     1       2.042  14.355  20.288  0.00  0.00     0.130 C 
HETATM    3  C   UNL     1       3.592  15.449  20.948  0.00  0.00     0.067 C 
HETATM    4  C   UNL     1       4.233  14.618  21.900  0.00  0.00     0.157 A 
HETATM    5  O   UNL     1       4.973  14.988  23.051  0.00  0.00    -0.371 OA
HETATM    6  C   UNL     1       3.560  15.135  23.091  0.00  0.00     0.174 A 
HETATM    7  C   UNL     1       2.527  14.280  23.579  0.00  0.00     0.007 C 
HETATM    8  C   UNL     1       1.239  14.587  23.432  0.00  0.00    -0.001 C 
HETATM    9  C   UNL     1       0.239  13.827  24.066  0.00  0.00     0.003 C 
HETATM   10  C   UNL     1      -1.013  14.251  23.987  0.00  0.00     0.050 C 
HETATM   11  C   UNL     1      -1.953  13.363  24.549  0.00  0.00     0.150 C 
HETATM   12  O   UNL     1      -1.545  12.223  24.878  0.00  0.00    -0.293 OA
HETATM   13  C   UNL     1      -3.403  13.796  24.303  0.00  0.00     0.107 C 
HETATM   14  C   UNL     1      -3.682  12.407  24.448  0.00  0.00     0.079 A 
HETATM   15  C   UNL     1      -3.969  12.007  26.144  0.00  0.00     0.062 C 
HETATM   16 CL   UNL     1      -2.720  12.553  27.295  0.00  0.00    -0.085 Cl
HETATM   17  C   UNL     1      -4.668  10.993  26.732  0.00  0.00     0.084 C 
HETATM   18  C   UNL     1      -5.302  10.483  25.691  0.00  0.00     0.055 C 
HETATM   19  C   UNL     1      -4.564  10.922  24.104  0.00  0.00     0.126 A 
HETATM   20  C   UNL     1      -3.204  11.844  22.977  0.00  0.00     0.053 A 
HETATM   21  C   UNL     1      -1.438  12.740  21.963  0.00  0.00     0.290 C 
HETATM   22  O   UNL     1      -2.349  13.317  21.391  0.00  0.00    -0.260 OA
HETATM   23  O   UNL     1       0.234  13.586  21.004  0.00  0.00    -0.313 OA
ENDROOT
BRANCH  17  24
HETATM   24  O   UNL     1      -4.536  10.447  27.968  0.00  0.00    -0.359 OA
HETATM   25  H   UNL     1      -4.783  11.152  28.616  0.00  0.00     0.217 HD
ENDBRANCH  17  24
BRANCH  19  26
HETATM   26  O   UNL     1      -6.429  10.834  23.905  0.00  0.00    -0.379 OA
HETATM   27  H   UNL     1      -7.012  10.030  23.418  0.00  0.00     0.211 HD
ENDBRANCH  19  26
TORSDOF 2
ENDMDL
MODEL 7
REMARK VINA RESULT:    -7.292      4.044      5.498
REMARK INTER + INTRA:          -7.506
REMARK INTER:                  -7.506
REMARK INTRA:                   0.000
REMARK UNBOUND:                 0.000
REMARK  2 active torsions:
REMARK  status: ('A' for Active; 'I' for Inactive)
REMARK    1  A    between atoms: C_17  and  O_18 
REMARK    2  A    between atoms: C_20  and  O_21 
ROOT
HETATM    1  C   UNL     1       3.482   8.534  27.014  0.00  0.00     0.040 C 
HETATM    2  C   UNL     1       2.335   9.761  25.685  0.00  0.00     0.130 C 
HETATM    3  C   UNL     1       1.450   8.247  26.666  0.00  0.00     0.067 C 
HETATM    4  C   UNL     1       0.765   7.524  25.659  0.00  0.00     0.157 A 
HETATM    5  O   UNL     1      -0.424   6.759  25.764  0.00  0.00    -0.371 OA
HETATM    6  C   UNL     1      -0.536   8.174  25.805  0.00  0.00     0.174 A 
HETATM    7  C   UNL     1      -0.809   9.138  24.789  0.00  0.00     0.007 C 
HETATM    8  C   UNL     1      -0.780  10.446  25.041  0.00  0.00    -0.001 C 
HETATM    9  C   UNL     1      -1.218  11.376  24.080  0.00  0.00     0.003 C 
HETATM   10  C   UNL     1      -1.284  12.652  24.430  0.00  0.00     0.050 C 
HETATM   11  C   UNL     1      -1.617  13.518  23.368  0.00  0.00     0.150 C 
HETATM   12  O   UNL     1      -1.626  13.035  22.210  0.00  0.00    -0.293 OA
HETATM   13  C   UNL     1      -1.530  14.998  23.758  0.00  0.00     0.107 C 
HETATM   14  C   UNL     1      -1.313  15.194  22.364  0.00  0.00     0.079 A 
HETATM   15  C   UNL     1      -2.852  15.390  21.519  0.00  0.00     0.062 C 
HETATM   16 CL   UNL     1      -4.074  14.127  21.826  0.00  0.00    -0.085 Cl
HETATM   17  C   UNL     1      -3.171  16.008  20.345  0.00  0.00     0.084 C 
HETATM   18  C   UNL     1      -2.049  16.655  20.084  0.00  0.00     0.055 C 
HETATM   19  C   UNL     1      -0.614  16.007  20.966  0.00  0.00     0.126 A 
HETATM   20  C   UNL     1       0.265  14.747  22.233  0.00  0.00     0.053 A 
HETATM   21  C   UNL     1       1.054  13.076  23.472  0.00  0.00     0.290 C 
HETATM   22  O   UNL     1       1.431  14.039  24.120  0.00  0.00    -0.260 OA
HETATM   23  O   UNL     1       1.799  11.493  24.643  0.00  0.00    -0.313 OA
ENDROOT
BRANCH  17  24
HETATM   24  O   UNL     1      -4.218  15.795  19.506  0.00  0.00    -0.359 OA
HETATM   25  H   UNL     1      -4.014  16.283  18.671  0.00  0.00     0.217 HD
ENDBRANCH  17  24
BRANCH  19  26
HETATM   26  O   UNL     1      -0.447  17.871  20.815  0.00  0.00    -0.379 OA
HETATM   27  H   UNL     1      -0.901  18.638  21.470  0.00  0.00     0.211 HD
ENDBRANCH  19  26
TORSDOF 2
ENDMDL
MODEL 8
REMARK VINA RESULT:    -7.286      2.651      4.258
REMARK INTER + INTRA:          -7.499
REMARK INTER:                  -7.499
REMARK INTRA:                   0.000
REMARK UNBOUND:                 0.000
REMARK  2 active torsions:
REMARK  status: ('A' for Active; 'I' for Inactive)
REMARK    1  A    between atoms: C_17  and  O_18 
REMARK    2  A    between atoms: C_20  and  O_21 
ROOT
HETATM    1  C   UNL     1       2.186   6.866  29.454  0.00  0.00     0.040 C 
HETATM    2  C   UNL     1       1.418   8.267  28.028  0.00  0.00     0.130 C 
HETATM    3  C   UNL     1       2.670   6.814  27.430  0.00  0.00     0.067 C 
HETATM    4  C   UNL     1       3.670   7.490  26.689  0.00  0.00     0.157 A 
HETATM    5  O   UNL     1       4.448   7.015  25.603  0.00  0.00    -0.371 OA
HETATM    6  C   UNL     1       3.079   7.313  25.363  0.00  0.00     0.174 A 
HETATM    7  C   UNL     1       2.433   8.484  24.866  0.00  0.00     0.007 C 
HETATM    8  C   UNL     1       1.106   8.576  24.804  0.00  0.00    -0.001 C 
HETATM    9  C   UNL     1       0.487   9.660  24.155  0.00  0.00     0.003 C 
HETATM   10  C   UNL     1      -0.831   9.636  24.015  0.00  0.00     0.050 C 
HETATM   11  C   UNL     1      -1.367  10.817  23.462  0.00  0.00     0.150 C 
HETATM   12  O   UNL     1      -0.598  11.801  23.344  0.00  0.00    -0.293 OA
HETATM   13  C   UNL     1      -2.900  10.830  23.459  0.00  0.00     0.107 C 
HETATM   14  C   UNL     1      -2.736  12.244  23.468  0.00  0.00     0.079 A 
HETATM   15  C   UNL     1      -2.615  12.864  21.818  0.00  0.00     0.062 C 
HETATM   16 CL   UNL     1      -1.409  12.066  20.775  0.00  0.00    -0.085 Cl
HETATM   17  C   UNL     1      -2.884  14.092  21.288  0.00  0.00     0.084 C 
HETATM   18  C   UNL     1      -3.504  14.677  22.298  0.00  0.00     0.055 C 
HETATM   19  C   UNL     1      -3.193  13.891  23.893  0.00  0.00     0.126 A 
HETATM   20  C   UNL     1      -2.362  12.499  25.050  0.00  0.00     0.053 A 
HETATM   21  C   UNL     1      -1.122  11.017  26.153  0.00  0.00     0.290 C 
HETATM   22  O   UNL     1      -2.241  10.698  26.520  0.00  0.00    -0.260 OA
HETATM   23  O   UNL     1       0.053   9.616  27.195  0.00  0.00    -0.313 OA
ENDROOT
BRANCH  17  24
HETATM   24  O   UNL     1      -2.399  14.679  20.163  0.00  0.00    -0.359 OA
HETATM   25  H   UNL     1      -1.576  14.188  19.921  0.00  0.00     0.217 HD
ENDBRANCH  17  24
BRANCH  19  26
HETATM   26  O   UNL     1      -4.958  14.530  23.861  0.00  0.00    -0.379 OA
HETATM   27  H   UNL     1      -5.881  13.954  24.066  0.00  0.00     0.211 HD
ENDBRANCH  19  26
TORSDOF 2
ENDMDL
MODEL 9
REMARK VINA RESULT:    -7.206      2.762      3.637
REMARK INTER + INTRA:          -7.417
REMARK INTER:                  -7.417
REMARK INTRA:                   0.000
REMARK UNBOUND:                 0.000
REMARK  2 active torsions:
REMARK  status: ('A' for Active; 'I' for Inactive)
REMARK    1  A    between atoms: C_17  and  O_18 
REMARK    2  A    between atoms: C_20  and  O_21 
ROOT
HETATM    1  C   UNL     1       4.417   6.701  26.570  0.00  0.00     0.040 C 
HETATM    2  C   UNL     1       2.871   7.877  25.666  0.00  0.00     0.130 C 
HETATM    3  C   UNL     1       2.389   6.291  26.801  0.00  0.00     0.067 C 
HETATM    4  C   UNL     1       1.488   5.544  26.003  0.00  0.00     0.157 A 
HETATM    5  O   UNL     1       0.422   4.702  26.412  0.00  0.00    -0.371 OA
HETATM    6  C   UNL     1       0.247   6.107  26.535  0.00  0.00     0.174 A 
HETATM    7  C   UNL     1      -0.357   7.070  25.673  0.00  0.00     0.007 C 
HETATM    8  C   UNL     1      -0.332   8.372  25.953  0.00  0.00    -0.001 C 
HETATM    9  C   UNL     1      -1.077   9.290  25.190  0.00  0.00     0.003 C 
HETATM   10  C   UNL     1      -1.112  10.552  25.590  0.00  0.00     0.050 C 
HETATM   11  C   UNL     1      -1.782  11.414  24.698  0.00  0.00     0.150 C 
HETATM   12  O   UNL     1      -2.092  10.954  23.573  0.00  0.00    -0.293 OA
HETATM   13  C   UNL     1      -1.671  12.890  25.100  0.00  0.00     0.107 C 
HETATM   14  C   UNL     1      -1.871  13.126  23.710  0.00  0.00     0.079 A 
HETATM   15  C   UNL     1      -3.595  13.238  23.343  0.00  0.00     0.062 C 
HETATM   16 CL   UNL     1      -4.606  11.894  23.936  0.00  0.00    -0.085 Cl
HETATM   17  C   UNL     1      -4.269  13.856  22.330  0.00  0.00     0.084 C 
HETATM   18  C   UNL     1      -3.306  14.579  21.786  0.00  0.00     0.055 C 
HETATM   19  C   UNL     1      -1.645  14.008  22.202  0.00  0.00     0.126 A 
HETATM   20  C   UNL     1      -0.372  12.783  23.122  0.00  0.00     0.053 A 
HETATM   21  C   UNL     1       0.829  11.143  24.026  0.00  0.00     0.290 C 
HETATM   22  O   UNL     1       1.320  12.117  24.575  0.00  0.00    -0.260 OA
HETATM   23  O   UNL     1       1.964   9.590  24.880  0.00  0.00    -0.313 OA
ENDROOT
BRANCH  17  24
HETATM   24  O   UNL     1      -5.498  13.592  21.814  0.00  0.00    -0.359 OA
HETATM   25  H   UNL     1      -5.351  13.065  20.991  0.00  0.00     0.217 HD
ENDBRANCH  17  24
BRANCH  19  26
HETATM   26  O   UNL     1      -1.633  15.881  22.077  0.00  0.00    -0.379 OA
HETATM   27  H   UNL     1      -0.751  16.548  22.119  0.00  0.00     0.211 HD
ENDBRANCH  19  26
TORSDOF 2
ENDMDL
