MODEL 1
REMARK VINA RESULT:    -8.894      0.000      0.000
REMARK INTER + INTRA:         -11.913
REMARK INTER:                 -10.574
REMARK INTRA:                  -1.339
REMARK UNBOUND:                -0.939
REMARK  5 active torsions:
REMARK  status: ('A' for Active; 'I' for Inactive)
REMARK    1  A    between atoms: C_3  and  O_4 
REMARK    2  A    between atoms: C_6  and  O_7 
REMARK    3  A    between atoms: C_8  and  C_9 
REMARK    4  A    between atoms: C_15  and  C_16 
REMARK    5  A    between atoms: C_19  and  O_22 
ROOT
HETATM    1  C   UNL     1      -0.438   9.948  26.207  0.00  0.00     0.099 A 
HETATM    2  N   UNL     1      -1.143  10.394  27.263  0.00  0.00    -0.173 NA
HETATM    3  N   UNL     1      -1.064   9.432  28.179  0.00  0.00    -0.281 N 
HETATM    4  H   UNL     1      -1.592   9.551  29.040  0.00  0.00     0.189 HD
HETATM    5  C   UNL     1      -0.247   8.408  27.828  0.00  0.00     0.033 A 
HETATM    6  C   UNL     1       0.056   7.275  28.737  0.00  0.00     0.070 C 
HETATM    7  C   UNL     1       0.166   8.674  26.528  0.00  0.00     0.008 A 
ENDROOT
BRANCH   1   8
HETATM    8  C   UNL     1      -0.338  10.790  24.993  0.00  0.00     0.028 A 
HETATM    9  C   UNL     1       0.893  11.373  24.649  0.00  0.00     0.019 A 
HETATM   10  C   UNL     1       1.026  12.226  23.546  0.00  0.00     0.037 A 
HETATM   11  C   UNL     1      -0.090  12.537  22.786  0.00  0.00     0.068 A 
HETATM   12  C   UNL     1      -1.328  11.992  23.097  0.00  0.00     0.074 A 
HETATM   13  C   UNL     1      -1.449  11.117  24.185  0.00  0.00     0.081 A 
BRANCH  11  14
HETATM   14  O   UNL     1      -0.012  13.382  21.720  0.00  0.00    -0.361 OA
HETATM   15  H   UNL     1       0.904  13.391  21.397  0.00  0.00     0.217 HD
ENDBRANCH  11  14
BRANCH  13  16
HETATM   16  O   UNL     1      -2.685  10.570  24.419  0.00  0.00    -0.360 OA
HETATM   17  H   UNL     1      -2.571   9.722  24.878  0.00  0.00     0.217 HD
ENDBRANCH  13  16
ENDBRANCH   1   8
BRANCH   7  18
HETATM   18  C   UNL     1       1.037   7.724  25.749  0.00  0.00     0.068 C 
HETATM   19  C   UNL     1       0.419   7.211  24.471  0.00  0.00    -0.015 C 
HETATM   20  C   UNL     1       1.165   6.888  23.398  0.00  0.00     0.006 C 
HETATM   21  C   UNL     1       2.661   7.077  23.354  0.00  0.00     0.166 C 
HETATM   22  C   UNL     1       3.206   7.883  24.509  0.00  0.00     0.006 C 
HETATM   23  C   UNL     1       2.468   8.200  25.588  0.00  0.00    -0.015 C 
BRANCH  21  24
HETATM   24  O   UNL     1       3.359   5.834  23.249  0.00  0.00    -0.383 OA
HETATM   25  C   UNL     1       4.757   5.887  23.509  0.00  0.00     0.202 C 
ENDBRANCH  21  24
ENDBRANCH   7  18
TORSDOF 5
ENDMDL
MODEL 2
REMARK VINA RESULT:    -8.354      0.946      1.496
REMARK INTER + INTRA:         -11.246
REMARK INTER:                 -10.344
REMARK INTRA:                  -0.902
REMARK UNBOUND:                -0.939
REMARK  5 active torsions:
REMARK  status: ('A' for Active; 'I' for Inactive)
REMARK    1  A    between atoms: C_3  and  O_4 
REMARK    2  A    between atoms: C_6  and  O_7 
REMARK    3  A    between atoms: C_8  and  C_9 
REMARK    4  A    between atoms: C_15  and  C_16 
REMARK    5  A    between atoms: C_19  and  O_22 
ROOT
HETATM    1  C   UNL     1      -0.593  10.122  26.015  0.00  0.00     0.099 A 
HETATM    2  N   UNL     1      -1.182  10.581  27.135  0.00  0.00    -0.173 NA
HETATM    3  N   UNL     1      -1.025   9.622  28.042  0.00  0.00    -0.281 N 
HETATM    4  H   UNL     1      -1.462   9.751  28.952  0.00  0.00     0.189 HD
HETATM    5  C   UNL     1      -0.262   8.584  27.616  0.00  0.00     0.033 A 
HETATM    6  C   UNL     1       0.115   7.450  28.495  0.00  0.00     0.070 C 
HETATM    7  C   UNL     1       0.021   8.840  26.280  0.00  0.00     0.008 A 
ENDROOT
BRANCH   1   8
HETATM    8  C   UNL     1      -0.604  10.958  24.793  0.00  0.00     0.028 A 
HETATM    9  C   UNL     1       0.571  11.611  24.385  0.00  0.00     0.019 A 
HETATM   10  C   UNL     1       0.598  12.461  23.273  0.00  0.00     0.037 A 
HETATM   11  C   UNL     1      -0.570  12.698  22.567  0.00  0.00     0.068 A 
HETATM   12  C   UNL     1      -1.757  12.083  22.942  0.00  0.00     0.074 A 
HETATM   13  C   UNL     1      -1.770  11.211  24.039  0.00  0.00     0.081 A 
BRANCH  11  14
HETATM   14  O   UNL     1      -0.596  13.538  21.494  0.00  0.00    -0.361 OA
HETATM   15  H   UNL     1       0.012  13.196  20.818  0.00  0.00     0.217 HD
ENDBRANCH  11  14
BRANCH  13  16
HETATM   16  O   UNL     1      -2.959  10.593  24.338  0.00  0.00    -0.360 OA
HETATM   17  H   UNL     1      -3.277  10.923  25.193  0.00  0.00     0.217 HD
ENDBRANCH  13  16
ENDBRANCH   1   8
BRANCH   7  18
HETATM   18  C   UNL     1       0.796   7.875  25.421  0.00  0.00     0.068 C 
HETATM   19  C   UNL     1       2.269   7.792  25.743  0.00  0.00    -0.015 C 
HETATM   20  C   UNL     1       2.974   6.660  25.565  0.00  0.00     0.006 C 
HETATM   21  C   UNL     1       2.348   5.368  25.101  0.00  0.00     0.166 C 
HETATM   22  C   UNL     1       0.837   5.393  25.097  0.00  0.00     0.006 C 
HETATM   23  C   UNL     1       0.127   6.523  25.265  0.00  0.00    -0.015 C 
BRANCH  21  24
HETATM   24  O   UNL     1       2.836   4.962  23.820  0.00  0.00    -0.383 OA
HETATM   25  C   UNL     1       2.579   5.861  22.748  0.00  0.00     0.202 C 
ENDBRANCH  21  24
ENDBRANCH   7  18
TORSDOF 5
ENDMDL
MODEL 3
REMARK VINA RESULT:    -8.172      1.349      2.044
REMARK INTER + INTRA:         -11.021
REMARK INTER:                 -10.259
REMARK INTRA:                  -0.762
REMARK UNBOUND:                -0.939
REMARK  5 active torsions:
REMARK  status: ('A' for Active; 'I' for Inactive)
REMARK    1  A    between atoms: C_3  and  O_4 
REMARK    2  A    between atoms: C_6  and  O_7 
REMARK    3  A    between atoms: C_8  and  C_9 
REMARK    4  A    between atoms: C_15  and  C_16 
REMARK    5  A    between atoms: C_19  and  O_22 
ROOT
HETATM    1  C   UNL     1      -0.707  10.315  25.949  0.00  0.00     0.099 A 
HETATM    2  N   UNL     1      -1.252  10.769  27.093  0.00  0.00    -0.173 NA
HETATM    3  N   UNL     1      -1.027   9.822  28.000  0.00  0.00    -0.281 N 
HETATM    4  H   UNL     1      -1.423   9.948  28.928  0.00  0.00     0.189 HD
HETATM    5  C   UNL     1      -0.260   8.800  27.544  0.00  0.00     0.033 A 
HETATM    6  C   UNL     1       0.186   7.683  28.412  0.00  0.00     0.070 C 
HETATM    7  C   UNL     1      -0.049   9.051  26.194  0.00  0.00     0.008 A 
ENDROOT
BRANCH   1   8
HETATM    8  C   UNL     1      -0.797  11.140  24.724  0.00  0.00     0.028 A 
HETATM    9  C   UNL     1      -2.040  11.315  24.091  0.00  0.00     0.019 A 
HETATM   10  C   UNL     1      -2.167  12.035  22.897  0.00  0.00     0.037 A 
HETATM   11  C   UNL     1      -1.037  12.565  22.296  0.00  0.00     0.068 A 
HETATM   12  C   UNL     1       0.211  12.406  22.880  0.00  0.00     0.074 A 
HETATM   13  C   UNL     1       0.329  11.709  24.090  0.00  0.00     0.081 A 
BRANCH  11  14
HETATM   14  O   UNL     1      -1.112  13.250  21.120  0.00  0.00    -0.361 OA
HETATM   15  H   UNL     1      -1.015  14.198  21.306  0.00  0.00     0.217 HD
ENDBRANCH  11  14
BRANCH  13  16
HETATM   16  O   UNL     1       1.579  11.623  24.648  0.00  0.00    -0.360 OA
HETATM   17  H   UNL     1       2.083  10.935  24.184  0.00  0.00     0.217 HD
ENDBRANCH  13  16
ENDBRANCH   1   8
BRANCH   7  18
HETATM   18  C   UNL     1       0.707   8.097  25.306  0.00  0.00     0.068 C 
HETATM   19  C   UNL     1       2.207   8.137  25.476  0.00  0.00    -0.015 C 
HETATM   20  C   UNL     1       2.975   7.050  25.279  0.00  0.00     0.006 C 
HETATM   21  C   UNL     1       2.406   5.693  24.944  0.00  0.00     0.166 C 
HETATM   22  C   UNL     1       0.905   5.611  25.097  0.00  0.00     0.006 C 
HETATM   23  C   UNL     1       0.132   6.695  25.284  0.00  0.00    -0.015 C 
BRANCH  21  24
HETATM   24  O   UNL     1       2.793   5.253  23.641  0.00  0.00    -0.383 OA
HETATM   25  C   UNL     1       2.515   6.157  22.577  0.00  0.00     0.202 C 
ENDBRANCH  21  24
ENDBRANCH   7  18
TORSDOF 5
ENDMDL
MODEL 4
REMARK VINA RESULT:    -7.499      1.632      5.779
REMARK INTER + INTRA:         -10.191
REMARK INTER:                  -9.583
REMARK INTRA:                  -0.608
REMARK UNBOUND:                -0.939
REMARK  5 active torsions:
REMARK  status: ('A' for Active; 'I' for Inactive)
REMARK    1  A    between atoms: C_3  and  O_4 
REMARK    2  A    between atoms: C_6  and  O_7 
REMARK    3  A    between atoms: C_8  and  C_9 
REMARK    4  A    between atoms: C_15  and  C_16 
REMARK    5  A    between atoms: C_19  and  O_22 
ROOT
HETATM    1  C   UNL     1       0.964   7.674  25.968  0.00  0.00     0.099 A 
HETATM    2  N   UNL     1       0.720   7.225  27.213  0.00  0.00    -0.173 NA
HETATM    3  N   UNL     1       0.036   8.193  27.816  0.00  0.00    -0.281 N 
HETATM    4  H   UNL     1      -0.192   8.073  28.800  0.00  0.00     0.189 HD
HETATM    5  C   UNL     1      -0.286   9.228  26.999  0.00  0.00     0.033 A 
HETATM    6  C   UNL     1      -1.121  10.371  27.442  0.00  0.00     0.070 C 
HETATM    7  C   UNL     1       0.327   8.959  25.781  0.00  0.00     0.008 A 
ENDROOT
BRANCH   1   8
HETATM    8  C   UNL     1       1.731   6.826  25.027  0.00  0.00     0.028 A 
HETATM    9  C   UNL     1       1.395   6.820  23.663  0.00  0.00     0.019 A 
HETATM   10  C   UNL     1       2.049   5.990  22.744  0.00  0.00     0.037 A 
HETATM   11  C   UNL     1       3.034   5.122  23.188  0.00  0.00     0.068 A 
HETATM   12  C   UNL     1       3.389   5.088  24.529  0.00  0.00     0.074 A 
HETATM   13  C   UNL     1       2.751   5.941  25.439  0.00  0.00     0.081 A 
BRANCH  11  14
HETATM   14  O   UNL     1       3.677   4.279  22.333  0.00  0.00    -0.361 OA
HETATM   15  H   UNL     1       3.276   3.398  22.405  0.00  0.00     0.217 HD
ENDBRANCH  11  14
BRANCH  13  16
HETATM   16  O   UNL     1       3.173   5.900  26.744  0.00  0.00    -0.360 OA
HETATM   17  H   UNL     1       2.439   5.595  27.302  0.00  0.00     0.217 HD
ENDBRANCH  13  16
ENDBRANCH   1   8
BRANCH   7  18
HETATM   18  C   UNL     1       0.266   9.917  24.620  0.00  0.00     0.068 C 
HETATM   19  C   UNL     1      -1.092  10.534  24.388  0.00  0.00    -0.015 C 
HETATM   20  C   UNL     1      -1.234  11.768  23.869  0.00  0.00     0.006 C 
HETATM   21  C   UNL     1      -0.061  12.660  23.544  0.00  0.00     0.166 C 
HETATM   22  C   UNL     1       1.256  12.152  24.081  0.00  0.00     0.006 C 
HETATM   23  C   UNL     1       1.406  10.916  24.591  0.00  0.00    -0.015 C 
BRANCH  21  24
HETATM   24  O   UNL     1       0.046  12.921  22.143  0.00  0.00    -0.383 OA
HETATM   25  C   UNL     1      -1.186  12.987  21.432  0.00  0.00     0.202 C 
ENDBRANCH  21  24
ENDBRANCH   7  18
TORSDOF 5
ENDMDL
MODEL 5
REMARK VINA RESULT:    -7.311      1.609      5.651
REMARK INTER + INTRA:          -9.959
REMARK INTER:                  -9.202
REMARK INTRA:                  -0.758
REMARK UNBOUND:                -0.939
REMARK  5 active torsions:
REMARK  status: ('A' for Active; 'I' for Inactive)
REMARK    1  A    between atoms: C_3  and  O_4 
REMARK    2  A    between atoms: C_6  and  O_7 
REMARK    3  A    between atoms: C_8  and  C_9 
REMARK    4  A    between atoms: C_15  and  C_16 
REMARK    5  A    between atoms: C_19  and  O_22 
ROOT
HETATM    1  C   UNL     1       1.250   7.675  25.765  0.00  0.00     0.099 A 
HETATM    2  N   UNL     1       1.178   7.174  27.012  0.00  0.00    -0.173 NA
HETATM    3  N   UNL     1       0.476   8.059  27.715  0.00  0.00    -0.281 N 
HETATM    4  H   UNL     1       0.363   7.892  28.712  0.00  0.00     0.189 HD
HETATM    5  C   UNL     1      -0.020   9.079  26.971  0.00  0.00     0.033 A 
HETATM    6  C   UNL     1      -0.905  10.128  27.535  0.00  0.00     0.070 C 
HETATM    7  C   UNL     1       0.485   8.900  25.689  0.00  0.00     0.008 A 
ENDROOT
BRANCH   1   8
HETATM    8  C   UNL     1       1.988   6.926  24.723  0.00  0.00     0.028 A 
HETATM    9  C   UNL     1       2.844   7.612  23.845  0.00  0.00     0.019 A 
HETATM   10  C   UNL     1       3.516   6.960  22.805  0.00  0.00     0.037 A 
HETATM   11  C   UNL     1       3.312   5.603  22.606  0.00  0.00     0.068 A 
HETATM   12  C   UNL     1       2.467   4.888  23.442  0.00  0.00     0.074 A 
HETATM   13  C   UNL     1       1.819   5.542  24.500  0.00  0.00     0.081 A 
BRANCH  11  14
HETATM   14  O   UNL     1       3.926   4.933  21.590  0.00  0.00    -0.361 OA
HETATM   15  H   UNL     1       3.337   4.222  21.287  0.00  0.00     0.217 HD
ENDBRANCH  11  14
BRANCH  13  16
HETATM   16  O   UNL     1       1.032   4.779  25.324  0.00  0.00    -0.360 OA
HETATM   17  H   UNL     1       1.287   4.947  26.246  0.00  0.00     0.217 HD
ENDBRANCH  13  16
ENDBRANCH   1   8
BRANCH   7  18
HETATM   18  C   UNL     1       0.218   9.876  24.574  0.00  0.00     0.068 C 
HETATM   19  C   UNL     1      -1.219  10.328  24.467  0.00  0.00    -0.015 C 
HETATM   20  C   UNL     1      -1.549  11.550  24.008  0.00  0.00     0.006 C 
HETATM   21  C   UNL     1      -0.521  12.590  23.633  0.00  0.00     0.166 C 
HETATM   22  C   UNL     1       0.885  12.231  24.051  0.00  0.00     0.006 C 
HETATM   23  C   UNL     1       1.223  11.009  24.500  0.00  0.00    -0.015 C 
BRANCH  21  24
HETATM   24  O   UNL     1      -0.557  12.903  22.239  0.00  0.00    -0.383 OA
HETATM   25  C   UNL     1      -1.843  12.868  21.631  0.00  0.00     0.202 C 
ENDBRANCH  21  24
ENDBRANCH   7  18
TORSDOF 5
ENDMDL
MODEL 6
REMARK VINA RESULT:    -7.071      1.695      2.559
REMARK INTER + INTRA:          -9.664
REMARK INTER:                  -9.215
REMARK INTRA:                  -0.449
REMARK UNBOUND:                -0.939
REMARK  5 active torsions:
REMARK  status: ('A' for Active; 'I' for Inactive)
REMARK    1  A    between atoms: C_3  and  O_4 
REMARK    2  A    between atoms: C_6  and  O_7 
REMARK    3  A    between atoms: C_8  and  C_9 
REMARK    4  A    between atoms: C_15  and  C_16 
REMARK    5  A    between atoms: C_19  and  O_22 
ROOT
HETATM    1  C   UNL     1       0.641   9.325  25.841  0.00  0.00     0.099 A 
HETATM    2  N   UNL     1       0.340   9.284  27.152  0.00  0.00    -0.173 NA
HETATM    3  N   UNL     1       0.994   8.233  27.638  0.00  0.00    -0.281 N 
HETATM    4  H   UNL     1       0.845   7.990  28.615  0.00  0.00     0.189 HD
HETATM    5  C   UNL     1       1.808   7.629  26.736  0.00  0.00     0.033 A 
HETATM    6  C   UNL     1       2.696   6.495  27.089  0.00  0.00     0.070 C 
HETATM    7  C   UNL     1       1.591   8.281  25.528  0.00  0.00     0.008 A 
ENDROOT
BRANCH   1   8
HETATM    8  C   UNL     1       0.053  10.387  24.994  0.00  0.00     0.028 A 
HETATM    9  C   UNL     1      -1.328  10.391  24.738  0.00  0.00     0.019 A 
HETATM   10  C   UNL     1      -1.923  11.336  23.894  0.00  0.00     0.037 A 
HETATM   11  C   UNL     1      -1.130  12.281  23.262  0.00  0.00     0.068 A 
HETATM   12  C   UNL     1       0.241  12.307  23.477  0.00  0.00     0.074 A 
HETATM   13  C   UNL     1       0.826  11.375  24.345  0.00  0.00     0.081 A 
BRANCH  11  14
HETATM   14  O   UNL     1      -1.663  13.203  22.412  0.00  0.00    -0.361 OA
HETATM   15  H   UNL     1      -2.606  13.007  22.293  0.00  0.00     0.217 HD
ENDBRANCH  11  14
BRANCH  13  16
HETATM   16  O   UNL     1       2.178  11.476  24.559  0.00  0.00    -0.360 OA
HETATM   17  H   UNL     1       2.611  11.706  23.721  0.00  0.00     0.217 HD
ENDBRANCH  13  16
ENDBRANCH   1   8
BRANCH   7  18
HETATM   18  C   UNL     1       2.264   7.854  24.250  0.00  0.00     0.068 C 
HETATM   19  C   UNL     1       3.715   7.465  24.405  0.00  0.00    -0.015 C 
HETATM   20  C   UNL     1       4.292   6.540  23.616  0.00  0.00     0.006 C 
HETATM   21  C   UNL     1       3.531   5.768  22.566  0.00  0.00     0.166 C 
HETATM   22  C   UNL     1       2.033   5.942  22.651  0.00  0.00     0.006 C 
HETATM   23  C   UNL     1       1.451   6.871  23.430  0.00  0.00    -0.015 C 
BRANCH  21  24
HETATM   24  O   UNL     1       3.987   6.063  21.244  0.00  0.00    -0.383 OA
HETATM   25  C   UNL     1       3.712   5.071  20.261  0.00  0.00     0.202 C 
ENDBRANCH  21  24
ENDBRANCH   7  18
TORSDOF 5
ENDMDL
MODEL 7
REMARK VINA RESULT:    -6.995      1.690      5.376
REMARK INTER + INTRA:          -9.570
REMARK INTER:                  -8.680
REMARK INTRA:                  -0.890
REMARK UNBOUND:                -0.939
REMARK  5 active torsions:
REMARK  status: ('A' for Active; 'I' for Inactive)
REMARK    1  A    between atoms: C_3  and  O_4 
REMARK    2  A    between atoms: C_6  and  O_7 
REMARK    3  A    between atoms: C_8  and  C_9 
REMARK    4  A    between atoms: C_15  and  C_16 
REMARK    5  A    between atoms: C_19  and  O_22 
ROOT
HETATM    1  C   UNL     1       0.955   7.476  25.712  0.00  0.00     0.099 A 
HETATM    2  N   UNL     1       0.676   6.463  26.553  0.00  0.00    -0.173 NA
HETATM    3  N   UNL     1      -0.057   6.996  27.527  0.00  0.00    -0.281 N 
HETATM    4  H   UNL     1      -0.319   6.398  28.307  0.00  0.00     0.189 HD
HETATM    5  C   UNL     1      -0.375   8.299  27.322  0.00  0.00     0.033 A 
HETATM    6  C   UNL     1      -1.258   9.063  28.237  0.00  0.00     0.070 C 
HETATM    7  C   UNL     1       0.291   8.679  26.163  0.00  0.00     0.008 A 
ENDROOT
BRANCH   1   8
HETATM    8  C   UNL     1       1.779   7.217  24.510  0.00  0.00     0.028 A 
HETATM    9  C   UNL     1       1.205   6.585  23.394  0.00  0.00     0.019 A 
HETATM   10  C   UNL     1       1.957   6.263  22.258  0.00  0.00     0.037 A 
HETATM   11  C   UNL     1       3.315   6.540  22.237  0.00  0.00     0.068 A 
HETATM   12  C   UNL     1       3.925   7.153  23.321  0.00  0.00     0.074 A 
HETATM   13  C   UNL     1       3.161   7.499  24.445  0.00  0.00     0.081 A 
BRANCH  11  14
HETATM   14  O   UNL     1       4.089   6.220  21.162  0.00  0.00    -0.361 OA
HETATM   15  H   UNL     1       3.681   5.472  20.697  0.00  0.00     0.217 HD
ENDBRANCH  11  14
BRANCH  13  16
HETATM   16  O   UNL     1       3.805   8.146  25.470  0.00  0.00    -0.360 OA
HETATM   17  H   UNL     1       4.316   8.884  25.102  0.00  0.00     0.217 HD
ENDBRANCH  13  16
ENDBRANCH   1   8
BRANCH   7  18
HETATM   18  C   UNL     1       0.247  10.089  25.635  0.00  0.00     0.068 C 
HETATM   19  C   UNL     1       1.540  10.568  25.021  0.00  0.00    -0.015 C 
HETATM   20  C   UNL     1       1.562  11.464  24.016  0.00  0.00     0.006 C 
HETATM   21  C   UNL     1       0.309  12.007  23.374  0.00  0.00     0.166 C 
HETATM   22  C   UNL     1      -0.948  11.277  23.784  0.00  0.00     0.006 C 
HETATM   23  C   UNL     1      -0.978  10.388  24.793  0.00  0.00    -0.015 C 
BRANCH  21  24
HETATM   24  O   UNL     1       0.157  13.412  23.594  0.00  0.00    -0.383 OA
HETATM   25  C   UNL     1       1.277  14.070  24.176  0.00  0.00     0.202 C 
ENDBRANCH  21  24
ENDBRANCH   7  18
TORSDOF 5
ENDMDL
MODEL 8
REMARK VINA RESULT:    -6.743      2.570      5.233
REMARK INTER + INTRA:          -9.259
REMARK INTER:                  -8.449
REMARK INTRA:                  -0.810
REMARK UNBOUND:                -0.939
REMARK  5 active torsions:
REMARK  status: ('A' for Active; 'I' for Inactive)
REMARK    1  A    between atoms: C_3  and  O_4 
REMARK    2  A    between atoms: C_6  and  O_7 
REMARK    3  A    between atoms: C_8  and  C_9 
REMARK    4  A    between atoms: C_15  and  C_16 
REMARK    5  A    between atoms: C_19  and  O_22 
ROOT
HETATM    1  C   UNL     1      -0.038   9.138  27.242  0.00  0.00     0.099 A 
HETATM    2  N   UNL     1      -0.834  10.079  27.785  0.00  0.00    -0.173 NA
HETATM    3  N   UNL     1      -1.362  10.739  26.759  0.00  0.00    -0.281 N 
HETATM    4  H   UNL     1      -1.951  11.543  26.963  0.00  0.00     0.189 HD
HETATM    5  C   UNL     1      -1.043  10.216  25.548  0.00  0.00     0.033 A 
HETATM    6  C   UNL     1      -1.596  10.741  24.276  0.00  0.00     0.070 C 
HETATM    7  C   UNL     1      -0.148   9.184  25.801  0.00  0.00     0.008 A 
ENDROOT
BRANCH   1   8
HETATM    8  C   UNL     1       0.719   8.227  28.129  0.00  0.00     0.028 A 
HETATM    9  C   UNL     1       0.034   7.437  29.067  0.00  0.00     0.019 A 
HETATM   10  C   UNL     1       0.708   6.606  29.969  0.00  0.00     0.037 A 
HETATM   11  C   UNL     1       2.094   6.579  29.967  0.00  0.00     0.068 A 
HETATM   12  C   UNL     1       2.812   7.351  29.065  0.00  0.00     0.074 A 
HETATM   13  C   UNL     1       2.130   8.160  28.145  0.00  0.00     0.081 A 
BRANCH  11  14
HETATM   14  O   UNL     1       2.791   5.804  30.844  0.00  0.00    -0.361 OA
HETATM   15  H   UNL     1       2.193   5.131  31.209  0.00  0.00     0.217 HD
ENDBRANCH  11  14
BRANCH  13  16
HETATM   16  O   UNL     1       2.887   8.867  27.245  0.00  0.00    -0.360 OA
HETATM   17  H   UNL     1       3.048   9.755  27.601  0.00  0.00     0.217 HD
ENDBRANCH  13  16
ENDBRANCH   1   8
BRANCH   7  18
HETATM   18  C   UNL     1       0.501   8.392  24.696  0.00  0.00     0.068 C 
HETATM   19  C   UNL     1       1.926   8.788  24.393  0.00  0.00    -0.015 C 
HETATM   20  C   UNL     1       2.830   7.901  23.937  0.00  0.00     0.006 C 
HETATM   21  C   UNL     1       2.522   6.435  23.758  0.00  0.00     0.166 C 
HETATM   22  C   UNL     1       1.206   6.013  24.367  0.00  0.00     0.006 C 
HETATM   23  C   UNL     1       0.294   6.894  24.815  0.00  0.00    -0.015 C 
BRANCH  21  24
HETATM   24  O   UNL     1       2.581   6.035  22.386  0.00  0.00    -0.383 OA
HETATM   25  C   UNL     1       3.780   6.372  21.697  0.00  0.00     0.202 C 
ENDBRANCH  21  24
ENDBRANCH   7  18
TORSDOF 5
ENDMDL
MODEL 9
REMARK VINA RESULT:    -6.602      3.271      6.142
REMARK INTER + INTRA:          -9.085
REMARK INTER:                  -8.146
REMARK INTRA:                  -0.939
REMARK UNBOUND:                -0.939
REMARK  5 active torsions:
REMARK  status: ('A' for Active; 'I' for Inactive)
REMARK    1  A    between atoms: C_3  and  O_4 
REMARK    2  A    between atoms: C_6  and  O_7 
REMARK    3  A    between atoms: C_8  and  C_9 
REMARK    4  A    between atoms: C_15  and  C_16 
REMARK    5  A    between atoms: C_19  and  O_22 
ROOT
HETATM    1  C   UNL     1       2.192   6.496  26.101  0.00  0.00     0.099 A 
HETATM    2  N   UNL     1       2.851   5.334  25.934  0.00  0.00    -0.173 NA
HETATM    3  N   UNL     1       2.927   5.150  24.620  0.00  0.00    -0.281 N 
HETATM    4  H   UNL     1       3.339   4.283  24.284  0.00  0.00     0.189 HD
HETATM    5  C   UNL     1       2.446   6.189  23.892  0.00  0.00     0.033 A 
HETATM    6  C   UNL     1       2.515   6.233  22.411  0.00  0.00     0.070 C 
HETATM    7  C   UNL     1       1.918   7.088  24.810  0.00  0.00     0.008 A 
ENDROOT
BRANCH   1   8
HETATM    8  C   UNL     1       1.925   6.990  27.471  0.00  0.00     0.028 A 
HETATM    9  C   UNL     1       2.991   7.424  28.276  0.00  0.00     0.019 A 
HETATM   10  C   UNL     1       2.799   7.842  29.598  0.00  0.00     0.037 A 
HETATM   11  C   UNL     1       1.528   7.799  30.149  0.00  0.00     0.068 A 
HETATM   12  C   UNL     1       0.447   7.366  29.394  0.00  0.00     0.074 A 
HETATM   13  C   UNL     1       0.643   6.976  28.061  0.00  0.00     0.081 A 
BRANCH  11  14
HETATM   14  O   UNL     1       1.299   8.172  31.439  0.00  0.00    -0.361 OA
HETATM   15  H   UNL     1       2.129   8.507  31.818  0.00  0.00     0.217 HD
ENDBRANCH  11  14
BRANCH  13  16
HETATM   16  O   UNL     1      -0.467   6.602  27.346  0.00  0.00    -0.360 OA
HETATM   17  H   UNL     1      -0.180   6.149  26.537  0.00  0.00     0.217 HD
ENDBRANCH  13  16
ENDBRANCH   1   8
BRANCH   7  18
HETATM   18  C   UNL     1       1.219   8.354  24.388  0.00  0.00     0.068 C 
HETATM   19  C   UNL     1      -0.206   8.475  24.872  0.00  0.00    -0.015 C 
HETATM   20  C   UNL     1      -0.769   9.668  25.137  0.00  0.00     0.006 C 
HETATM   21  C   UNL     1      -0.013  10.971  25.043  0.00  0.00     0.166 C 
HETATM   22  C   UNL     1       1.478  10.796  24.873  0.00  0.00     0.006 C 
HETATM   23  C   UNL     1       2.045   9.608  24.599  0.00  0.00    -0.015 C 
BRANCH  21  24
HETATM   24  O   UNL     1      -0.529  11.821  24.016  0.00  0.00    -0.383 OA
HETATM   25  C   UNL     1      -1.884  11.588  23.645  0.00  0.00     0.202 C 
ENDBRANCH  21  24
ENDBRANCH   7  18
TORSDOF 5
ENDMDL
