MODEL 1
REMARK VINA RESULT:    -8.362      0.000      0.000
REMARK INTER + INTRA:         -13.304
REMARK INTER:                 -11.827
REMARK INTRA:                  -1.477
REMARK UNBOUND:                -1.519
REMARK  8 active torsions:
REMARK  status: ('A' for Active; 'I' for Inactive)
REMARK    1  A    between atoms: O_1  and  C_2 
REMARK    2  A    between atoms: C_4  and  O_5 
REMARK    3  A    between atoms: C_6  and  C_10 
REMARK    4  A    between atoms: C_13  and  C_14 
REMARK       I    between atoms: C_14  and  N_16 
REMARK    5  A    between atoms: N_16  and  C_17 
REMARK    6  A    between atoms: C_19  and  C_20 
REMARK    7  A    between atoms: C_23  and  C_26 
REMARK    8  A    between atoms: C_26  and  N_27 
ROOT
HETATM    1  C   UNL     1      -3.404  13.768  23.602  0.00  0.00     0.128 A 
HETATM    2  O   UNL     1      -4.647  13.477  24.093  0.00  0.00    -0.211 OA
HETATM    3  N   UNL     1      -4.556  12.965  25.379  0.00  0.00    -0.121 NA
HETATM    4  C   UNL     1      -3.243  12.888  25.651  0.00  0.00     0.165 A 
HETATM    5  C   UNL     1      -2.468  13.382  24.551  0.00  0.00     0.048 A 
ENDROOT
BRANCH   5   6
HETATM    6  C   UNL     1      -1.044  13.665  24.505  0.00  0.00    -0.021 A 
HETATM    7  C   UNL     1      -0.488  14.808  25.089  0.00  0.00     0.013 A 
HETATM    8  C   UNL     1       0.894  15.032  25.024  0.00  0.00     0.010 A 
HETATM    9  C   UNL     1       1.730  14.123  24.355  0.00  0.00    -0.033 A 
HETATM   10  C   UNL     1       1.169  12.975  23.786  0.00  0.00     0.010 A 
HETATM   11  C   UNL     1      -0.201  12.746  23.870  0.00  0.00     0.013 A 
BRANCH   9  12
HETATM   12  C   UNL     1       3.199  14.381  24.176  0.00  0.00     0.273 C 
BRANCH  12  13
HETATM   13  N   UNL     1       3.666  14.471  22.742  0.00  0.00    -0.063 N 
HETATM   14  H   UNL     1       3.482  13.562  22.301  0.00  0.00     0.280 HD
HETATM   15  C   UNL     1       2.911  15.529  21.943  0.00  0.00     0.261 C 
HETATM   16  C   UNL     1       3.530  15.663  20.549  0.00  0.00     0.195 C 
HETATM   17  O   UNL     1       4.911  16.021  20.653  0.00  0.00    -0.388 OA
HETATM   18  C   UNL     1       5.668  14.989  21.289  0.00  0.00     0.195 C 
HETATM   19  C   UNL     1       5.170  14.723  22.713  0.00  0.00     0.261 C 
ENDBRANCH  12  13
ENDBRANCH   9  12
ENDBRANCH   5   6
BRANCH   1  20
HETATM   20  C   UNL     1      -3.373  14.517  22.331  0.00  0.00     0.035 A 
HETATM   21  C   UNL     1      -4.419  14.494  21.391  0.00  0.00     0.081 A 
HETATM   22  C   UNL     1      -4.357  15.271  20.227  0.00  0.00     0.074 A 
HETATM   23  C   UNL     1      -3.242  16.072  19.987  0.00  0.00     0.074 A 
HETATM   24  C   UNL     1      -2.177  16.103  20.884  0.00  0.00    -0.028 A 
HETATM   25  C   UNL     1      -2.263  15.329  22.049  0.00  0.00     0.026 A 
HETATM   26  C   UNL     1      -0.996  17.003  20.664  0.00  0.00     0.051 C 
BRANCH  21  27
HETATM   27  O   UNL     1      -5.512  13.703  21.604  0.00  0.00    -0.360 OA
HETATM   28  H   UNL     1      -6.079  13.702  20.815  0.00  0.00     0.217 HD
ENDBRANCH  21  27
BRANCH  23  29
HETATM   29  O   UNL     1      -3.167  16.853  18.869  0.00  0.00    -0.360 OA
HETATM   30  H   UNL     1      -2.430  17.481  18.959  0.00  0.00     0.217 HD
ENDBRANCH  23  29
ENDBRANCH   1  20
BRANCH   4  31
HETATM   31  C   UNL     1      -2.731  12.427  26.951  0.00  0.00     0.273 C 
HETATM   32  O   UNL     1      -2.761  13.133  27.957  0.00  0.00    -0.266 OA
HETATM   33  N   UNL     1      -2.313  11.111  26.990  0.00  0.00    -0.356 N 
HETATM   34  H   UNL     1      -2.331  10.585  26.123  0.00  0.00     0.162 HD
BRANCH  33  35
HETATM   35  C   UNL     1      -1.906  10.459  28.220  0.00  0.00     0.118 C 
HETATM   36  C   UNL     1      -0.898   9.342  27.989  0.00  0.00     0.026 C 
ENDBRANCH  33  35
ENDBRANCH   4  31
TORSDOF 8
ENDMDL
MODEL 2
REMARK VINA RESULT:    -8.319      2.146      6.947
REMARK INTER + INTRA:         -13.243
REMARK INTER:                 -12.132
REMARK INTRA:                  -1.111
REMARK UNBOUND:                -1.519
REMARK  8 active torsions:
REMARK  status: ('A' for Active; 'I' for Inactive)
REMARK    1  A    between atoms: O_1  and  C_2 
REMARK    2  A    between atoms: C_4  and  O_5 
REMARK    3  A    between atoms: C_6  and  C_10 
REMARK    4  A    between atoms: C_13  and  C_14 
REMARK       I    between atoms: C_14  and  N_16 
REMARK    5  A    between atoms: N_16  and  C_17 
REMARK    6  A    between atoms: C_19  and  C_20 
REMARK    7  A    between atoms: C_23  and  C_26 
REMARK    8  A    between atoms: C_26  and  N_27 
ROOT
HETATM    1  C   UNL     1       0.850  16.276  21.187  0.00  0.00     0.128 A 
HETATM    2  O   UNL     1       1.605  17.328  20.747  0.00  0.00    -0.211 OA
HETATM    3  N   UNL     1       2.957  17.034  20.850  0.00  0.00    -0.121 NA
HETATM    4  C   UNL     1       3.026  15.817  21.414  0.00  0.00     0.165 A 
HETATM    5  C   UNL     1       1.713  15.294  21.651  0.00  0.00     0.048 A 
ENDROOT
BRANCH   5   6
HETATM    6  C   UNL     1       1.336  13.949  22.049  0.00  0.00    -0.021 A 
HETATM    7  C   UNL     1       0.897  12.991  21.130  0.00  0.00     0.013 A 
HETATM    8  C   UNL     1       0.552  11.704  21.563  0.00  0.00     0.010 A 
HETATM    9  C   UNL     1       0.622  11.370  22.925  0.00  0.00    -0.033 A 
HETATM   10  C   UNL     1       1.076  12.328  23.838  0.00  0.00     0.010 A 
HETATM   11  C   UNL     1       1.437  13.599  23.401  0.00  0.00     0.013 A 
BRANCH   9  12
HETATM   12  C   UNL     1       0.163  10.035  23.439  0.00  0.00     0.273 C 
BRANCH  12  13
HETATM   13  N   UNL     1      -1.225  10.020  24.036  0.00  0.00    -0.063 N 
HETATM   14  H   UNL     1      -1.525   9.040  24.092  0.00  0.00     0.280 HD
HETATM   15  C   UNL     1      -1.264  10.593  25.450  0.00  0.00     0.261 C 
HETATM   16  C   UNL     1      -2.714  10.677  25.933  0.00  0.00     0.195 C 
HETATM   17  O   UNL     1      -3.484  11.499  25.051  0.00  0.00    -0.388 OA
HETATM   18  C   UNL     1      -3.568  10.922  23.746  0.00  0.00     0.195 C 
HETATM   19  C   UNL     1      -2.184  10.763  23.111  0.00  0.00     0.261 C 
ENDBRANCH  12  13
ENDBRANCH   9  12
ENDBRANCH   5   6
BRANCH   1  20
HETATM   20  C   UNL     1      -0.600  16.374  20.931  0.00  0.00     0.035 A 
HETATM   21  C   UNL     1      -1.157  17.167  19.913  0.00  0.00     0.081 A 
HETATM   22  C   UNL     1      -2.538  17.176  19.682  0.00  0.00     0.074 A 
HETATM   23  C   UNL     1      -3.379  16.397  20.475  0.00  0.00     0.074 A 
HETATM   24  C   UNL     1      -2.866  15.615  21.508  0.00  0.00    -0.028 A 
HETATM   25  C   UNL     1      -1.480  15.610  21.715  0.00  0.00     0.026 A 
HETATM   26  C   UNL     1      -3.753  14.731  22.332  0.00  0.00     0.051 C 
BRANCH  21  27
HETATM   27  O   UNL     1      -0.348  17.949  19.136  0.00  0.00    -0.360 OA
HETATM   28  H   UNL     1      -0.730  18.838  19.051  0.00  0.00     0.217 HD
ENDBRANCH  21  27
BRANCH  23  29
HETATM   29  O   UNL     1      -4.727  16.374  20.256  0.00  0.00    -0.360 OA
HETATM   30  H   UNL     1      -5.079  15.497  20.485  0.00  0.00     0.217 HD
ENDBRANCH  23  29
ENDBRANCH   1  20
BRANCH   4  31
HETATM   31  C   UNL     1       4.305  15.129  21.654  0.00  0.00     0.273 C 
HETATM   32  O   UNL     1       4.547  14.014  21.198  0.00  0.00    -0.266 OA
HETATM   33  N   UNL     1       5.254  15.866  22.336  0.00  0.00    -0.356 N 
HETATM   34  H   UNL     1       4.986  16.786  22.669  0.00  0.00     0.162 HD
BRANCH  33  35
HETATM   35  C   UNL     1       6.609  15.391  22.541  0.00  0.00     0.118 C 
HETATM   36  C   UNL     1       7.609  16.524  22.724  0.00  0.00     0.026 C 
ENDBRANCH  33  35
ENDBRANCH   4  31
TORSDOF 8
ENDMDL
MODEL 3
REMARK VINA RESULT:    -8.176      2.341      6.979
REMARK INTER + INTRA:         -13.041
REMARK INTER:                 -11.904
REMARK INTRA:                  -1.137
REMARK UNBOUND:                -1.519
REMARK  8 active torsions:
REMARK  status: ('A' for Active; 'I' for Inactive)
REMARK    1  A    between atoms: O_1  and  C_2 
REMARK    2  A    between atoms: C_4  and  O_5 
REMARK    3  A    between atoms: C_6  and  C_10 
REMARK    4  A    between atoms: C_13  and  C_14 
REMARK       I    between atoms: C_14  and  N_16 
REMARK    5  A    between atoms: N_16  and  C_17 
REMARK    6  A    between atoms: C_19  and  C_20 
REMARK    7  A    between atoms: C_23  and  C_26 
REMARK    8  A    between atoms: C_26  and  N_27 
ROOT
HETATM    1  C   UNL     1       0.901  16.271  21.121  0.00  0.00     0.128 A 
HETATM    2  O   UNL     1       1.627  17.243  20.488  0.00  0.00    -0.211 OA
HETATM    3  N   UNL     1       2.984  16.971  20.575  0.00  0.00    -0.121 NA
HETATM    4  C   UNL     1       3.089  15.857  21.318  0.00  0.00     0.165 A 
HETATM    5  C   UNL     1       1.793  15.376  21.694  0.00  0.00     0.048 A 
ENDROOT
BRANCH   5   6
HETATM    6  C   UNL     1       1.445  14.110  22.315  0.00  0.00    -0.021 A 
HETATM    7  C   UNL     1       1.639  13.867  23.679  0.00  0.00     0.013 A 
HETATM    8  C   UNL     1       1.280  12.631  24.233  0.00  0.00     0.010 A 
HETATM    9  C   UNL     1       0.745  11.617  23.422  0.00  0.00    -0.033 A 
HETATM   10  C   UNL     1       0.541  11.872  22.062  0.00  0.00     0.010 A 
HETATM   11  C   UNL     1       0.879  13.108  21.519  0.00  0.00     0.013 A 
BRANCH   9  12
HETATM   12  C   UNL     1       0.445  10.247  23.959  0.00  0.00     0.273 C 
BRANCH  12  13
HETATM   13  N   UNL     1       0.168  10.185  25.442  0.00  0.00    -0.063 N 
HETATM   14  H   UNL     1       0.475  11.075  25.851  0.00  0.00     0.280 HD
HETATM   15  C   UNL     1      -1.317  10.024  25.757  0.00  0.00     0.261 C 
HETATM   16  C   UNL     1      -1.507   9.826  27.263  0.00  0.00     0.195 C 
HETATM   17  O   UNL     1      -0.786   8.672  27.706  0.00  0.00    -0.388 OA
HETATM   18  C   UNL     1       0.623   8.845  27.538  0.00  0.00     0.195 C 
HETATM   19  C   UNL     1       0.991   9.062  26.067  0.00  0.00     0.261 C 
ENDBRANCH  12  13
ENDBRANCH   9  12
ENDBRANCH   5   6
BRANCH   1  20
HETATM   20  C   UNL     1      -0.560  16.325  20.919  0.00  0.00     0.035 A 
HETATM   21  C   UNL     1      -1.174  17.048  19.881  0.00  0.00     0.081 A 
HETATM   22  C   UNL     1      -2.563  17.016  19.706  0.00  0.00     0.074 A 
HETATM   23  C   UNL     1      -3.354  16.267  20.575  0.00  0.00     0.074 A 
HETATM   24  C   UNL     1      -2.783  15.556  21.629  0.00  0.00    -0.028 A 
HETATM   25  C   UNL     1      -1.391  15.590  21.780  0.00  0.00     0.026 A 
HETATM   26  C   UNL     1      -3.618  14.703  22.537  0.00  0.00     0.051 C 
BRANCH  21  27
HETATM   27  O   UNL     1      -0.414  17.799  19.029  0.00  0.00    -0.360 OA
HETATM   28  H   UNL     1       0.324  18.205  19.514  0.00  0.00     0.217 HD
ENDBRANCH  21  27
BRANCH  23  29
HETATM   29  O   UNL     1      -4.709  16.204  20.413  0.00  0.00    -0.360 OA
HETATM   30  H   UNL     1      -5.148  16.541  21.213  0.00  0.00     0.217 HD
ENDBRANCH  23  29
ENDBRANCH   1  20
BRANCH   4  31
HETATM   31  C   UNL     1       4.383  15.218  21.605  0.00  0.00     0.273 C 
HETATM   32  O   UNL     1       4.663  14.091  21.204  0.00  0.00    -0.266 OA
HETATM   33  N   UNL     1       5.302  16.012  22.265  0.00  0.00    -0.356 N 
HETATM   34  H   UNL     1       5.004  16.938  22.552  0.00  0.00     0.162 HD
BRANCH  33  35
HETATM   35  C   UNL     1       6.667  15.586  22.508  0.00  0.00     0.118 C 
HETATM   36  C   UNL     1       7.633  16.754  22.644  0.00  0.00     0.026 C 
ENDBRANCH  33  35
ENDBRANCH   4  31
TORSDOF 8
ENDMDL
MODEL 4
REMARK VINA RESULT:    -8.043      2.101      6.452
REMARK INTER + INTRA:         -12.854
REMARK INTER:                 -11.588
REMARK INTRA:                  -1.265
REMARK UNBOUND:                -1.519
REMARK  8 active torsions:
REMARK  status: ('A' for Active; 'I' for Inactive)
REMARK    1  A    between atoms: O_1  and  C_2 
REMARK    2  A    between atoms: C_4  and  O_5 
REMARK    3  A    between atoms: C_6  and  C_10 
REMARK    4  A    between atoms: C_13  and  C_14 
REMARK       I    between atoms: C_14  and  N_16 
REMARK    5  A    between atoms: N_16  and  C_17 
REMARK    6  A    between atoms: C_19  and  C_20 
REMARK    7  A    between atoms: C_23  and  C_26 
REMARK    8  A    between atoms: C_26  and  N_27 
ROOT
HETATM    1  C   UNL     1      -1.328  15.786  21.185  0.00  0.00     0.128 A 
HETATM    2  O   UNL     1      -1.244  16.870  20.356  0.00  0.00    -0.211 OA
HETATM    3  N   UNL     1       0.073  17.283  20.224  0.00  0.00    -0.121 NA
HETATM    4  C   UNL     1       0.791  16.480  21.028  0.00  0.00     0.165 A 
HETATM    5  C   UNL     1      -0.055  15.514  21.665  0.00  0.00     0.048 A 
ENDROOT
BRANCH   5   6
HETATM    6  C   UNL     1       0.331  14.349  22.440  0.00  0.00    -0.021 A 
HETATM    7  C   UNL     1       0.159  13.044  21.967  0.00  0.00     0.013 A 
HETATM    8  C   UNL     1       0.555  11.951  22.751  0.00  0.00     0.010 A 
HETATM    9  C   UNL     1       1.108  12.155  24.025  0.00  0.00    -0.033 A 
HETATM   10  C   UNL     1       1.291  13.463  24.486  0.00  0.00     0.010 A 
HETATM   11  C   UNL     1       0.915  14.545  23.697  0.00  0.00     0.013 A 
BRANCH   9  12
HETATM   12  C   UNL     1       1.448  11.008  24.934  0.00  0.00     0.273 C 
BRANCH  12  13
HETATM   13  N   UNL     1       0.268  10.202  25.421  0.00  0.00    -0.063 N 
HETATM   14  H   UNL     1      -0.069   9.639  24.631  0.00  0.00     0.280 HD
HETATM   15  C   UNL     1       0.636   9.239  26.546  0.00  0.00     0.261 C 
HETATM   16  C   UNL     1      -0.628   8.564  27.083  0.00  0.00     0.195 C 
HETATM   17  O   UNL     1      -1.549   9.548  27.565  0.00  0.00    -0.388 OA
HETATM   18  C   UNL     1      -2.008  10.390  26.506  0.00  0.00     0.195 C 
HETATM   19  C   UNL     1      -0.852  11.148  25.847  0.00  0.00     0.261 C 
ENDBRANCH  12  13
ENDBRANCH   9  12
ENDBRANCH   5   6
BRANCH   1  20
HETATM   20  C   UNL     1      -2.643  15.117  21.240  0.00  0.00     0.035 A 
HETATM   21  C   UNL     1      -3.279  14.752  22.440  0.00  0.00     0.081 A 
HETATM   22  C   UNL     1      -4.553  14.170  22.430  0.00  0.00     0.074 A 
HETATM   23  C   UNL     1      -5.200  13.939  21.217  0.00  0.00     0.074 A 
HETATM   24  C   UNL     1      -4.592  14.268  20.008  0.00  0.00    -0.028 A 
HETATM   25  C   UNL     1      -3.323  14.861  20.039  0.00  0.00     0.026 A 
HETATM   26  C   UNL     1      -5.301  14.075  18.700  0.00  0.00     0.051 C 
BRANCH  21  27
HETATM   27  O   UNL     1      -2.651  14.957  23.636  0.00  0.00    -0.360 OA
HETATM   28  H   UNL     1      -1.709  14.729  23.559  0.00  0.00     0.217 HD
ENDBRANCH  21  27
BRANCH  23  29
HETATM   29  O   UNL     1      -6.451  13.392  21.184  0.00  0.00    -0.360 OA
HETATM   30  H   UNL     1      -6.742  13.302  20.260  0.00  0.00     0.217 HD
ENDBRANCH  23  29
ENDBRANCH   1  20
BRANCH   4  31
HETATM   31  C   UNL     1       2.256  16.575  21.135  0.00  0.00     0.273 C 
HETATM   32  O   UNL     1       2.815  17.516  21.692  0.00  0.00    -0.266 OA
HETATM   33  N   UNL     1       2.955  15.482  20.660  0.00  0.00    -0.356 N 
HETATM   34  H   UNL     1       2.425  14.735  20.226  0.00  0.00     0.162 HD
BRANCH  33  35
HETATM   35  C   UNL     1       4.393  15.354  20.809  0.00  0.00     0.118 C 
HETATM   36  C   UNL     1       4.788  14.518  22.018  0.00  0.00     0.026 C 
ENDBRANCH  33  35
ENDBRANCH   4  31
TORSDOF 8
ENDMDL
MODEL 5
REMARK VINA RESULT:    -7.904      2.043      2.326
REMARK INTER + INTRA:         -12.657
REMARK INTER:                 -11.687
REMARK INTRA:                  -0.970
REMARK UNBOUND:                -1.519
REMARK  8 active torsions:
REMARK  status: ('A' for Active; 'I' for Inactive)
REMARK    1  A    between atoms: O_1  and  C_2 
REMARK    2  A    between atoms: C_4  and  O_5 
REMARK    3  A    between atoms: C_6  and  C_10 
REMARK    4  A    between atoms: C_13  and  C_14 
REMARK       I    between atoms: C_14  and  N_16 
REMARK    5  A    between atoms: N_16  and  C_17 
REMARK    6  A    between atoms: C_19  and  C_20 
REMARK    7  A    between atoms: C_23  and  C_26 
REMARK    8  A    between atoms: C_26  and  N_27 
ROOT
HETATM    1  C   UNL     1      -3.024  12.514  22.635  0.00  0.00     0.128 A 
HETATM    2  O   UNL     1      -4.090  11.702  22.910  0.00  0.00    -0.211 OA
HETATM    3  N   UNL     1      -3.712  10.672  23.760  0.00  0.00    -0.121 NA
HETATM    4  C   UNL     1      -2.391  10.824  23.955  0.00  0.00     0.165 A 
HETATM    5  C   UNL     1      -1.906  11.978  23.257  0.00  0.00     0.048 A 
ENDROOT
BRANCH   5   6
HETATM    6  C   UNL     1      -0.604  12.612  23.360  0.00  0.00    -0.021 A 
HETATM    7  C   UNL     1      -0.233  13.387  24.464  0.00  0.00     0.013 A 
HETATM    8  C   UNL     1       1.039  13.973  24.520  0.00  0.00     0.010 A 
HETATM    9  C   UNL     1       1.945  13.807  23.460  0.00  0.00    -0.033 A 
HETATM   10  C   UNL     1       1.573  13.019  22.365  0.00  0.00     0.010 A 
HETATM   11  C   UNL     1       0.317  12.422  22.322  0.00  0.00     0.013 A 
BRANCH   9  12
HETATM   12  C   UNL     1       3.276  14.503  23.437  0.00  0.00     0.273 C 
BRANCH  12  13
HETATM   13  N   UNL     1       3.430  15.559  22.368  0.00  0.00    -0.063 N 
HETATM   14  H   UNL     1       4.290  16.081  22.573  0.00  0.00     0.280 HD
HETATM   15  C   UNL     1       3.576  14.964  20.971  0.00  0.00     0.261 C 
HETATM   16  C   UNL     1       3.584  16.087  19.930  0.00  0.00     0.195 C 
HETATM   17  O   UNL     1       2.376  16.849  20.013  0.00  0.00    -0.388 OA
HETATM   18  C   UNL     1       2.272  17.520  21.271  0.00  0.00     0.195 C 
HETATM   19  C   UNL     1       2.253  16.528  22.437  0.00  0.00     0.261 C 
ENDBRANCH  12  13
ENDBRANCH   9  12
ENDBRANCH   5   6
BRANCH   1  20
HETATM   20  C   UNL     1      -3.337  13.766  21.918  0.00  0.00     0.035 A 
HETATM   21  C   UNL     1      -4.645  14.166  21.592  0.00  0.00     0.081 A 
HETATM   22  C   UNL     1      -4.884  15.394  20.960  0.00  0.00     0.074 A 
HETATM   23  C   UNL     1      -3.814  16.229  20.641  0.00  0.00     0.074 A 
HETATM   24  C   UNL     1      -2.504  15.855  20.929  0.00  0.00    -0.028 A 
HETATM   25  C   UNL     1      -2.286  14.629  21.572  0.00  0.00     0.026 A 
HETATM   26  C   UNL     1      -1.350  16.769  20.640  0.00  0.00     0.051 C 
BRANCH  21  27
HETATM   27  O   UNL     1      -5.702  13.352  21.884  0.00  0.00    -0.360 OA
HETATM   28  H   UNL     1      -5.726  12.604  21.265  0.00  0.00     0.217 HD
ENDBRANCH  21  27
BRANCH  23  29
HETATM   29  O   UNL     1      -4.024  17.439  20.043  0.00  0.00    -0.360 OA
HETATM   30  H   UNL     1      -4.902  17.776  20.291  0.00  0.00     0.217 HD
ENDBRANCH  23  29
ENDBRANCH   1  20
BRANCH   4  31
HETATM   31  C   UNL     1      -1.618   9.941  24.842  0.00  0.00     0.273 C 
HETATM   32  O   UNL     1      -1.752   9.954  26.063  0.00  0.00    -0.266 OA
HETATM   33  N   UNL     1      -0.807   9.022  24.203  0.00  0.00    -0.356 N 
HETATM   34  H   UNL     1      -0.757   9.062  23.190  0.00  0.00     0.162 HD
BRANCH  33  35
HETATM   35  C   UNL     1      -0.080   7.993  24.921  0.00  0.00     0.118 C 
HETATM   36  C   UNL     1       0.592   6.991  23.993  0.00  0.00     0.026 C 
ENDBRANCH  33  35
ENDBRANCH   4  31
TORSDOF 8
ENDMDL
MODEL 6
REMARK VINA RESULT:    -7.897      2.067      5.826
REMARK INTER + INTRA:         -12.648
REMARK INTER:                 -11.006
REMARK INTRA:                  -1.642
REMARK UNBOUND:                -1.519
REMARK  8 active torsions:
REMARK  status: ('A' for Active; 'I' for Inactive)
REMARK    1  A    between atoms: O_1  and  C_2 
REMARK    2  A    between atoms: C_4  and  O_5 
REMARK    3  A    between atoms: C_6  and  C_10 
REMARK    4  A    between atoms: C_13  and  C_14 
REMARK       I    between atoms: C_14  and  N_16 
REMARK    5  A    between atoms: N_16  and  C_17 
REMARK    6  A    between atoms: C_19  and  C_20 
REMARK    7  A    between atoms: C_23  and  C_26 
REMARK    8  A    between atoms: C_26  and  N_27 
ROOT
HETATM    1  C   UNL     1      -3.024  11.440  24.922  0.00  0.00     0.128 A 
HETATM    2  O   UNL     1      -4.236  10.865  24.653  0.00  0.00    -0.211 OA
HETATM    3  N   UNL     1      -4.921  11.597  23.695  0.00  0.00    -0.121 NA
HETATM    4  C   UNL     1      -4.146  12.660  23.422  0.00  0.00     0.165 A 
HETATM    5  C   UNL     1      -2.931  12.608  24.181  0.00  0.00     0.048 A 
ENDROOT
BRANCH   5   6
HETATM    6  C   UNL     1      -1.745  13.435  24.042  0.00  0.00    -0.021 A 
HETATM    7  C   UNL     1      -1.520  14.561  24.842  0.00  0.00     0.013 A 
HETATM    8  C   UNL     1      -0.355  15.323  24.675  0.00  0.00     0.010 A 
HETATM    9  C   UNL     1       0.585  14.977  23.691  0.00  0.00    -0.033 A 
HETATM   10  C   UNL     1       0.360  13.842  22.905  0.00  0.00     0.010 A 
HETATM   11  C   UNL     1      -0.787  13.077  23.087  0.00  0.00     0.013 A 
BRANCH   9  12
HETATM   12  C   UNL     1       1.792  15.827  23.414  0.00  0.00     0.273 C 
BRANCH  12  13
HETATM   13  N   UNL     1       2.639  15.379  22.247  0.00  0.00    -0.063 N 
HETATM   14  H   UNL     1       2.199  14.540  21.850  0.00  0.00     0.280 HD
HETATM   15  C   UNL     1       2.714  16.424  21.138  0.00  0.00     0.261 C 
HETATM   16  C   UNL     1       3.699  15.964  20.059  0.00  0.00     0.195 C 
HETATM   17  O   UNL     1       4.996  15.759  20.627  0.00  0.00    -0.388 OA
HETATM   18  C   UNL     1       4.982  14.697  21.584  0.00  0.00     0.195 C 
HETATM   19  C   UNL     1       4.031  14.999  22.745  0.00  0.00     0.261 C 
ENDBRANCH  12  13
ENDBRANCH   9  12
ENDBRANCH   5   6
BRANCH   1  20
HETATM   20  C   UNL     1      -2.108  10.645  25.763  0.00  0.00     0.035 A 
HETATM   21  C   UNL     1      -2.266  10.490  27.151  0.00  0.00     0.081 A 
HETATM   22  C   UNL     1      -1.395   9.677  27.888  0.00  0.00     0.074 A 
HETATM   23  C   UNL     1      -0.350   9.016  27.242  0.00  0.00     0.074 A 
HETATM   24  C   UNL     1      -0.150   9.164  25.872  0.00  0.00    -0.028 A 
HETATM   25  C   UNL     1      -1.039   9.972  25.150  0.00  0.00     0.026 A 
HETATM   26  C   UNL     1       0.937   8.416  25.157  0.00  0.00     0.051 C 
BRANCH  21  27
HETATM   27  O   UNL     1      -3.275  11.142  27.801  0.00  0.00    -0.360 OA
HETATM   28  H   UNL     1      -3.379  12.037  27.438  0.00  0.00     0.217 HD
ENDBRANCH  21  27
BRANCH  23  29
HETATM   29  O   UNL     1       0.499   8.203  27.936  0.00  0.00    -0.360 OA
HETATM   30  H   UNL     1       0.160   7.292  27.923  0.00  0.00     0.217 HD
ENDBRANCH  23  29
ENDBRANCH   1  20
BRANCH   4  31
HETATM   31  C   UNL     1      -4.511  13.666  22.412  0.00  0.00     0.273 C 
HETATM   32  O   UNL     1      -4.912  14.787  22.714  0.00  0.00    -0.266 OA
HETATM   33  N   UNL     1      -4.271  13.301  21.101  0.00  0.00    -0.356 N 
HETATM   34  H   UNL     1      -3.926  12.363  20.928  0.00  0.00     0.162 HD
BRANCH  33  35
HETATM   35  C   UNL     1      -4.449  14.219  19.992  0.00  0.00     0.118 C 
HETATM   36  C   UNL     1      -5.327  13.647  18.888  0.00  0.00     0.026 C 
ENDBRANCH  33  35
ENDBRANCH   4  31
TORSDOF 8
ENDMDL
MODEL 7
REMARK VINA RESULT:    -7.890      2.189      6.755
REMARK INTER + INTRA:         -12.638
REMARK INTER:                 -11.164
REMARK INTRA:                  -1.475
REMARK UNBOUND:                -1.519
REMARK  8 active torsions:
REMARK  status: ('A' for Active; 'I' for Inactive)
REMARK    1  A    between atoms: O_1  and  C_2 
REMARK    2  A    between atoms: C_4  and  O_5 
REMARK    3  A    between atoms: C_6  and  C_10 
REMARK    4  A    between atoms: C_13  and  C_14 
REMARK       I    between atoms: C_14  and  N_16 
REMARK    5  A    between atoms: N_16  and  C_17 
REMARK    6  A    between atoms: C_19  and  C_20 
REMARK    7  A    between atoms: C_23  and  C_26 
REMARK    8  A    between atoms: C_26  and  N_27 
ROOT
HETATM    1  C   UNL     1      -0.290  15.597  21.577  0.00  0.00     0.128 A 
HETATM    2  O   UNL     1       0.167  16.679  20.877  0.00  0.00    -0.211 OA
HETATM    3  N   UNL     1       1.528  16.565  20.636  0.00  0.00    -0.121 NA
HETATM    4  C   UNL     1       1.915  15.433  21.247  0.00  0.00     0.165 A 
HETATM    5  C   UNL     1       0.797  14.783  21.864  0.00  0.00     0.048 A 
ENDROOT
BRANCH   5   6
HETATM    6  C   UNL     1       0.734  13.454  22.445  0.00  0.00    -0.021 A 
HETATM    7  C   UNL     1       0.214  12.357  21.750  0.00  0.00     0.013 A 
HETATM    8  C   UNL     1       0.182  11.091  22.352  0.00  0.00     0.010 A 
HETATM    9  C   UNL     1       0.650  10.917  23.664  0.00  0.00    -0.033 A 
HETATM   10  C   UNL     1       1.182  12.015  24.348  0.00  0.00     0.010 A 
HETATM   11  C   UNL     1       1.231  13.265  23.740  0.00  0.00     0.013 A 
BRANCH   9  12
HETATM   12  C   UNL     1       0.537   9.600  24.378  0.00  0.00     0.273 C 
BRANCH  12  13
HETATM   13  N   UNL     1       0.381   9.693  25.878  0.00  0.00    -0.063 N 
HETATM   14  H   UNL     1       0.750  10.606  26.170  0.00  0.00     0.280 HD
HETATM   15  C   UNL     1      -1.077   9.624  26.323  0.00  0.00     0.261 C 
HETATM   16  C   UNL     1      -1.148   9.581  27.852  0.00  0.00     0.195 C 
HETATM   17  O   UNL     1      -0.431   8.447  28.349  0.00  0.00    -0.388 OA
HETATM   18  C   UNL     1       0.964   8.545  28.054  0.00  0.00     0.195 C 
HETATM   19  C   UNL     1       1.216   8.603  26.544  0.00  0.00     0.261 C 
ENDBRANCH  12  13
ENDBRANCH   9  12
ENDBRANCH   5   6
BRANCH   1  20
HETATM   20  C   UNL     1      -1.756  15.489  21.712  0.00  0.00     0.035 A 
HETATM   21  C   UNL     1      -2.661  15.990  20.760  0.00  0.00     0.081 A 
HETATM   22  C   UNL     1      -4.041  15.808  20.915  0.00  0.00     0.074 A 
HETATM   23  C   UNL     1      -4.530  15.131  22.031  0.00  0.00     0.074 A 
HETATM   24  C   UNL     1      -3.665  14.641  23.006  0.00  0.00    -0.028 A 
HETATM   25  C   UNL     1      -2.287  14.822  22.827  0.00  0.00     0.026 A 
HETATM   26  C   UNL     1      -4.175  13.864  24.183  0.00  0.00     0.051 C 
BRANCH  21  27
HETATM   27  O   UNL     1      -2.199  16.669  19.668  0.00  0.00    -0.360 OA
HETATM   28  H   UNL     1      -2.945  17.042  19.169  0.00  0.00     0.217 HD
ENDBRANCH  21  27
BRANCH  23  29
HETATM   29  O   UNL     1      -5.870  14.925  22.194  0.00  0.00    -0.360 OA
HETATM   30  H   UNL     1      -6.126  14.091  21.764  0.00  0.00     0.217 HD
ENDBRANCH  23  29
ENDBRANCH   1  20
BRANCH   4  31
HETATM   31  C   UNL     1       3.299  14.936  21.186  0.00  0.00     0.273 C 
HETATM   32  O   UNL     1       3.575  13.805  20.790  0.00  0.00    -0.266 OA
HETATM   33  N   UNL     1       4.275  15.861  21.503  0.00  0.00    -0.356 N 
HETATM   34  H   UNL     1       3.972  16.780  21.808  0.00  0.00     0.162 HD
BRANCH  33  35
HETATM   35  C   UNL     1       5.690  15.577  21.366  0.00  0.00     0.118 C 
HETATM   36  C   UNL     1       6.315  15.064  22.656  0.00  0.00     0.026 C 
ENDBRANCH  33  35
ENDBRANCH   4  31
TORSDOF 8
ENDMDL
MODEL 8
REMARK VINA RESULT:    -7.859      3.400      6.550
REMARK INTER + INTRA:         -12.595
REMARK INTER:                 -11.389
REMARK INTRA:                  -1.206
REMARK UNBOUND:                -1.519
REMARK  8 active torsions:
REMARK  status: ('A' for Active; 'I' for Inactive)
REMARK    1  A    between atoms: O_1  and  C_2 
REMARK    2  A    between atoms: C_4  and  O_5 
REMARK    3  A    between atoms: C_6  and  C_10 
REMARK    4  A    between atoms: C_13  and  C_14 
REMARK       I    between atoms: C_14  and  N_16 
REMARK    5  A    between atoms: N_16  and  C_17 
REMARK    6  A    between atoms: C_19  and  C_20 
REMARK    7  A    between atoms: C_23  and  C_26 
REMARK    8  A    between atoms: C_26  and  N_27 
ROOT
HETATM    1  C   UNL     1      -1.928  15.929  20.544  0.00  0.00     0.128 A 
HETATM    2  O   UNL     1      -2.738  16.852  19.940  0.00  0.00    -0.211 OA
HETATM    3  N   UNL     1      -3.976  16.298  19.650  0.00  0.00    -0.121 NA
HETATM    4  C   UNL     1      -3.899  15.010  20.025  0.00  0.00     0.165 A 
HETATM    5  C   UNL     1      -2.616  14.725  20.595  0.00  0.00     0.048 A 
ENDROOT
BRANCH   5   6
HETATM    6  C   UNL     1      -2.188  13.531  21.303  0.00  0.00    -0.021 A 
HETATM    7  C   UNL     1      -1.222  12.661  20.787  0.00  0.00     0.013 A 
HETATM    8  C   UNL     1      -0.838  11.525  21.513  0.00  0.00     0.010 A 
HETATM    9  C   UNL     1      -1.433  11.237  22.751  0.00  0.00    -0.033 A 
HETATM   10  C   UNL     1      -2.388  12.120  23.268  0.00  0.00     0.010 A 
HETATM   11  C   UNL     1      -2.753  13.257  22.554  0.00  0.00     0.013 A 
BRANCH   9  12
HETATM   12  C   UNL     1      -1.122   9.978  23.508  0.00  0.00     0.273 C 
BRANCH  12  13
HETATM   13  N   UNL     1       0.336   9.775  23.846  0.00  0.00    -0.063 N 
HETATM   14  H   UNL     1       0.889  10.286  23.148  0.00  0.00     0.280 HD
HETATM   15  C   UNL     1       0.705  10.333  25.218  0.00  0.00     0.261 C 
HETATM   16  C   UNL     1       2.153   9.967  25.552  0.00  0.00     0.195 C 
HETATM   17  O   UNL     1       2.322   8.546  25.540  0.00  0.00    -0.388 OA
HETATM   18  C   UNL     1       2.103   8.009  24.234  0.00  0.00     0.195 C 
HETATM   19  C   UNL     1       0.681   8.292  23.740  0.00  0.00     0.261 C 
ENDBRANCH  12  13
ENDBRANCH   9  12
ENDBRANCH   5   6
BRANCH   1  20
HETATM   20  C   UNL     1      -0.663  16.448  21.098  0.00  0.00     0.035 A 
HETATM   21  C   UNL     1      -0.359  16.448  22.471  0.00  0.00     0.081 A 
HETATM   22  C   UNL     1       0.882  16.903  22.933  0.00  0.00     0.074 A 
HETATM   23  C   UNL     1       1.830  17.372  22.025  0.00  0.00     0.074 A 
HETATM   24  C   UNL     1       1.556  17.408  20.660  0.00  0.00    -0.028 A 
HETATM   25  C   UNL     1       0.313  16.937  20.216  0.00  0.00     0.026 A 
HETATM   26  C   UNL     1       2.588  17.859  19.668  0.00  0.00     0.051 C 
BRANCH  21  27
HETATM   27  O   UNL     1      -1.283  16.005  23.376  0.00  0.00    -0.360 OA
HETATM   28  H   UNL     1      -1.433  15.052  23.257  0.00  0.00     0.217 HD
ENDBRANCH  21  27
BRANCH  23  29
HETATM   29  O   UNL     1       3.055  17.802  22.450  0.00  0.00    -0.360 OA
HETATM   30  H   UNL     1       3.698  17.076  22.377  0.00  0.00     0.217 HD
ENDBRANCH  23  29
ENDBRANCH   1  20
BRANCH   4  31
HETATM   31  C   UNL     1      -5.039  14.087  19.915  0.00  0.00     0.273 C 
HETATM   32  O   UNL     1      -5.735  13.783  20.882  0.00  0.00    -0.266 OA
HETATM   33  N   UNL     1      -5.341  13.667  18.634  0.00  0.00    -0.356 N 
HETATM   34  H   UNL     1      -4.730  13.970  17.883  0.00  0.00     0.162 HD
BRANCH  33  35
HETATM   35  C   UNL     1      -6.510  12.863  18.332  0.00  0.00     0.118 C 
HETATM   36  C   UNL     1      -7.397  13.490  17.266  0.00  0.00     0.026 C 
ENDBRANCH  33  35
ENDBRANCH   4  31
TORSDOF 8
ENDMDL
MODEL 9
REMARK VINA RESULT:    -7.603      3.283      6.155
REMARK INTER + INTRA:         -12.234
REMARK INTER:                 -10.715
REMARK INTRA:                  -1.519
REMARK UNBOUND:                -1.519
REMARK  8 active torsions:
REMARK  status: ('A' for Active; 'I' for Inactive)
REMARK    1  A    between atoms: O_1  and  C_2 
REMARK    2  A    between atoms: C_4  and  O_5 
REMARK    3  A    between atoms: C_6  and  C_10 
REMARK    4  A    between atoms: C_13  and  C_14 
REMARK       I    between atoms: C_14  and  N_16 
REMARK    5  A    between atoms: N_16  and  C_17 
REMARK    6  A    between atoms: C_19  and  C_20 
REMARK    7  A    between atoms: C_23  and  C_26 
REMARK    8  A    between atoms: C_26  and  N_27 
ROOT
HETATM    1  C   UNL     1      -1.805  14.116  23.373  0.00  0.00     0.128 A 
HETATM    2  O   UNL     1      -2.912  14.906  23.525  0.00  0.00    -0.211 OA
HETATM    3  N   UNL     1      -3.945  14.190  24.112  0.00  0.00    -0.121 NA
HETATM    4  C   UNL     1      -3.483  12.937  24.263  0.00  0.00     0.165 A 
HETATM    5  C   UNL     1      -2.129  12.838  23.804  0.00  0.00     0.048 A 
ENDROOT
BRANCH   5   6
HETATM    6  C   UNL     1      -1.199  11.735  23.971  0.00  0.00    -0.021 A 
HETATM    7  C   UNL     1      -0.703  11.004  22.886  0.00  0.00     0.013 A 
HETATM    8  C   UNL     1       0.199   9.952  23.099  0.00  0.00     0.010 A 
HETATM    9  C   UNL     1       0.598   9.610  24.401  0.00  0.00    -0.033 A 
HETATM   10  C   UNL     1       0.109  10.355  25.479  0.00  0.00     0.010 A 
HETATM   11  C   UNL     1      -0.771  11.411  25.263  0.00  0.00     0.013 A 
BRANCH   9  12
HETATM   12  C   UNL     1       1.481   8.426  24.674  0.00  0.00     0.273 C 
BRANCH  12  13
HETATM   13  N   UNL     1       0.966   7.469  25.723  0.00  0.00    -0.063 N 
HETATM   14  H   UNL     1       0.550   8.030  26.475  0.00  0.00     0.280 HD
HETATM   15  C   UNL     1      -0.121   6.540  25.189  0.00  0.00     0.261 C 
HETATM   16  C   UNL     1      -0.492   5.510  26.259  0.00  0.00     0.195 C 
HETATM   17  O   UNL     1       0.661   4.749  26.635  0.00  0.00    -0.388 OA
HETATM   18  C   UNL     1       1.649   5.575  27.253  0.00  0.00     0.195 C 
HETATM   19  C   UNL     1       2.133   6.677  26.306  0.00  0.00     0.261 C 
ENDBRANCH  12  13
ENDBRANCH   9  12
ENDBRANCH   5   6
BRANCH   1  20
HETATM   20  C   UNL     1      -0.570  14.811  22.960  0.00  0.00     0.035 A 
HETATM   21  C   UNL     1      -0.558  15.936  22.116  0.00  0.00     0.081 A 
HETATM   22  C   UNL     1       0.641  16.588  21.804  0.00  0.00     0.074 A 
HETATM   23  C   UNL     1       1.844  16.114  22.326  0.00  0.00     0.074 A 
HETATM   24  C   UNL     1       1.873  14.989  23.147  0.00  0.00    -0.028 A 
HETATM   25  C   UNL     1       0.661  14.358  23.458  0.00  0.00     0.026 A 
HETATM   26  C   UNL     1       3.154  14.502  23.758  0.00  0.00     0.051 C 
BRANCH  21  27
HETATM   27  O   UNL     1      -1.727  16.405  21.585  0.00  0.00    -0.360 OA
HETATM   28  H   UNL     1      -2.426  16.395  22.260  0.00  0.00     0.217 HD
ENDBRANCH  21  27
BRANCH  23  29
HETATM   29  O   UNL     1       3.024  16.744  22.052  0.00  0.00    -0.360 OA
HETATM   30  H   UNL     1       2.931  17.698  22.221  0.00  0.00     0.217 HD
ENDBRANCH  23  29
ENDBRANCH   1  20
BRANCH   4  31
HETATM   31  C   UNL     1      -4.278  11.874  24.897  0.00  0.00     0.273 C 
HETATM   32  O   UNL     1      -4.393  11.777  26.117  0.00  0.00    -0.266 OA
HETATM   33  N   UNL     1      -4.974  11.056  24.027  0.00  0.00    -0.356 N 
HETATM   34  H   UNL     1      -4.841  11.205  23.033  0.00  0.00     0.162 HD
BRANCH  33  35
HETATM   35  C   UNL     1      -5.907  10.045  24.487  0.00  0.00     0.118 C 
HETATM   36  C   UNL     1      -7.219  10.061  23.716  0.00  0.00     0.026 C 
ENDBRANCH  33  35
ENDBRANCH   4  31
TORSDOF 8
ENDMDL
