MODEL 1
REMARK VINA RESULT:    -9.218      0.000      0.000
REMARK INTER + INTRA:         -13.030
REMARK INTER:                 -11.951
REMARK INTRA:                  -1.079
REMARK UNBOUND:                -0.848
REMARK  6 active torsions:
REMARK  status: ('A' for Active; 'I' for Inactive)
REMARK    1  A    between atoms: N_6  and  C_7 
REMARK    2  A    between atoms: C_12  and  N_13 
REMARK       I    between atoms: N_13  and  C_15 
REMARK    3  A    between atoms: C_15  and  C_17 
REMARK    4  A    between atoms: C_19  and  O_20 
REMARK    5  A    between atoms: C_27  and  C_28 
REMARK    6  A    between atoms: C_28  and  C_29 
ROOT
HETATM    1  C   UNL     1       8.929  10.743  23.270  0.00  0.00     0.066 C 
HETATM    2  C   UNL     1       8.664  11.684  24.288  0.00  0.00     0.035 C 
HETATM    3  C   UNL     1      10.275  10.431  22.993  0.00  0.00     0.083 C 
HETATM    4  C   UNL     1      11.339  11.095  23.620  0.00  0.00     0.069 C 
HETATM    5  C   UNL     1      11.010  12.151  24.475  0.00  0.00     0.065 A 
HETATM    6  C   UNL     1       9.702  12.492  24.797  0.00  0.00     0.020 A 
HETATM    7  N   UNL     1      11.786  13.032  25.172  0.00  0.00    -0.277 N 
HETATM    8  H   UNL     1      12.798  13.051  25.225  0.00  0.00     0.189 HD
HETATM    9  N   UNL     1      11.095  13.988  25.816  0.00  0.00    -0.178 NA
HETATM   10  C   UNL     1       9.806  13.694  25.574  0.00  0.00     0.071 A 
ENDROOT
BRANCH   1  11
HETATM   11  C   UNL     1       7.840  10.089  22.441  0.00  0.00     0.260 C 
HETATM   12  N   UNL     1       7.281  10.742  21.294  0.00  0.00    -0.318 N 
HETATM   13  C   UNL     1       7.710  12.088  20.903  0.00  0.00     0.159 C 
HETATM   14  O   UNL     1       7.585   8.931  22.779  0.00  0.00    -0.267 OA
BRANCH  12  15
HETATM   15  C   UNL     1       6.295  10.093  20.440  0.00  0.00     0.037 A 
HETATM   16  C   UNL     1       6.064  10.522  19.124  0.00  0.00     0.032 A 
HETATM   17  C   UNL     1       5.181   9.865  18.251  0.00  0.00     0.031 A 
HETATM   18  C   UNL     1       4.469   8.735  18.633  0.00  0.00     0.030 A 
HETATM   19  C   UNL     1       4.630   8.357  19.973  0.00  0.00     0.031 A 
HETATM   20  C   UNL     1       5.520   9.008  20.854  0.00  0.00     0.032 A 
BRANCH  18  21
HETATM   21  N   UNL     1       3.629   8.052  17.772  0.00  0.00    -0.381 N 
HETATM   22  C   UNL     1       2.383   7.410  18.207  0.00  0.00     0.123 C 
HETATM   23  C   UNL     1       2.249   6.071  17.477  0.00  0.00     0.020 C 
HETATM   24  C   UNL     1       2.371   6.226  15.961  0.00  0.00     0.003 C 
HETATM   25  C   UNL     1       3.619   7.025  15.580  0.00  0.00     0.020 C 
HETATM   26  C   UNL     1       3.660   8.351  16.334  0.00  0.00     0.123 C 
ENDBRANCH  18  21
ENDBRANCH  12  15
ENDBRANCH   1  11
BRANCH   3  27
HETATM   27  O   UNL     1      10.660   9.465  22.094  0.00  0.00    -0.360 OA
HETATM   28  H   UNL     1       9.867   9.202  21.574  0.00  0.00     0.217 HD
ENDBRANCH   3  27
BRANCH  10  29
HETATM   29  C   UNL     1       8.736  14.621  26.110  0.00  0.00     0.100 C 
BRANCH  29  30
HETATM   30  C   UNL     1       7.739  15.033  25.025  0.00  0.00    -0.052 A 
HETATM   31  C   UNL     1       8.119  15.335  23.709  0.00  0.00     0.007 A 
HETATM   32  C   UNL     1       7.177  15.711  22.750  0.00  0.00     0.001 A 
HETATM   33  C   UNL     1       5.840  15.883  23.103  0.00  0.00     0.007 A 
HETATM   34  C   UNL     1       5.444  15.715  24.437  0.00  0.00    -0.061 A 
HETATM   35  C   UNL     1       6.385  15.255  25.378  0.00  0.00     0.014 A 
HETATM   36  C   UNL     1       4.019  16.042  24.805  0.00  0.00     0.048 C 
ENDBRANCH  29  30
ENDBRANCH  10  29
TORSDOF 6
ENDMDL
MODEL 2
REMARK VINA RESULT:    -8.807      4.429      6.282
REMARK INTER + INTRA:         -12.487
REMARK INTER:                 -11.172
REMARK INTRA:                  -1.314
REMARK UNBOUND:                -0.848
REMARK  6 active torsions:
REMARK  status: ('A' for Active; 'I' for Inactive)
REMARK    1  A    between atoms: N_6  and  C_7 
REMARK    2  A    between atoms: C_12  and  N_13 
REMARK       I    between atoms: N_13  and  C_15 
REMARK    3  A    between atoms: C_15  and  C_17 
REMARK    4  A    between atoms: C_19  and  O_20 
REMARK    5  A    between atoms: C_27  and  C_28 
REMARK    6  A    between atoms: C_28  and  C_29 
ROOT
HETATM    1  C   UNL     1       8.650  14.719  25.144  0.00  0.00     0.066 C 
HETATM    2  C   UNL     1       9.606  14.534  24.122  0.00  0.00     0.035 C 
HETATM    3  C   UNL     1       9.101  15.188  26.394  0.00  0.00     0.083 C 
HETATM    4  C   UNL     1      10.462  15.373  26.674  0.00  0.00     0.069 C 
HETATM    5  C   UNL     1      11.371  14.986  25.684  0.00  0.00     0.065 A 
HETATM    6  C   UNL     1      10.983  14.533  24.429  0.00  0.00     0.020 A 
HETATM    7  N   UNL     1      12.735  14.963  25.661  0.00  0.00    -0.277 N 
HETATM    8  H   UNL     1      13.368  15.279  26.387  0.00  0.00     0.189 HD
HETATM    9  N   UNL     1      13.261  14.421  24.549  0.00  0.00    -0.178 NA
HETATM   10  C   UNL     1      12.197  14.119  23.786  0.00  0.00     0.071 A 
ENDROOT
BRANCH   1  11
HETATM   11  C   UNL     1       7.177  14.401  24.970  0.00  0.00     0.260 C 
HETATM   12  N   UNL     1       6.414  14.961  23.892  0.00  0.00    -0.318 N 
HETATM   13  C   UNL     1       7.019  15.897  22.941  0.00  0.00     0.159 C 
HETATM   14  O   UNL     1       6.755  13.549  25.756  0.00  0.00    -0.267 OA
BRANCH  12  15
HETATM   15  C   UNL     1       5.022  14.600  23.664  0.00  0.00     0.037 A 
HETATM   16  C   UNL     1       3.974  15.239  24.346  0.00  0.00     0.032 A 
HETATM   17  C   UNL     1       2.620  14.972  24.087  0.00  0.00     0.031 A 
HETATM   18  C   UNL     1       2.219  14.048  23.130  0.00  0.00     0.030 A 
HETATM   19  C   UNL     1       3.262  13.345  22.510  0.00  0.00     0.031 A 
HETATM   20  C   UNL     1       4.625  13.613  22.760  0.00  0.00     0.032 A 
BRANCH  18  21
HETATM   21  N   UNL     1       0.890  13.805  22.833  0.00  0.00    -0.381 N 
HETATM   22  C   UNL     1      -0.160  13.731  23.856  0.00  0.00     0.123 C 
HETATM   23  C   UNL     1      -1.116  12.594  23.488  0.00  0.00     0.020 C 
HETATM   24  C   UNL     1      -1.647  12.728  22.061  0.00  0.00     0.003 C 
HETATM   25  C   UNL     1      -0.511  12.941  21.059  0.00  0.00     0.020 C 
HETATM   26  C   UNL     1       0.376  14.105  21.491  0.00  0.00     0.123 C 
ENDBRANCH  18  21
ENDBRANCH  12  15
ENDBRANCH   1  11
BRANCH   3  27
HETATM   27  O   UNL     1       8.261  15.497  27.436  0.00  0.00    -0.360 OA
HETATM   28  H   UNL     1       8.194  16.478  27.491  0.00  0.00     0.217 HD
ENDBRANCH   3  27
BRANCH  10  29
HETATM   29  C   UNL     1      12.426  13.422  22.461  0.00  0.00     0.100 C 
BRANCH  29  30
HETATM   30  C   UNL     1      11.215  12.592  22.034  0.00  0.00    -0.052 A 
HETATM   31  C   UNL     1      10.312  13.004  21.043  0.00  0.00     0.007 A 
HETATM   32  C   UNL     1       9.216  12.215  20.687  0.00  0.00     0.001 A 
HETATM   33  C   UNL     1       8.943  11.034  21.375  0.00  0.00     0.007 A 
HETATM   34  C   UNL     1       9.749  10.654  22.455  0.00  0.00    -0.061 A 
HETATM   35  C   UNL     1      10.898  11.412  22.752  0.00  0.00     0.014 A 
HETATM   36  C   UNL     1       9.342   9.445  23.259  0.00  0.00     0.048 C 
ENDBRANCH  29  30
ENDBRANCH  10  29
TORSDOF 6
ENDMDL
MODEL 3
REMARK VINA RESULT:    -8.762      2.898      4.108
REMARK INTER + INTRA:         -12.427
REMARK INTER:                 -11.487
REMARK INTRA:                  -0.940
REMARK UNBOUND:                -0.848
REMARK  6 active torsions:
REMARK  status: ('A' for Active; 'I' for Inactive)
REMARK    1  A    between atoms: N_6  and  C_7 
REMARK    2  A    between atoms: C_12  and  N_13 
REMARK       I    between atoms: N_13  and  C_15 
REMARK    3  A    between atoms: C_15  and  C_17 
REMARK    4  A    between atoms: C_19  and  O_20 
REMARK    5  A    between atoms: C_27  and  C_28 
REMARK    6  A    between atoms: C_28  and  C_29 
ROOT
HETATM    1  C   UNL     1       6.364  12.204  20.814  0.00  0.00     0.066 C 
HETATM    2  C   UNL     1       5.578  12.919  21.744  0.00  0.00     0.035 C 
HETATM    3  C   UNL     1       7.752  12.448  20.796  0.00  0.00     0.083 C 
HETATM    4  C   UNL     1       8.344  13.439  21.591  0.00  0.00     0.069 C 
HETATM    5  C   UNL     1       7.486  14.244  22.345  0.00  0.00     0.065 A 
HETATM    6  C   UNL     1       6.113  14.039  22.414  0.00  0.00     0.020 A 
HETATM    7  N   UNL     1       7.722  15.321  23.150  0.00  0.00    -0.277 N 
HETATM    8  H   UNL     1       8.620  15.726  23.387  0.00  0.00     0.189 HD
HETATM    9  N   UNL     1       6.612  15.905  23.633  0.00  0.00    -0.178 NA
HETATM   10  C   UNL     1       5.603  15.149  23.167  0.00  0.00     0.071 A 
ENDROOT
BRANCH   1  11
HETATM   11  C   UNL     1       5.780  11.221  19.816  0.00  0.00     0.260 C 
HETATM   12  N   UNL     1       5.824   9.807  20.048  0.00  0.00    -0.318 N 
HETATM   13  C   UNL     1       6.474   9.253  21.239  0.00  0.00     0.159 C 
HETATM   14  O   UNL     1       5.183  11.758  18.880  0.00  0.00    -0.267 OA
BRANCH  12  15
HETATM   15  C   UNL     1       5.196   8.857  19.140  0.00  0.00     0.037 A 
HETATM   16  C   UNL     1       5.581   8.760  17.793  0.00  0.00     0.032 A 
HETATM   17  C   UNL     1       5.053   7.799  16.916  0.00  0.00     0.031 A 
HETATM   18  C   UNL     1       4.104   6.869  17.324  0.00  0.00     0.030 A 
HETATM   19  C   UNL     1       3.653   7.020  18.642  0.00  0.00     0.031 A 
HETATM   20  C   UNL     1       4.185   7.979  19.531  0.00  0.00     0.032 A 
BRANCH  18  21
HETATM   21  N   UNL     1       3.607   5.889  16.483  0.00  0.00    -0.381 N 
HETATM   22  C   UNL     1       3.326   4.518  16.927  0.00  0.00     0.123 C 
HETATM   23  C   UNL     1       3.765   3.553  15.822  0.00  0.00     0.020 C 
HETATM   24  C   UNL     1       3.147   3.907  14.469  0.00  0.00     0.003 C 
HETATM   25  C   UNL     1       3.355   5.385  14.130  0.00  0.00     0.020 C 
HETATM   26  C   UNL     1       2.871   6.273  15.272  0.00  0.00     0.123 C 
ENDBRANCH  18  21
ENDBRANCH  12  15
ENDBRANCH   1  11
BRANCH   3  27
HETATM   27  O   UNL     1       8.634  11.750  20.007  0.00  0.00    -0.360 OA
HETATM   28  H   UNL     1       9.344  11.394  20.589  0.00  0.00     0.217 HD
ENDBRANCH   3  27
BRANCH  10  29
HETATM   29  C   UNL     1       4.180  15.565  23.475  0.00  0.00     0.100 C 
BRANCH  29  30
HETATM   30  C   UNL     1       3.213  14.380  23.419  0.00  0.00    -0.052 A 
HETATM   31  C   UNL     1       3.386  13.212  24.175  0.00  0.00     0.007 A 
HETATM   32  C   UNL     1       2.481  12.152  24.089  0.00  0.00     0.001 A 
HETATM   33  C   UNL     1       1.427  12.195  23.179  0.00  0.00     0.007 A 
HETATM   34  C   UNL     1       1.295  13.291  22.316  0.00  0.00    -0.061 A 
HETATM   35  C   UNL     1       2.163  14.390  22.468  0.00  0.00     0.014 A 
HETATM   36  C   UNL     1       0.226  13.239  21.254  0.00  0.00     0.048 C 
ENDBRANCH  29  30
ENDBRANCH  10  29
TORSDOF 6
ENDMDL
MODEL 4
REMARK VINA RESULT:    -8.750      1.584      2.073
REMARK INTER + INTRA:         -12.411
REMARK INTER:                 -10.993
REMARK INTRA:                  -1.418
REMARK UNBOUND:                -0.848
REMARK  6 active torsions:
REMARK  status: ('A' for Active; 'I' for Inactive)
REMARK    1  A    between atoms: N_6  and  C_7 
REMARK    2  A    between atoms: C_12  and  N_13 
REMARK       I    between atoms: N_13  and  C_15 
REMARK    3  A    between atoms: C_15  and  C_17 
REMARK    4  A    between atoms: C_19  and  O_20 
REMARK    5  A    between atoms: C_27  and  C_28 
REMARK    6  A    between atoms: C_28  and  C_29 
ROOT
HETATM    1  C   UNL     1       9.768  12.427  22.606  0.00  0.00     0.066 C 
HETATM    2  C   UNL     1       9.472  12.934  23.890  0.00  0.00     0.035 C 
HETATM    3  C   UNL     1      10.924  12.907  21.958  0.00  0.00     0.083 C 
HETATM    4  C   UNL     1      11.714  13.929  22.502  0.00  0.00     0.069 C 
HETATM    5  C   UNL     1      11.257  14.523  23.682  0.00  0.00     0.065 A 
HETATM    6  C   UNL     1      10.134  14.081  24.372  0.00  0.00     0.020 A 
HETATM    7  N   UNL     1      11.735  15.568  24.419  0.00  0.00    -0.277 N 
HETATM    8  H   UNL     1      12.578  16.104  24.250  0.00  0.00     0.189 HD
HETATM    9  N   UNL     1      10.953  15.919  25.454  0.00  0.00    -0.178 NA
HETATM   10  C   UNL     1       9.941  15.035  25.427  0.00  0.00     0.071 A 
ENDROOT
BRANCH   1  11
HETATM   11  C   UNL     1       8.884  11.429  21.883  0.00  0.00     0.260 C 
HETATM   12  N   UNL     1       7.590  11.797  21.390  0.00  0.00    -0.318 N 
HETATM   13  C   UNL     1       7.052  13.144  21.603  0.00  0.00     0.159 C 
HETATM   14  O   UNL     1       9.430  10.343  21.672  0.00  0.00    -0.267 OA
BRANCH  12  15
HETATM   15  C   UNL     1       6.765  10.874  20.622  0.00  0.00     0.037 A 
HETATM   16  C   UNL     1       6.416  11.134  19.287  0.00  0.00     0.032 A 
HETATM   17  C   UNL     1       5.694  10.226  18.497  0.00  0.00     0.031 A 
HETATM   18  C   UNL     1       5.269   8.996  18.985  0.00  0.00     0.030 A 
HETATM   19  C   UNL     1       5.538   8.772  20.342  0.00  0.00     0.031 A 
HETATM   20  C   UNL     1       6.271   9.677  21.141  0.00  0.00     0.032 A 
BRANCH  18  21
HETATM   21  N   UNL     1       4.594   8.073  18.206  0.00  0.00    -0.381 N 
HETATM   22  C   UNL     1       5.190   7.427  17.031  0.00  0.00     0.123 C 
HETATM   23  C   UNL     1       4.123   7.336  15.936  0.00  0.00     0.020 C 
HETATM   24  C   UNL     1       2.843   6.664  16.434  0.00  0.00     0.003 C 
HETATM   25  C   UNL     1       2.351   7.295  17.738  0.00  0.00     0.020 C 
HETATM   26  C   UNL     1       3.468   7.323  18.777  0.00  0.00     0.123 C 
ENDBRANCH  18  21
ENDBRANCH  12  15
ENDBRANCH   1  11
BRANCH   3  27
HETATM   27  O   UNL     1      11.372  12.425  20.752  0.00  0.00    -0.360 OA
HETATM   28  H   UNL     1      10.641  12.518  20.098  0.00  0.00     0.217 HD
ENDBRANCH   3  27
BRANCH  10  29
HETATM   29  C   UNL     1       8.823  15.179  26.438  0.00  0.00     0.100 C 
BRANCH  29  30
HETATM   30  C   UNL     1       7.486  14.677  25.887  0.00  0.00    -0.052 A 
HETATM   31  C   UNL     1       7.033  13.361  26.054  0.00  0.00     0.007 A 
HETATM   32  C   UNL     1       5.807  12.944  25.531  0.00  0.00     0.001 A 
HETATM   33  C   UNL     1       5.043  13.807  24.749  0.00  0.00     0.007 A 
HETATM   34  C   UNL     1       5.523  15.090  24.453  0.00  0.00    -0.061 A 
HETATM   35  C   UNL     1       6.719  15.528  25.054  0.00  0.00     0.014 A 
HETATM   36  C   UNL     1       4.733  15.944  23.494  0.00  0.00     0.048 C 
ENDBRANCH  29  30
ENDBRANCH  10  29
TORSDOF 6
ENDMDL
MODEL 5
REMARK VINA RESULT:    -8.707      1.694      2.494
REMARK INTER + INTRA:         -12.355
REMARK INTER:                 -11.493
REMARK INTRA:                  -0.862
REMARK UNBOUND:                -0.848
REMARK  6 active torsions:
REMARK  status: ('A' for Active; 'I' for Inactive)
REMARK    1  A    between atoms: N_6  and  C_7 
REMARK    2  A    between atoms: C_12  and  N_13 
REMARK       I    between atoms: N_13  and  C_15 
REMARK    3  A    between atoms: C_15  and  C_17 
REMARK    4  A    between atoms: C_19  and  O_20 
REMARK    5  A    between atoms: C_27  and  C_28 
REMARK    6  A    between atoms: C_28  and  C_29 
ROOT
HETATM    1  C   UNL     1       7.345  10.384  22.313  0.00  0.00     0.066 C 
HETATM    2  C   UNL     1       7.032  11.744  22.519  0.00  0.00     0.035 C 
HETATM    3  C   UNL     1       8.502   9.871  22.933  0.00  0.00     0.083 C 
HETATM    4  C   UNL     1       9.387  10.689  23.650  0.00  0.00     0.069 C 
HETATM    5  C   UNL     1       9.122  12.061  23.652  0.00  0.00     0.065 A 
HETATM    6  C   UNL     1       7.990  12.619  23.071  0.00  0.00     0.020 A 
HETATM    7  N   UNL     1       9.806  13.119  24.178  0.00  0.00    -0.277 N 
HETATM    8  H   UNL     1      10.658  13.089  24.727  0.00  0.00     0.189 HD
HETATM    9  N   UNL     1       9.281  14.320  23.883  0.00  0.00    -0.178 NA
HETATM   10  C   UNL     1       8.174  14.039  23.173  0.00  0.00     0.071 A 
ENDROOT
BRANCH   1  11
HETATM   11  C   UNL     1       6.521   9.466  21.429  0.00  0.00     0.260 C 
HETATM   12  N   UNL     1       6.254   9.791  20.059  0.00  0.00    -0.318 N 
HETATM   13  C   UNL     1       6.732  11.045  19.470  0.00  0.00     0.159 C 
HETATM   14  O   UNL     1       6.219   8.397  21.966  0.00  0.00    -0.267 OA
BRANCH  12  15
HETATM   15  C   UNL     1       5.535   8.882  19.176  0.00  0.00     0.037 A 
HETATM   16  C   UNL     1       5.893   8.729  17.828  0.00  0.00     0.032 A 
HETATM   17  C   UNL     1       5.274   7.801  16.975  0.00  0.00     0.031 A 
HETATM   18  C   UNL     1       4.254   6.962  17.410  0.00  0.00     0.030 A 
HETATM   19  C   UNL     1       3.835   7.175  18.731  0.00  0.00     0.031 A 
HETATM   20  C   UNL     1       4.458   8.100  19.596  0.00  0.00     0.032 A 
BRANCH  18  21
HETATM   21  N   UNL     1       3.664   6.014  16.594  0.00  0.00    -0.381 N 
HETATM   22  C   UNL     1       3.304   4.668  17.058  0.00  0.00     0.123 C 
HETATM   23  C   UNL     1       3.640   3.668  15.948  0.00  0.00     0.020 C 
HETATM   24  C   UNL     1       3.006   4.056  14.612  0.00  0.00     0.003 C 
HETATM   25  C   UNL     1       3.304   5.513  14.254  0.00  0.00     0.020 C 
HETATM   26  C   UNL     1       2.919   6.440  15.403  0.00  0.00     0.123 C 
ENDBRANCH  18  21
ENDBRANCH  12  15
ENDBRANCH   1  11
BRANCH   3  27
HETATM   27  O   UNL     1       8.863   8.546  22.888  0.00  0.00    -0.360 OA
HETATM   28  H   UNL     1       9.317   8.385  22.029  0.00  0.00     0.217 HD
ENDBRANCH   3  27
BRANCH  10  29
HETATM   29  C   UNL     1       7.356  15.185  22.616  0.00  0.00     0.100 C 
BRANCH  29  30
HETATM   30  C   UNL     1       5.958  15.243  23.236  0.00  0.00    -0.052 A 
HETATM   31  C   UNL     1       5.673  15.935  24.421  0.00  0.00     0.007 A 
HETATM   32  C   UNL     1       4.383  15.959  24.955  0.00  0.00     0.001 A 
HETATM   33  C   UNL     1       3.361  15.218  24.365  0.00  0.00     0.007 A 
HETATM   34  C   UNL     1       3.637  14.412  23.252  0.00  0.00    -0.061 A 
HETATM   35  C   UNL     1       4.920  14.460  22.674  0.00  0.00     0.014 A 
HETATM   36  C   UNL     1       2.540  13.521  22.727  0.00  0.00     0.048 C 
ENDBRANCH  29  30
ENDBRANCH  10  29
TORSDOF 6
ENDMDL
MODEL 6
REMARK VINA RESULT:    -8.691      6.125      8.220
REMARK INTER + INTRA:         -12.334
REMARK INTER:                 -10.932
REMARK INTRA:                  -1.402
REMARK UNBOUND:                -0.848
REMARK  6 active torsions:
REMARK  status: ('A' for Active; 'I' for Inactive)
REMARK    1  A    between atoms: N_6  and  C_7 
REMARK    2  A    between atoms: C_12  and  N_13 
REMARK       I    between atoms: N_13  and  C_15 
REMARK    3  A    between atoms: C_15  and  C_17 
REMARK    4  A    between atoms: C_19  and  O_20 
REMARK    5  A    between atoms: C_27  and  C_28 
REMARK    6  A    between atoms: C_28  and  C_29 
ROOT
HETATM    1  C   UNL     1       5.516   8.745  23.133  0.00  0.00     0.066 C 
HETATM    2  C   UNL     1       6.432   9.800  22.932  0.00  0.00     0.035 C 
HETATM    3  C   UNL     1       4.971   8.118  21.994  0.00  0.00     0.083 C 
HETATM    4  C   UNL     1       5.233   8.574  20.695  0.00  0.00     0.069 C 
HETATM    5  C   UNL     1       5.992   9.742  20.574  0.00  0.00     0.065 A 
HETATM    6  C   UNL     1       6.566  10.393  21.659  0.00  0.00     0.020 A 
HETATM    7  N   UNL     1       6.359  10.480  19.486  0.00  0.00    -0.277 N 
HETATM    8  H   UNL     1       6.167  10.275  18.512  0.00  0.00     0.189 HD
HETATM    9  N   UNL     1       7.014  11.615  19.782  0.00  0.00    -0.178 NA
HETATM   10  C   UNL     1       7.127  11.599  21.122  0.00  0.00     0.071 A 
ENDROOT
BRANCH   1  11
HETATM   11  C   UNL     1       5.065   8.288  24.507  0.00  0.00     0.260 C 
HETATM   12  N   UNL     1       3.959   8.909  25.176  0.00  0.00    -0.318 N 
HETATM   13  C   UNL     1       3.248  10.041  24.574  0.00  0.00     0.159 C 
HETATM   14  O   UNL     1       5.655   7.285  24.916  0.00  0.00    -0.267 OA
BRANCH  12  15
HETATM   15  C   UNL     1       3.463   8.427  26.457  0.00  0.00     0.037 A 
HETATM   16  C   UNL     1       2.271   7.692  26.556  0.00  0.00     0.032 A 
HETATM   17  C   UNL     1       1.811   7.144  27.764  0.00  0.00     0.031 A 
HETATM   18  C   UNL     1       2.509   7.292  28.956  0.00  0.00     0.030 A 
HETATM   19  C   UNL     1       3.651   8.100  28.878  0.00  0.00     0.031 A 
HETATM   20  C   UNL     1       4.124   8.648  27.666  0.00  0.00     0.032 A 
BRANCH  18  21
HETATM   21  N   UNL     1       2.090   6.722  30.145  0.00  0.00    -0.381 N 
HETATM   22  C   UNL     1       2.878   5.722  30.876  0.00  0.00     0.123 C 
HETATM   23  C   UNL     1       1.922   4.658  31.423  0.00  0.00     0.020 C 
HETATM   24  C   UNL     1       0.784   5.272  32.239  0.00  0.00     0.003 C 
HETATM   25  C   UNL     1       0.093   6.402  31.474  0.00  0.00     0.020 C 
HETATM   26  C   UNL     1       1.114   7.425  30.987  0.00  0.00     0.123 C 
ENDBRANCH  18  21
ENDBRANCH  12  15
ENDBRANCH   1  11
BRANCH   3  27
HETATM   27  O   UNL     1       4.145   7.021  22.055  0.00  0.00    -0.360 OA
HETATM   28  H   UNL     1       4.129   6.705  22.987  0.00  0.00     0.217 HD
ENDBRANCH   3  27
BRANCH  10  29
HETATM   29  C   UNL     1       7.773  12.783  21.811  0.00  0.00     0.100 C 
BRANCH  29  30
HETATM   30  C   UNL     1       6.734  13.772  22.343  0.00  0.00    -0.052 A 
HETATM   31  C   UNL     1       7.073  14.998  22.932  0.00  0.00     0.007 A 
HETATM   32  C   UNL     1       6.091  15.870  23.408  0.00  0.00     0.001 A 
HETATM   33  C   UNL     1       4.748  15.499  23.389  0.00  0.00     0.007 A 
HETATM   34  C   UNL     1       4.382  14.229  22.926  0.00  0.00    -0.061 A 
HETATM   35  C   UNL     1       5.369  13.392  22.371  0.00  0.00     0.014 A 
HETATM   36  C   UNL     1       2.938  13.814  23.048  0.00  0.00     0.048 C 
ENDBRANCH  29  30
ENDBRANCH  10  29
TORSDOF 6
ENDMDL
MODEL 7
REMARK VINA RESULT:    -8.673      2.712      4.718
REMARK INTER + INTRA:         -12.310
REMARK INTER:                 -11.462
REMARK INTRA:                  -0.848
REMARK UNBOUND:                -0.848
REMARK  6 active torsions:
REMARK  status: ('A' for Active; 'I' for Inactive)
REMARK    1  A    between atoms: N_6  and  C_7 
REMARK    2  A    between atoms: C_12  and  N_13 
REMARK       I    between atoms: N_13  and  C_15 
REMARK    3  A    between atoms: C_15  and  C_17 
REMARK    4  A    between atoms: C_19  and  O_20 
REMARK    5  A    between atoms: C_27  and  C_28 
REMARK    6  A    between atoms: C_28  and  C_29 
ROOT
HETATM    1  C   UNL     1       6.111  11.631  20.640  0.00  0.00     0.066 C 
HETATM    2  C   UNL     1       7.415  11.890  21.114  0.00  0.00     0.035 C 
HETATM    3  C   UNL     1       5.041  12.322  21.241  0.00  0.00     0.083 C 
HETATM    4  C   UNL     1       5.225  13.166  22.345  0.00  0.00     0.069 C 
HETATM    5  C   UNL     1       6.512  13.228  22.888  0.00  0.00     0.065 A 
HETATM    6  C   UNL     1       7.606  12.581  22.328  0.00  0.00     0.020 A 
HETATM    7  N   UNL     1       7.008  13.877  23.982  0.00  0.00    -0.277 N 
HETATM    8  H   UNL     1       6.507  14.499  24.607  0.00  0.00     0.189 HD
HETATM    9  N   UNL     1       8.297  13.609  24.247  0.00  0.00    -0.178 NA
HETATM   10  C   UNL     1       8.681  12.785  23.257  0.00  0.00     0.071 A 
ENDROOT
BRANCH   1  11
HETATM   11  C   UNL     1       5.810  10.622  19.548  0.00  0.00     0.260 C 
HETATM   12  N   UNL     1       5.228   9.347  19.850  0.00  0.00    -0.318 N 
HETATM   13  C   UNL     1       4.941   8.952  21.232  0.00  0.00     0.159 C 
HETATM   14  O   UNL     1       6.003  11.049  18.407  0.00  0.00    -0.267 OA
BRANCH  12  15
HETATM   15  C   UNL     1       4.856   8.401  18.807  0.00  0.00     0.037 A 
HETATM   16  C   UNL     1       5.399   7.107  18.759  0.00  0.00     0.032 A 
HETATM   17  C   UNL     1       4.999   6.147  17.815  0.00  0.00     0.031 A 
HETATM   18  C   UNL     1       4.030   6.413  16.855  0.00  0.00     0.030 A 
HETATM   19  C   UNL     1       3.552   7.731  16.844  0.00  0.00     0.031 A 
HETATM   20  C   UNL     1       3.944   8.699  17.794  0.00  0.00     0.032 A 
BRANCH  18  21
HETATM   21  N   UNL     1       3.595   5.464  15.947  0.00  0.00    -0.381 N 
HETATM   22  C   UNL     1       3.344   4.064  16.308  0.00  0.00     0.123 C 
HETATM   23  C   UNL     1       3.852   3.173  15.171  0.00  0.00     0.020 C 
HETATM   24  C   UNL     1       3.271   3.580  13.817  0.00  0.00     0.003 C 
HETATM   25  C   UNL     1       3.442   5.079  13.562  0.00  0.00     0.020 C 
HETATM   26  C   UNL     1       2.889   5.889  14.731  0.00  0.00     0.123 C 
ENDBRANCH  18  21
ENDBRANCH  12  15
ENDBRANCH   1  11
BRANCH   3  27
HETATM   27  O   UNL     1       3.740  12.230  20.809  0.00  0.00    -0.360 OA
HETATM   28  H   UNL     1       3.324  13.118  20.907  0.00  0.00     0.217 HD
ENDBRANCH   3  27
BRANCH  10  29
HETATM   29  C   UNL     1      10.089  12.227  23.280  0.00  0.00     0.100 C 
BRANCH  29  30
HETATM   30  C   UNL     1      11.122  13.295  23.645  0.00  0.00    -0.052 A 
HETATM   31  C   UNL     1      11.611  14.234  22.727  0.00  0.00     0.007 A 
HETATM   32  C   UNL     1      12.558  15.190  23.102  0.00  0.00     0.001 A 
HETATM   33  C   UNL     1      13.107  15.175  24.382  0.00  0.00     0.007 A 
HETATM   34  C   UNL     1      12.737  14.172  25.288  0.00  0.00    -0.061 A 
HETATM   35  C   UNL     1      11.722  13.265  24.928  0.00  0.00     0.014 A 
HETATM   36  C   UNL     1      13.453  14.108  26.613  0.00  0.00     0.048 C 
ENDBRANCH  29  30
ENDBRANCH  10  29
TORSDOF 6
ENDMDL
MODEL 8
REMARK VINA RESULT:    -8.634      5.124      7.004
REMARK INTER + INTRA:         -12.259
REMARK INTER:                 -11.143
REMARK INTRA:                  -1.116
REMARK UNBOUND:                -0.848
REMARK  6 active torsions:
REMARK  status: ('A' for Active; 'I' for Inactive)
REMARK    1  A    between atoms: N_6  and  C_7 
REMARK    2  A    between atoms: C_12  and  N_13 
REMARK       I    between atoms: N_13  and  C_15 
REMARK    3  A    between atoms: C_15  and  C_17 
REMARK    4  A    between atoms: C_19  and  O_20 
REMARK    5  A    between atoms: C_27  and  C_28 
REMARK    6  A    between atoms: C_28  and  C_29 
ROOT
HETATM    1  C   UNL     1       5.884  13.153  23.715  0.00  0.00     0.066 C 
HETATM    2  C   UNL     1       7.231  12.885  23.389  0.00  0.00     0.035 C 
HETATM    3  C   UNL     1       5.371  14.429  23.403  0.00  0.00     0.083 C 
HETATM    4  C   UNL     1       6.178  15.450  22.882  0.00  0.00     0.069 C 
HETATM    5  C   UNL     1       7.545  15.180  22.765  0.00  0.00     0.065 A 
HETATM    6  C   UNL     1       8.102  13.938  23.042  0.00  0.00     0.020 A 
HETATM    7  N   UNL     1       8.596  15.959  22.374  0.00  0.00    -0.277 N 
HETATM    8  H   UNL     1       8.561  16.916  22.042  0.00  0.00     0.189 HD
HETATM    9  N   UNL     1       9.797  15.368  22.492  0.00  0.00    -0.178 NA
HETATM   10  C   UNL     1       9.521  14.128  22.932  0.00  0.00     0.071 A 
ENDROOT
BRANCH   1  11
HETATM   11  C   UNL     1       4.984  12.153  24.415  0.00  0.00     0.260 C 
HETATM   12  N   UNL     1       4.333  11.100  23.692  0.00  0.00    -0.318 N 
HETATM   13  C   UNL     1       4.479  10.975  22.239  0.00  0.00     0.159 C 
HETATM   14  O   UNL     1       4.969  12.271  25.642  0.00  0.00    -0.267 OA
BRANCH  12  15
HETATM   15  C   UNL     1       3.533  10.084  24.361  0.00  0.00     0.037 A 
HETATM   16  C   UNL     1       4.124   9.070  25.131  0.00  0.00     0.032 A 
HETATM   17  C   UNL     1       3.377   8.127  25.855  0.00  0.00     0.031 A 
HETATM   18  C   UNL     1       1.987   8.133  25.860  0.00  0.00     0.030 A 
HETATM   19  C   UNL     1       1.394   9.088  25.023  0.00  0.00     0.031 A 
HETATM   20  C   UNL     1       2.139  10.043  24.298  0.00  0.00     0.032 A 
BRANCH  18  21
HETATM   21  N   UNL     1       1.237   7.238  26.603  0.00  0.00    -0.381 N 
HETATM   22  C   UNL     1      -0.223   7.130  26.493  0.00  0.00     0.123 C 
HETATM   23  C   UNL     1      -0.799   6.927  27.897  0.00  0.00     0.020 C 
HETATM   24  C   UNL     1      -0.142   5.754  28.625  0.00  0.00     0.003 C 
HETATM   25  C   UNL     1       1.384   5.854  28.583  0.00  0.00     0.020 C 
HETATM   26  C   UNL     1       1.872   6.031  27.148  0.00  0.00     0.123 C 
ENDBRANCH  18  21
ENDBRANCH  12  15
ENDBRANCH   1  11
BRANCH   3  27
HETATM   27  O   UNL     1       4.055  14.781  23.582  0.00  0.00    -0.360 OA
HETATM   28  H   UNL     1       3.748  15.232  22.763  0.00  0.00     0.217 HD
ENDBRANCH   3  27
BRANCH  10  29
HETATM   29  C   UNL     1      10.671  13.192  23.237  0.00  0.00     0.100 C 
BRANCH  29  30
HETATM   30  C   UNL     1      11.722  13.849  24.133  0.00  0.00    -0.052 A 
HETATM   31  C   UNL     1      12.926  14.375  23.644  0.00  0.00     0.007 A 
HETATM   32  C   UNL     1      13.861  14.964  24.499  0.00  0.00     0.001 A 
HETATM   33  C   UNL     1      13.656  14.963  25.877  0.00  0.00     0.007 A 
HETATM   34  C   UNL     1      12.526  14.333  26.414  0.00  0.00    -0.061 A 
HETATM   35  C   UNL     1      11.550  13.816  25.539  0.00  0.00     0.014 A 
HETATM   36  C   UNL     1      12.409  14.233  27.913  0.00  0.00     0.048 C 
ENDBRANCH  29  30
ENDBRANCH  10  29
TORSDOF 6
ENDMDL
MODEL 9
REMARK VINA RESULT:    -8.619      2.732     10.026
REMARK INTER + INTRA:         -12.239
REMARK INTER:                 -10.644
REMARK INTRA:                  -1.595
REMARK UNBOUND:                -0.848
REMARK  6 active torsions:
REMARK  status: ('A' for Active; 'I' for Inactive)
REMARK    1  A    between atoms: N_6  and  C_7 
REMARK    2  A    between atoms: C_12  and  N_13 
REMARK       I    between atoms: N_13  and  C_15 
REMARK    3  A    between atoms: C_15  and  C_17 
REMARK    4  A    between atoms: C_19  and  O_20 
REMARK    5  A    between atoms: C_27  and  C_28 
REMARK    6  A    between atoms: C_28  and  C_29 
ROOT
HETATM    1  C   UNL     1       5.161   9.904  18.754  0.00  0.00     0.066 C 
HETATM    2  C   UNL     1       5.094   8.514  18.991  0.00  0.00     0.035 C 
HETATM    3  C   UNL     1       4.249  10.461  17.835  0.00  0.00     0.083 C 
HETATM    4  C   UNL     1       3.364   9.669  17.090  0.00  0.00     0.069 C 
HETATM    5  C   UNL     1       3.483   8.283  17.229  0.00  0.00     0.065 A 
HETATM    6  C   UNL     1       4.353   7.680  18.130  0.00  0.00     0.020 A 
HETATM    7  N   UNL     1       2.844   7.248  16.610  0.00  0.00    -0.277 N 
HETATM    8  H   UNL     1       2.097   7.308  15.927  0.00  0.00     0.189 HD
HETATM    9  N   UNL     1       3.309   6.032  16.941  0.00  0.00    -0.178 NA
HETATM   10  C   UNL     1       4.264   6.274  17.856  0.00  0.00     0.071 A 
ENDROOT
BRANCH   1  11
HETATM   11  C   UNL     1       6.187  10.810  19.408  0.00  0.00     0.260 C 
HETATM   12  N   UNL     1       6.148  11.090  20.813  0.00  0.00    -0.318 N 
HETATM   13  C   UNL     1       5.088  10.544  21.666  0.00  0.00     0.159 C 
HETATM   14  O   UNL     1       7.090  11.169  18.648  0.00  0.00    -0.267 OA
BRANCH  12  15
HETATM   15  C   UNL     1       7.173  11.891  21.469  0.00  0.00     0.037 A 
HETATM   16  C   UNL     1       8.365  11.318  21.939  0.00  0.00     0.032 A 
HETATM   17  C   UNL     1       9.406  12.076  22.500  0.00  0.00     0.031 A 
HETATM   18  C   UNL     1       9.327  13.458  22.630  0.00  0.00     0.030 A 
HETATM   19  C   UNL     1       8.103  14.021  22.244  0.00  0.00     0.031 A 
HETATM   20  C   UNL     1       7.055  13.266  21.673  0.00  0.00     0.032 A 
BRANCH  18  21
HETATM   21  N   UNL     1      10.361  14.222  23.141  0.00  0.00    -0.381 N 
HETATM   22  C   UNL     1      11.770  13.995  22.801  0.00  0.00     0.123 C 
HETATM   23  C   UNL     1      12.609  14.181  24.069  0.00  0.00     0.020 C 
HETATM   24  C   UNL     1      12.342  15.526  24.744  0.00  0.00     0.003 C 
HETATM   25  C   UNL     1      10.843  15.763  24.944  0.00  0.00     0.020 C 
HETATM   26  C   UNL     1      10.090  15.580  23.630  0.00  0.00     0.123 C 
ENDBRANCH  18  21
ENDBRANCH  12  15
ENDBRANCH   1  11
BRANCH   3  27
HETATM   27  O   UNL     1       4.149  11.809  17.588  0.00  0.00    -0.360 OA
HETATM   28  H   UNL     1       3.623  12.212  18.316  0.00  0.00     0.217 HD
ENDBRANCH   3  27
BRANCH  10  29
HETATM   29  C   UNL     1       5.053   5.107  18.410  0.00  0.00     0.100 C 
BRANCH  29  30
HETATM   30  C   UNL     1       5.277   5.231  19.919  0.00  0.00    -0.052 A 
HETATM   31  C   UNL     1       4.230   5.238  20.851  0.00  0.00     0.007 A 
HETATM   32  C   UNL     1       4.479   5.358  22.220  0.00  0.00     0.001 A 
HETATM   33  C   UNL     1       5.775   5.565  22.687  0.00  0.00     0.007 A 
HETATM   34  C   UNL     1       6.832   5.692  21.776  0.00  0.00    -0.061 A 
HETATM   35  C   UNL     1       6.583   5.486  20.405  0.00  0.00     0.014 A 
HETATM   36  C   UNL     1       8.195   6.051  22.310  0.00  0.00     0.048 C 
ENDBRANCH  29  30
ENDBRANCH  10  29
TORSDOF 6
ENDMDL
