MODEL 1
REMARK VINA RESULT:    -6.677      0.000      0.000
REMARK INTER + INTRA:          -8.853
REMARK INTER:                  -7.798
REMARK INTRA:                  -1.055
REMARK UNBOUND:                -1.005
REMARK  4 active torsions:
REMARK  status: ('A' for Active; 'I' for Inactive)
REMARK    1  A    between atoms: C_6  and  C_7 
REMARK    2  A    between atoms: C_10  and  O_11 
REMARK    3  A    between atoms: C_13  and  O_14 
REMARK    4  A    between atoms: N_15  and  C_16 
ROOT
HETATM    1  O   UNL     1       7.809  15.149  26.401  0.00  0.00    -0.245 OA
HETATM    2  C   UNL     1       8.133  14.506  25.414  0.00  0.00     0.349 A 
HETATM    3  N   UNL     1       9.355  13.878  25.250  0.00  0.00    -0.226 N 
HETATM    4  H   UNL     1      10.094  13.843  25.939  0.00  0.00     0.194 HD
HETATM    5  N   UNL     1       9.371  13.145  24.106  0.00  0.00    -0.151 NA
HETATM    6  C   UNL     1       8.197  13.348  23.555  0.00  0.00     0.172 A 
HETATM    7  N   UNL     1       7.391  14.179  24.293  0.00  0.00    -0.243 N 
ENDROOT
BRANCH   6   8
HETATM    8  C   UNL     1       7.877  12.722  22.245  0.00  0.00     0.045 A 
HETATM    9  C   UNL     1       7.010  11.610  22.289  0.00  0.00     0.021 A 
HETATM   10  C   UNL     1       6.632  10.935  21.125  0.00  0.00     0.037 A 
HETATM   11  C   UNL     1       7.115  11.380  19.903  0.00  0.00     0.068 A 
HETATM   12  C   UNL     1       7.989  12.459  19.831  0.00  0.00     0.074 A 
HETATM   13  C   UNL     1       8.402  13.102  21.005  0.00  0.00     0.082 A 
BRANCH  11  14
HETATM   14  O   UNL     1       6.771  10.761  18.738  0.00  0.00    -0.361 OA
HETATM   15  H   UNL     1       6.827  11.406  18.013  0.00  0.00     0.217 HD
ENDBRANCH  11  14
BRANCH  13  16
HETATM   16  O   UNL     1       9.367  14.062  20.912  0.00  0.00    -0.360 OA
HETATM   17  H   UNL     1      10.154  13.687  20.480  0.00  0.00     0.217 HD
ENDBRANCH  13  16
ENDBRANCH   6   8
BRANCH   7  18
HETATM   18  C   UNL     1       6.029  14.531  24.206  0.00  0.00     0.067 A 
HETATM   19  C   UNL     1       5.728  15.820  23.724  0.00  0.00     0.032 A 
HETATM   20  C   UNL     1       4.413  16.288  23.674  0.00  0.00     0.002 A 
HETATM   21  C   UNL     1       3.378  15.481  24.121  0.00  0.00     0.002 A 
HETATM   22  C   UNL     1       3.654  14.201  24.606  0.00  0.00     0.026 A 
HETATM   23  C   UNL     1       4.971  13.721  24.655  0.00  0.00     0.061 A 
HETATM   24 CL   UNL     1       5.218  12.192  25.417  0.00  0.00    -0.082 Cl
ENDBRANCH   7  18
TORSDOF 4
ENDMDL
MODEL 2
REMARK VINA RESULT:    -6.462      2.538      3.571
REMARK INTER + INTRA:          -8.601
REMARK INTER:                  -7.617
REMARK INTRA:                  -0.984
REMARK UNBOUND:                -1.005
REMARK  4 active torsions:
REMARK  status: ('A' for Active; 'I' for Inactive)
REMARK    1  A    between atoms: C_6  and  C_7 
REMARK    2  A    between atoms: C_10  and  O_11 
REMARK    3  A    between atoms: C_13  and  O_14 
REMARK    4  A    between atoms: N_15  and  C_16 
ROOT
HETATM    1  O   UNL     1       9.371  15.378  21.275  0.00  0.00    -0.245 OA
HETATM    2  C   UNL     1       8.897  14.268  21.082  0.00  0.00     0.349 A 
HETATM    3  N   UNL     1       9.353  13.373  20.131  0.00  0.00    -0.226 N 
HETATM    4  H   UNL     1      10.148  13.515  19.524  0.00  0.00     0.194 HD
HETATM    5  N   UNL     1       8.706  12.183  20.240  0.00  0.00    -0.151 NA
HETATM    6  C   UNL     1       7.841  12.353  21.213  0.00  0.00     0.172 A 
HETATM    7  N   UNL     1       7.893  13.608  21.767  0.00  0.00    -0.243 N 
ENDROOT
BRANCH   6   8
HETATM    8  C   UNL     1       6.918  11.248  21.583  0.00  0.00     0.045 A 
HETATM    9  C   UNL     1       5.541  11.540  21.498  0.00  0.00     0.021 A 
HETATM   10  C   UNL     1       4.573  10.584  21.819  0.00  0.00     0.037 A 
HETATM   11  C   UNL     1       4.982   9.320  22.218  0.00  0.00     0.068 A 
HETATM   12  C   UNL     1       6.333   9.010  22.332  0.00  0.00     0.074 A 
HETATM   13  C   UNL     1       7.298   9.987  22.055  0.00  0.00     0.082 A 
BRANCH  11  14
HETATM   14  O   UNL     1       4.079   8.350  22.534  0.00  0.00    -0.361 OA
HETATM   15  H   UNL     1       3.786   7.916  21.716  0.00  0.00     0.217 HD
ENDBRANCH  11  14
BRANCH  13  16
HETATM   16  O   UNL     1       8.607   9.695  22.314  0.00  0.00    -0.360 OA
HETATM   17  H   UNL     1       9.102   9.664  21.477  0.00  0.00     0.217 HD
ENDBRANCH  13  16
ENDBRANCH   6   8
BRANCH   7  18
HETATM   18  C   UNL     1       7.311  14.182  22.915  0.00  0.00     0.067 A 
HETATM   19  C   UNL     1       6.184  15.005  22.721  0.00  0.00     0.032 A 
HETATM   20  C   UNL     1       5.584  15.679  23.787  0.00  0.00     0.002 A 
HETATM   21  C   UNL     1       6.112  15.554  25.064  0.00  0.00     0.002 A 
HETATM   22  C   UNL     1       7.230  14.747  25.278  0.00  0.00     0.026 A 
HETATM   23  C   UNL     1       7.835  14.062  24.214  0.00  0.00     0.061 A 
HETATM   24 CL   UNL     1       9.302  13.220  24.560  0.00  0.00    -0.082 Cl
ENDBRANCH   7  18
TORSDOF 4
ENDMDL
MODEL 3
REMARK VINA RESULT:    -6.358      1.046      1.147
REMARK INTER + INTRA:          -8.478
REMARK INTER:                  -7.866
REMARK INTRA:                  -0.612
REMARK UNBOUND:                -1.005
REMARK  4 active torsions:
REMARK  status: ('A' for Active; 'I' for Inactive)
REMARK    1  A    between atoms: C_6  and  C_7 
REMARK    2  A    between atoms: C_10  and  O_11 
REMARK    3  A    between atoms: C_13  and  O_14 
REMARK    4  A    between atoms: N_15  and  C_16 
ROOT
HETATM    1  O   UNL     1       8.246  14.562  25.764  0.00  0.00    -0.245 OA
HETATM    2  C   UNL     1       8.286  13.939  24.713  0.00  0.00     0.349 A 
HETATM    3  N   UNL     1       9.362  13.179  24.290  0.00  0.00    -0.226 N 
HETATM    4  H   UNL     1      10.211  13.019  24.816  0.00  0.00     0.194 HD
HETATM    5  N   UNL     1       9.061  12.513  23.145  0.00  0.00    -0.151 NA
HETATM    6  C   UNL     1       7.838  12.884  22.847  0.00  0.00     0.172 A 
HETATM    7  N   UNL     1       7.304  13.764  23.755  0.00  0.00    -0.243 N 
ENDROOT
BRANCH   6   8
HETATM    8  C   UNL     1       7.191  12.371  21.610  0.00  0.00     0.045 A 
HETATM    9  C   UNL     1       5.784  12.278  21.642  0.00  0.00     0.021 A 
HETATM   10  C   UNL     1       5.060  11.812  20.542  0.00  0.00     0.037 A 
HETATM   11  C   UNL     1       5.744  11.446  19.392  0.00  0.00     0.068 A 
HETATM   12  C   UNL     1       7.131  11.506  19.339  0.00  0.00     0.074 A 
HETATM   13  C   UNL     1       7.856  11.929  20.461  0.00  0.00     0.082 A 
BRANCH  11  14
HETATM   14  O   UNL     1       5.083  10.993  18.290  0.00  0.00    -0.361 OA
HETATM   15  H   UNL     1       5.152  11.661  17.587  0.00  0.00     0.217 HD
ENDBRANCH  11  14
BRANCH  13  16
HETATM   16  O   UNL     1       9.217  11.841  20.423  0.00  0.00    -0.360 OA
HETATM   17  H   UNL     1       9.513  11.801  19.497  0.00  0.00     0.217 HD
ENDBRANCH  13  16
ENDBRANCH   6   8
BRANCH   7  18
HETATM   18  C   UNL     1       6.008  14.280  23.953  0.00  0.00     0.067 A 
HETATM   19  C   UNL     1       5.761  15.589  23.495  0.00  0.00     0.032 A 
HETATM   20  C   UNL     1       4.532  16.215  23.714  0.00  0.00     0.002 A 
HETATM   21  C   UNL     1       3.534  15.548  24.410  0.00  0.00     0.002 A 
HETATM   22  C   UNL     1       3.759  14.251  24.875  0.00  0.00     0.026 A 
HETATM   23  C   UNL     1       4.988  13.613  24.655  0.00  0.00     0.061 A 
HETATM   24 CL   UNL     1       5.217  12.076  25.407  0.00  0.00    -0.082 Cl
ENDBRANCH   7  18
TORSDOF 4
ENDMDL
MODEL 4
REMARK VINA RESULT:    -6.305      3.145      4.372
REMARK INTER + INTRA:          -8.416
REMARK INTER:                  -7.402
REMARK INTRA:                  -1.015
REMARK UNBOUND:                -1.005
REMARK  4 active torsions:
REMARK  status: ('A' for Active; 'I' for Inactive)
REMARK    1  A    between atoms: C_6  and  C_7 
REMARK    2  A    between atoms: C_10  and  O_11 
REMARK    3  A    between atoms: C_13  and  O_14 
REMARK    4  A    between atoms: N_15  and  C_16 
ROOT
HETATM    1  O   UNL     1       2.389  14.813  25.117  0.00  0.00    -0.245 OA
HETATM    2  C   UNL     1       2.520  13.878  24.341  0.00  0.00     0.349 A 
HETATM    3  N   UNL     1       1.475  13.146  23.806  0.00  0.00    -0.226 N 
HETATM    4  H   UNL     1       0.493  13.326  23.961  0.00  0.00     0.194 HD
HETATM    5  N   UNL     1       1.931  12.256  22.886  0.00  0.00    -0.151 NA
HETATM    6  C   UNL     1       3.234  12.408  22.882  0.00  0.00     0.172 A 
HETATM    7  N   UNL     1       3.668  13.375  23.754  0.00  0.00    -0.243 N 
ENDROOT
BRANCH   6   8
HETATM    8  C   UNL     1       4.075  11.550  22.006  0.00  0.00     0.045 A 
HETATM    9  C   UNL     1       4.607  12.174  20.858  0.00  0.00     0.021 A 
HETATM   10  C   UNL     1       5.414  11.474  19.957  0.00  0.00     0.037 A 
HETATM   11  C   UNL     1       5.705  10.141  20.209  0.00  0.00     0.068 A 
HETATM   12  C   UNL     1       5.177   9.494  21.320  0.00  0.00     0.074 A 
HETATM   13  C   UNL     1       4.330  10.187  22.195  0.00  0.00     0.082 A 
BRANCH  11  14
HETATM   14  O   UNL     1       6.493   9.416  19.366  0.00  0.00    -0.361 OA
HETATM   15  H   UNL     1       6.611   8.526  19.736  0.00  0.00     0.217 HD
ENDBRANCH  11  14
BRANCH  13  16
HETATM   16  O   UNL     1       3.716   9.487  23.193  0.00  0.00    -0.360 OA
HETATM   17  H   UNL     1       3.001  10.026  23.573  0.00  0.00     0.217 HD
ENDBRANCH  13  16
ENDBRANCH   6   8
BRANCH   7  18
HETATM   18  C   UNL     1       4.913  14.002  23.961  0.00  0.00     0.067 A 
HETATM   19  C   UNL     1       5.258  15.051  23.086  0.00  0.00     0.032 A 
HETATM   20  C   UNL     1       6.501  15.682  23.163  0.00  0.00     0.002 A 
HETATM   21  C   UNL     1       7.428  15.264  24.106  0.00  0.00     0.002 A 
HETATM   22  C   UNL     1       7.109  14.223  24.980  0.00  0.00     0.026 A 
HETATM   23  C   UNL     1       5.860  13.588  24.914  0.00  0.00     0.061 A 
HETATM   24 CL   UNL     1       5.628  12.213  25.932  0.00  0.00    -0.082 Cl
ENDBRANCH   7  18
TORSDOF 4
ENDMDL
MODEL 5
REMARK VINA RESULT:    -6.291      3.787      5.446
REMARK INTER + INTRA:          -8.399
REMARK INTER:                  -7.460
REMARK INTRA:                  -0.940
REMARK UNBOUND:                -1.005
REMARK  4 active torsions:
REMARK  status: ('A' for Active; 'I' for Inactive)
REMARK    1  A    between atoms: C_6  and  C_7 
REMARK    2  A    between atoms: C_10  and  O_11 
REMARK    3  A    between atoms: C_13  and  O_14 
REMARK    4  A    between atoms: N_15  and  C_16 
ROOT
HETATM    1  O   UNL     1       7.635  12.382  20.831  0.00  0.00    -0.245 OA
HETATM    2  C   UNL     1       6.424  12.223  20.874  0.00  0.00     0.349 A 
HETATM    3  N   UNL     1       5.708  11.398  20.026  0.00  0.00    -0.226 N 
HETATM    4  H   UNL     1       6.105  10.805  19.310  0.00  0.00     0.194 HD
HETATM    5  N   UNL     1       4.403  11.339  20.398  0.00  0.00    -0.151 NA
HETATM    6  C   UNL     1       4.307  12.143  21.431  0.00  0.00     0.172 A 
HETATM    7  N   UNL     1       5.501  12.727  21.773  0.00  0.00    -0.243 N 
ENDROOT
BRANCH   6   8
HETATM    8  C   UNL     1       2.987  12.357  22.081  0.00  0.00     0.045 A 
HETATM    9  C   UNL     1       2.120  13.262  21.434  0.00  0.00     0.021 A 
HETATM   10  C   UNL     1       0.852  13.547  21.945  0.00  0.00     0.037 A 
HETATM   11  C   UNL     1       0.437  12.915  23.108  0.00  0.00     0.068 A 
HETATM   12  C   UNL     1       1.278  12.035  23.780  0.00  0.00     0.074 A 
HETATM   13  C   UNL     1       2.566  11.789  23.289  0.00  0.00     0.082 A 
BRANCH  11  14
HETATM   14  O   UNL     1      -0.794  13.152  23.643  0.00  0.00    -0.361 OA
HETATM   15  H   UNL     1      -0.713  13.188  24.611  0.00  0.00     0.217 HD
ENDBRANCH  11  14
BRANCH  13  16
HETATM   16  O   UNL     1       3.414  11.034  24.046  0.00  0.00    -0.360 OA
HETATM   17  H   UNL     1       3.736  11.564  24.796  0.00  0.00     0.217 HD
ENDBRANCH  13  16
ENDBRANCH   6   8
BRANCH   7  18
HETATM   18  C   UNL     1       5.921  13.491  22.881  0.00  0.00     0.067 A 
HETATM   19  C   UNL     1       5.829  14.892  22.767  0.00  0.00     0.032 A 
HETATM   20  C   UNL     1       6.291  15.735  23.780  0.00  0.00     0.002 A 
HETATM   21  C   UNL     1       6.870  15.191  24.918  0.00  0.00     0.002 A 
HETATM   22  C   UNL     1       6.975  13.805  25.049  0.00  0.00     0.026 A 
HETATM   23  C   UNL     1       6.508  12.951  24.038  0.00  0.00     0.061 A 
HETATM   24 CL   UNL     1       6.829  11.265  24.229  0.00  0.00    -0.082 Cl
ENDBRANCH   7  18
TORSDOF 4
ENDMDL
MODEL 6
REMARK VINA RESULT:    -6.155      3.093      5.351
REMARK INTER + INTRA:          -8.240
REMARK INTER:                  -7.318
REMARK INTRA:                  -0.922
REMARK UNBOUND:                -1.005
REMARK  4 active torsions:
REMARK  status: ('A' for Active; 'I' for Inactive)
REMARK    1  A    between atoms: C_6  and  C_7 
REMARK    2  A    between atoms: C_10  and  O_11 
REMARK    3  A    between atoms: C_13  and  O_14 
REMARK    4  A    between atoms: N_15  and  C_16 
ROOT
HETATM    1  O   UNL     1       9.371  11.803  20.763  0.00  0.00    -0.245 OA
HETATM    2  C   UNL     1       8.167  12.003  20.836  0.00  0.00     0.349 A 
HETATM    3  N   UNL     1       7.229  11.486  19.960  0.00  0.00    -0.226 N 
HETATM    4  H   UNL     1       7.425  10.857  19.194  0.00  0.00     0.194 HD
HETATM    5  N   UNL     1       5.969  11.784  20.372  0.00  0.00    -0.151 NA
HETATM    6  C   UNL     1       6.127  12.504  21.458  0.00  0.00     0.172 A 
HETATM    7  N   UNL     1       7.444  12.688  21.797  0.00  0.00    -0.243 N 
ENDROOT
BRANCH   6   8
HETATM    8  C   UNL     1       4.936  13.046  22.165  0.00  0.00     0.045 A 
HETATM    9  C   UNL     1       5.065  14.355  22.674  0.00  0.00     0.021 A 
HETATM   10  C   UNL     1       4.016  14.977  23.357  0.00  0.00     0.037 A 
HETATM   11  C   UNL     1       2.822  14.292  23.524  0.00  0.00     0.068 A 
HETATM   12  C   UNL     1       2.674  12.993  23.052  0.00  0.00     0.074 A 
HETATM   13  C   UNL     1       3.744  12.357  22.410  0.00  0.00     0.082 A 
BRANCH  11  14
HETATM   14  O   UNL     1       1.766  14.856  24.175  0.00  0.00    -0.361 OA
HETATM   15  H   UNL     1       2.100  15.546  24.773  0.00  0.00     0.217 HD
ENDBRANCH  11  14
BRANCH  13  16
HETATM   16  O   UNL     1       3.614  11.037  22.087  0.00  0.00    -0.360 OA
HETATM   17  H   UNL     1       2.670  10.799  22.075  0.00  0.00     0.217 HD
ENDBRANCH  13  16
ENDBRANCH   6   8
BRANCH   7  18
HETATM   18  C   UNL     1       8.084  13.213  22.937  0.00  0.00     0.067 A 
HETATM   19  C   UNL     1       8.040  12.438  24.113  0.00  0.00     0.032 A 
HETATM   20  C   UNL     1       8.580  12.906  25.313  0.00  0.00     0.002 A 
HETATM   21  C   UNL     1       9.157  14.167  25.362  0.00  0.00     0.002 A 
HETATM   22  C   UNL     1       9.208  14.953  24.209  0.00  0.00     0.026 A 
HETATM   23  C   UNL     1       8.674  14.488  22.999  0.00  0.00     0.061 A 
HETATM   24 CL   UNL     1       8.648  15.599  21.678  0.00  0.00    -0.082 Cl
ENDBRANCH   7  18
TORSDOF 4
ENDMDL
MODEL 7
REMARK VINA RESULT:    -6.153      1.870      2.326
REMARK INTER + INTRA:          -8.237
REMARK INTER:                  -7.278
REMARK INTRA:                  -0.958
REMARK UNBOUND:                -1.005
REMARK  4 active torsions:
REMARK  status: ('A' for Active; 'I' for Inactive)
REMARK    1  A    between atoms: C_6  and  C_7 
REMARK    2  A    between atoms: C_10  and  O_11 
REMARK    3  A    between atoms: C_13  and  O_14 
REMARK    4  A    between atoms: N_15  and  C_16 
ROOT
HETATM    1  O   UNL     1       8.741  13.531  25.722  0.00  0.00    -0.245 OA
HETATM    2  C   UNL     1       8.513  12.867  24.722  0.00  0.00     0.349 A 
HETATM    3  N   UNL     1       9.194  11.715  24.370  0.00  0.00    -0.226 N 
HETATM    4  H   UNL     1       9.920  11.272  24.917  0.00  0.00     0.194 HD
HETATM    5  N   UNL     1       8.633  11.138  23.275  0.00  0.00    -0.151 NA
HETATM    6  C   UNL     1       7.651  11.938  22.935  0.00  0.00     0.172 A 
HETATM    7  N   UNL     1       7.524  13.023  23.767  0.00  0.00    -0.243 N 
ENDROOT
BRANCH   6   8
HETATM    8  C   UNL     1       6.831  11.633  21.732  0.00  0.00     0.045 A 
HETATM    9  C   UNL     1       5.481  11.301  21.973  0.00  0.00     0.021 A 
HETATM   10  C   UNL     1       4.609  10.994  20.926  0.00  0.00     0.037 A 
HETATM   11  C   UNL     1       5.083  11.030  19.623  0.00  0.00     0.068 A 
HETATM   12  C   UNL     1       6.413  11.331  19.356  0.00  0.00     0.074 A 
HETATM   13  C   UNL     1       7.296  11.591  20.413  0.00  0.00     0.082 A 
BRANCH  11  14
HETATM   14  O   UNL     1       4.271  10.747  18.566  0.00  0.00    -0.361 OA
HETATM   15  H   UNL     1       4.794  10.790  17.748  0.00  0.00     0.217 HD
ENDBRANCH  11  14
BRANCH  13  16
HETATM   16  O   UNL     1       8.622  11.743  20.127  0.00  0.00    -0.360 OA
HETATM   17  H   UNL     1       8.880  12.670  20.274  0.00  0.00     0.217 HD
ENDBRANCH  13  16
ENDBRANCH   6   8
BRANCH   7  18
HETATM   18  C   UNL     1       6.540  14.022  23.910  0.00  0.00     0.067 A 
HETATM   19  C   UNL     1       5.352  13.663  24.576  0.00  0.00     0.032 A 
HETATM   20  C   UNL     1       4.289  14.560  24.700  0.00  0.00     0.002 A 
HETATM   21  C   UNL     1       4.390  15.827  24.145  0.00  0.00     0.002 A 
HETATM   22  C   UNL     1       5.558  16.203  23.477  0.00  0.00     0.026 A 
HETATM   23  C   UNL     1       6.632  15.309  23.353  0.00  0.00     0.061 A 
HETATM   24 CL   UNL     1       7.961  15.817  22.375  0.00  0.00    -0.082 Cl
ENDBRANCH   7  18
TORSDOF 4
ENDMDL
MODEL 8
REMARK VINA RESULT:    -5.963      2.821      4.995
REMARK INTER + INTRA:          -8.013
REMARK INTER:                  -7.008
REMARK INTRA:                  -1.005
REMARK UNBOUND:                -1.005
REMARK  4 active torsions:
REMARK  status: ('A' for Active; 'I' for Inactive)
REMARK    1  A    between atoms: C_6  and  C_7 
REMARK    2  A    between atoms: C_10  and  O_11 
REMARK    3  A    between atoms: C_13  and  O_14 
REMARK    4  A    between atoms: N_15  and  C_16 
ROOT
HETATM    1  O   UNL     1       4.487  10.770  19.562  0.00  0.00    -0.245 OA
HETATM    2  C   UNL     1       5.334  11.282  20.279  0.00  0.00     0.349 A 
HETATM    3  N   UNL     1       6.643  11.523  19.902  0.00  0.00    -0.226 N 
HETATM    4  H   UNL     1       7.032  11.345  18.986  0.00  0.00     0.194 HD
HETATM    5  N   UNL     1       7.305  12.209  20.869  0.00  0.00    -0.151 NA
HETATM    6  C   UNL     1       6.434  12.355  21.840  0.00  0.00     0.172 A 
HETATM    7  N   UNL     1       5.210  11.804  21.554  0.00  0.00    -0.243 N 
ENDROOT
BRANCH   6   8
HETATM    8  C   UNL     1       6.837  13.038  23.098  0.00  0.00     0.045 A 
HETATM    9  C   UNL     1       6.505  14.406  23.191  0.00  0.00     0.021 A 
HETATM   10  C   UNL     1       6.828  15.158  24.323  0.00  0.00     0.037 A 
HETATM   11  C   UNL     1       7.479  14.538  25.380  0.00  0.00     0.068 A 
HETATM   12  C   UNL     1       7.839  13.197  25.307  0.00  0.00     0.074 A 
HETATM   13  C   UNL     1       7.555  12.460  24.150  0.00  0.00     0.082 A 
BRANCH  11  14
HETATM   14  O   UNL     1       7.810  15.225  26.509  0.00  0.00    -0.361 OA
HETATM   15  H   UNL     1       8.709  14.972  26.778  0.00  0.00     0.217 HD
ENDBRANCH  11  14
BRANCH  13  16
HETATM   16  O   UNL     1       8.046  11.190  24.055  0.00  0.00    -0.360 OA
HETATM   17  H   UNL     1       8.495  11.081  23.198  0.00  0.00     0.217 HD
ENDBRANCH  13  16
ENDBRANCH   6   8
BRANCH   7  18
HETATM   18  C   UNL     1       3.951  11.866  22.185  0.00  0.00     0.067 A 
HETATM   19  C   UNL     1       3.094  12.918  21.805  0.00  0.00     0.032 A 
HETATM   20  C   UNL     1       1.858  13.108  22.426  0.00  0.00     0.002 A 
HETATM   21  C   UNL     1       1.465  12.259  23.451  0.00  0.00     0.002 A 
HETATM   22  C   UNL     1       2.301  11.213  23.846  0.00  0.00     0.026 A 
HETATM   23  C   UNL     1       3.541  11.012  23.223  0.00  0.00     0.061 A 
HETATM   24 CL   UNL     1       4.562   9.791  23.892  0.00  0.00    -0.082 Cl
ENDBRANCH   7  18
TORSDOF 4
ENDMDL
