MODEL 1
REMARK VINA RESULT:    -6.731      0.000      0.000
REMARK INTER + INTRA:         -11.107
REMARK INTER:                  -9.450
REMARK INTRA:                  -1.657
REMARK UNBOUND:                -1.424
REMARK  8 active torsions:
REMARK  status: ('A' for Active; 'I' for Inactive)
REMARK    1  A    between atoms: C_2  and  N_4 
REMARK    2  A    between atoms: N_4  and  C_5 
REMARK    3  A    between atoms: C_5  and  C_6 
REMARK    4  A    between atoms: C_6  and  C_7 
REMARK    5  A    between atoms: C_7  and  N_8 
REMARK    6  A    between atoms: C_9  and  S_10 
REMARK    7  A    between atoms: S_10  and  C_11 
REMARK    8  A    between atoms: C_23  and  N_24 
ROOT
HETATM    1  N   UNL     1       9.729  14.173  23.603  0.00  0.00    -0.308 N 
HETATM    2  C   UNL     1       8.534  14.836  23.761  0.00  0.00     0.176 A 
HETATM    3  N   UNL     1       8.351  15.217  25.008  0.00  0.00    -0.216 NA
HETATM    4  C   UNL     1       9.457  14.758  25.691  0.00  0.00     0.151 A 
HETATM    5  C   UNL     1       9.863  14.843  27.037  0.00  0.00     0.155 A 
HETATM    6  N   UNL     1      10.981  14.178  27.420  0.00  0.00    -0.222 NA
HETATM    7  C   UNL     1      11.680  13.506  26.488  0.00  0.00     0.237 A 
HETATM    8  N   UNL     1      11.431  13.413  25.168  0.00  0.00    -0.222 NA
HETATM    9  C   UNL     1      10.300  14.062  24.841  0.00  0.00     0.166 A 
ENDROOT
BRANCH   2  10
HETATM   10  S   UNL     1       7.387  14.894  22.466  0.00  0.00    -0.051 SA
BRANCH  10  11
HETATM   11  C   UNL     1       5.750  14.772  23.185  0.00  0.00     0.028 C 
HETATM   12  C   UNL     1       5.170  15.848  23.873  0.00  0.00     0.060 C 
HETATM   13  C   UNL     1       4.113  15.592  24.720  0.00  0.00     0.106 C 
HETATM   14  O   UNL     1       3.573  16.487  25.595  0.00  0.00    -0.323 OA
HETATM   15  C   UNL     1       3.564  14.341  24.853  0.00  0.00     0.106 C 
HETATM   16  C   UNL     1       2.905  15.568  26.483  0.00  0.00     0.352 C 
HETATM   17  O   UNL     1       2.639  14.296  25.851  0.00  0.00    -0.323 OA
HETATM   18  C   UNL     1       3.990  13.280  24.098  0.00  0.00     0.059 C 
HETATM   19  C   UNL     1       5.100  13.498  23.260  0.00  0.00     0.026 C 
HETATM   20  I   UNL     1       5.741  11.790  22.181  0.00  0.00    -0.043 I 
ENDBRANCH  10  11
ENDBRANCH   2  10
BRANCH   1  21
HETATM   21  C   UNL     1      10.296  13.621  22.392  0.00  0.00     0.135 C 
BRANCH  21  22
HETATM   22  C   UNL     1       9.775  12.218  22.082  0.00  0.00     0.050 C 
BRANCH  22  23
HETATM   23  C   UNL     1      10.756  11.157  22.584  0.00  0.00     0.271 C 
BRANCH  23  24
HETATM   24  N   UNL     1      10.393  10.592  23.886  0.00  0.00     0.087 N 
HETATM   25  H   UNL     1      10.857   9.689  23.993  0.00  0.00     0.316 HD
BRANCH  24  26
HETATM   26  C   UNL     1       8.953  10.426  24.116  0.00  0.00     0.212 C 
HETATM   27  C   UNL     1       8.533   8.956  24.135  0.00  0.00     0.042 C 
HETATM   28  C   UNL     1       8.596  11.093  25.446  0.00  0.00     0.042 C 
ENDBRANCH  24  26
ENDBRANCH  23  24
ENDBRANCH  22  23
ENDBRANCH  21  22
ENDBRANCH   1  21
BRANCH   5  29
HETATM   29  N   UNL     1       9.175  15.561  28.003  0.00  0.00    -0.382 N 
HETATM   30  H   UNL     1       8.170  15.575  27.868  0.00  0.00     0.157 HD
HETATM   31  H   UNL     1       9.527  15.389  28.935  0.00  0.00     0.157 HD
ENDBRANCH   5  29
TORSDOF 8
ENDMDL
MODEL 2
REMARK VINA RESULT:    -6.573      4.417      6.599
REMARK INTER + INTRA:         -10.880
REMARK INTER:                  -9.548
REMARK INTRA:                  -1.332
REMARK UNBOUND:                -1.424
REMARK  8 active torsions:
REMARK  status: ('A' for Active; 'I' for Inactive)
REMARK    1  A    between atoms: C_2  and  N_4 
REMARK    2  A    between atoms: N_4  and  C_5 
REMARK    3  A    between atoms: C_5  and  C_6 
REMARK    4  A    between atoms: C_6  and  C_7 
REMARK    5  A    between atoms: C_7  and  N_8 
REMARK    6  A    between atoms: C_9  and  S_10 
REMARK    7  A    between atoms: S_10  and  C_11 
REMARK    8  A    between atoms: C_23  and  N_24 
ROOT
HETATM    1  N   UNL     1       7.280  12.498  23.569  0.00  0.00    -0.308 N 
HETATM    2  C   UNL     1       6.528  12.111  22.485  0.00  0.00     0.176 A 
HETATM    3  N   UNL     1       6.837  12.804  21.408  0.00  0.00    -0.216 NA
HETATM    4  C   UNL     1       7.806  13.694  21.818  0.00  0.00     0.151 A 
HETATM    5  C   UNL     1       8.543  14.692  21.151  0.00  0.00     0.155 A 
HETATM    6  N   UNL     1       9.364  15.488  21.879  0.00  0.00    -0.222 NA
HETATM    7  C   UNL     1       9.477  15.256  23.199  0.00  0.00     0.237 A 
HETATM    8  N   UNL     1       8.883  14.294  23.930  0.00  0.00    -0.222 NA
HETATM    9  C   UNL     1       8.057  13.552  23.172  0.00  0.00     0.166 A 
ENDROOT
BRANCH   2  10
HETATM   10  S   UNL     1       5.207  11.010  22.682  0.00  0.00    -0.051 SA
BRANCH  10  11
HETATM   11  C   UNL     1       5.393   9.715  21.458  0.00  0.00     0.028 C 
HETATM   12  C   UNL     1       5.081   9.933  20.108  0.00  0.00     0.060 C 
HETATM   13  C   UNL     1       4.869   8.839  19.298  0.00  0.00     0.106 C 
HETATM   14  O   UNL     1       4.375   8.885  18.028  0.00  0.00    -0.323 OA
HETATM   15  C   UNL     1       5.026   7.551  19.747  0.00  0.00     0.106 C 
HETATM   16  C   UNL     1       3.935   7.516  17.902  0.00  0.00     0.352 C 
HETATM   17  O   UNL     1       4.616   6.637  18.824  0.00  0.00    -0.323 OA
HETATM   18  C   UNL     1       5.472   7.275  21.013  0.00  0.00     0.059 C 
HETATM   19  C   UNL     1       5.651   8.371  21.879  0.00  0.00     0.026 C 
HETATM   20  I   UNL     1       6.273   7.855  23.839  0.00  0.00    -0.043 I 
ENDBRANCH  10  11
ENDBRANCH   2  10
BRANCH   1  21
HETATM   21  C   UNL     1       7.253  11.969  24.915  0.00  0.00     0.135 C 
BRANCH  21  22
HETATM   22  C   UNL     1       6.101  12.531  25.748  0.00  0.00     0.050 C 
BRANCH  22  23
HETATM   23  C   UNL     1       6.547  13.783  26.506  0.00  0.00     0.271 C 
BRANCH  23  24
HETATM   24  N   UNL     1       6.274  15.031  25.789  0.00  0.00     0.087 N 
HETATM   25  H   UNL     1       6.339  15.810  26.446  0.00  0.00     0.316 HD
BRANCH  24  26
HETATM   26  C   UNL     1       4.980  15.087  25.100  0.00  0.00     0.212 C 
HETATM   27  C   UNL     1       3.932  15.868  25.893  0.00  0.00     0.042 C 
HETATM   28  C   UNL     1       5.189  15.730  23.728  0.00  0.00     0.042 C 
ENDBRANCH  24  26
ENDBRANCH  23  24
ENDBRANCH  22  23
ENDBRANCH  21  22
ENDBRANCH   1  21
BRANCH   5  29
HETATM   29  N   UNL     1       8.466  14.920  19.785  0.00  0.00    -0.382 N 
HETATM   30  H   UNL     1       8.154  15.854  19.540  0.00  0.00     0.157 HD
HETATM   31  H   UNL     1       9.256  14.536  19.285  0.00  0.00     0.157 HD
ENDBRANCH   5  29
TORSDOF 8
ENDMDL
MODEL 3
REMARK VINA RESULT:    -6.463      4.673      6.914
REMARK INTER + INTRA:         -10.721
REMARK INTER:                  -9.303
REMARK INTRA:                  -1.419
REMARK UNBOUND:                -1.424
REMARK  8 active torsions:
REMARK  status: ('A' for Active; 'I' for Inactive)
REMARK    1  A    between atoms: C_2  and  N_4 
REMARK    2  A    between atoms: N_4  and  C_5 
REMARK    3  A    between atoms: C_5  and  C_6 
REMARK    4  A    between atoms: C_6  and  C_7 
REMARK    5  A    between atoms: C_7  and  N_8 
REMARK    6  A    between atoms: C_9  and  S_10 
REMARK    7  A    between atoms: S_10  and  C_11 
REMARK    8  A    between atoms: C_23  and  N_24 
ROOT
HETATM    1  N   UNL     1       5.229  10.928  21.985  0.00  0.00    -0.308 N 
HETATM    2  C   UNL     1       4.624  10.452  23.125  0.00  0.00     0.176 A 
HETATM    3  N   UNL     1       4.107   9.256  22.936  0.00  0.00    -0.216 NA
HETATM    4  C   UNL     1       4.361   8.958  21.614  0.00  0.00     0.151 A 
HETATM    5  C   UNL     1       4.076   7.841  20.806  0.00  0.00     0.155 A 
HETATM    6  N   UNL     1       4.372   7.904  19.484  0.00  0.00    -0.222 NA
HETATM    7  C   UNL     1       4.971   9.012  19.013  0.00  0.00     0.237 A 
HETATM    8  N   UNL     1       5.354  10.107  19.698  0.00  0.00    -0.222 NA
HETATM    9  C   UNL     1       5.013  10.010  20.995  0.00  0.00     0.166 A 
ENDROOT
BRANCH   2  10
HETATM   10  S   UNL     1       4.420  11.478  24.504  0.00  0.00    -0.051 SA
BRANCH  10  11
HETATM   11  C   UNL     1       2.722  12.052  24.507  0.00  0.00     0.028 C 
HETATM   12  C   UNL     1       1.649  11.161  24.651  0.00  0.00     0.060 C 
HETATM   13  C   UNL     1       0.394  11.579  24.266  0.00  0.00     0.106 C 
HETATM   14  O   UNL     1      -0.704  10.777  24.163  0.00  0.00    -0.323 OA
HETATM   15  C   UNL     1       0.148  12.855  23.822  0.00  0.00     0.106 C 
HETATM   16  C   UNL     1      -1.514  11.604  23.301  0.00  0.00     0.352 C 
HETATM   17  O   UNL     1      -1.124  12.994  23.356  0.00  0.00    -0.323 OA
HETATM   18  C   UNL     1       1.125  13.814  23.800  0.00  0.00     0.059 C 
HETATM   19  C   UNL     1       2.429  13.404  24.140  0.00  0.00     0.026 C 
HETATM   20  I   UNL     1       3.896  14.929  24.011  0.00  0.00    -0.043 I 
ENDBRANCH  10  11
ENDBRANCH   2  10
BRANCH   1  21
HETATM   21  C   UNL     1       5.921  12.184  21.795  0.00  0.00     0.135 C 
BRANCH  21  22
HETATM   22  C   UNL     1       7.351  12.159  22.334  0.00  0.00     0.050 C 
BRANCH  22  23
HETATM   23  C   UNL     1       8.309  11.578  21.293  0.00  0.00     0.271 C 
BRANCH  23  24
HETATM   24  N   UNL     1       7.906  11.849  19.910  0.00  0.00     0.087 N 
HETATM   25  H   UNL     1       7.846  10.963  19.406  0.00  0.00     0.316 HD
BRANCH  24  26
HETATM   26  C   UNL     1       8.782  12.767  19.172  0.00  0.00     0.212 C 
HETATM   27  C   UNL     1       8.502  14.232  19.506  0.00  0.00     0.042 C 
HETATM   28  C   UNL     1      10.235  12.419  19.502  0.00  0.00     0.042 C 
ENDBRANCH  24  26
ENDBRANCH  23  24
ENDBRANCH  22  23
ENDBRANCH  21  22
ENDBRANCH   1  21
BRANCH   5  29
HETATM   29  N   UNL     1       3.493   6.676  21.282  0.00  0.00    -0.382 N 
HETATM   30  H   UNL     1       3.346   5.968  20.571  0.00  0.00     0.157 HD
HETATM   31  H   UNL     1       3.879   6.386  22.169  0.00  0.00     0.157 HD
ENDBRANCH   5  29
TORSDOF 8
ENDMDL
MODEL 4
REMARK VINA RESULT:    -6.447      2.074      3.848
REMARK INTER + INTRA:         -10.698
REMARK INTER:                  -8.477
REMARK INTRA:                  -2.222
REMARK UNBOUND:                -1.424
REMARK  8 active torsions:
REMARK  status: ('A' for Active; 'I' for Inactive)
REMARK    1  A    between atoms: C_2  and  N_4 
REMARK    2  A    between atoms: N_4  and  C_5 
REMARK    3  A    between atoms: C_5  and  C_6 
REMARK    4  A    between atoms: C_6  and  C_7 
REMARK    5  A    between atoms: C_7  and  N_8 
REMARK    6  A    between atoms: C_9  and  S_10 
REMARK    7  A    between atoms: S_10  and  C_11 
REMARK    8  A    between atoms: C_23  and  N_24 
ROOT
HETATM    1  N   UNL     1       8.341  11.812  22.755  0.00  0.00    -0.308 N 
HETATM    2  C   UNL     1       7.293  12.075  21.905  0.00  0.00     0.176 A 
HETATM    3  N   UNL     1       7.558  13.090  21.109  0.00  0.00    -0.216 NA
HETATM    4  C   UNL     1       8.815  13.521  21.478  0.00  0.00     0.151 A 
HETATM    5  C   UNL     1       9.657  14.549  21.015  0.00  0.00     0.155 A 
HETATM    6  N   UNL     1      10.816  14.787  21.677  0.00  0.00    -0.222 NA
HETATM    7  C   UNL     1      11.134  13.996  22.717  0.00  0.00     0.237 A 
HETATM    8  N   UNL     1      10.448  12.944  23.204  0.00  0.00    -0.222 NA
HETATM    9  C   UNL     1       9.295  12.768  22.536  0.00  0.00     0.166 A 
ENDROOT
BRANCH   2  10
HETATM   10  S   UNL     1       5.777  11.266  22.105  0.00  0.00    -0.051 SA
BRANCH  10  11
HETATM   11  C   UNL     1       4.735  12.308  23.124  0.00  0.00     0.028 C 
HETATM   12  C   UNL     1       4.608  13.682  22.876  0.00  0.00     0.060 C 
HETATM   13  C   UNL     1       4.128  14.490  23.884  0.00  0.00     0.106 C 
HETATM   14  O   UNL     1       4.128  15.853  23.867  0.00  0.00    -0.323 OA
HETATM   15  C   UNL     1       3.700  13.987  25.087  0.00  0.00     0.106 C 
HETATM   16  C   UNL     1       3.989  16.102  25.281  0.00  0.00     0.352 C 
HETATM   17  O   UNL     1       3.414  14.976  25.979  0.00  0.00    -0.323 OA
HETATM   18  C   UNL     1       3.660  12.640  25.336  0.00  0.00     0.059 C 
HETATM   19  C   UNL     1       4.190  11.793  24.344  0.00  0.00     0.026 C 
HETATM   20  I   UNL     1       4.157   9.730  24.834  0.00  0.00    -0.043 I 
ENDBRANCH  10  11
ENDBRANCH   2  10
BRANCH   1  21
HETATM   21  C   UNL     1       8.445  10.773  23.757  0.00  0.00     0.135 C 
BRANCH  21  22
HETATM   22  C   UNL     1       7.821  11.176  25.093  0.00  0.00     0.050 C 
BRANCH  22  23
HETATM   23  C   UNL     1       8.872  11.804  26.010  0.00  0.00     0.271 C 
BRANCH  23  24
HETATM   24  N   UNL     1       8.828  13.269  26.035  0.00  0.00     0.087 N 
HETATM   25  H   UNL     1       9.146  13.592  26.950  0.00  0.00     0.316 HD
BRANCH  24  26
HETATM   26  C   UNL     1       7.517  13.860  25.743  0.00  0.00     0.212 C 
HETATM   27  C   UNL     1       6.863  14.467  26.984  0.00  0.00     0.042 C 
HETATM   28  C   UNL     1       7.699  14.932  24.666  0.00  0.00     0.042 C 
ENDBRANCH  24  26
ENDBRANCH  23  24
ENDBRANCH  22  23
ENDBRANCH  21  22
ENDBRANCH   1  21
BRANCH   5  29
HETATM   29  N   UNL     1       9.362  15.350  19.921  0.00  0.00    -0.382 N 
HETATM   30  H   UNL     1       8.372  15.537  19.803  0.00  0.00     0.157 HD
HETATM   31  H   UNL     1      10.006  16.122  19.823  0.00  0.00     0.157 HD
ENDBRANCH   5  29
TORSDOF 8
ENDMDL
MODEL 5
REMARK VINA RESULT:    -6.432      2.822      4.938
REMARK INTER + INTRA:         -10.677
REMARK INTER:                  -8.701
REMARK INTRA:                  -1.976
REMARK UNBOUND:                -1.424
REMARK  8 active torsions:
REMARK  status: ('A' for Active; 'I' for Inactive)
REMARK    1  A    between atoms: C_2  and  N_4 
REMARK    2  A    between atoms: N_4  and  C_5 
REMARK    3  A    between atoms: C_5  and  C_6 
REMARK    4  A    between atoms: C_6  and  C_7 
REMARK    5  A    between atoms: C_7  and  N_8 
REMARK    6  A    between atoms: C_9  and  S_10 
REMARK    7  A    between atoms: S_10  and  C_11 
REMARK    8  A    between atoms: C_23  and  N_24 
ROOT
HETATM    1  N   UNL     1       7.947  12.507  23.531  0.00  0.00    -0.308 N 
HETATM    2  C   UNL     1       7.413  11.697  22.556  0.00  0.00     0.176 A 
HETATM    3  N   UNL     1       7.468  12.266  21.369  0.00  0.00    -0.216 NA
HETATM    4  C   UNL     1       8.032  13.504  21.589  0.00  0.00     0.151 A 
HETATM    5  C   UNL     1       8.364  14.577  20.739  0.00  0.00     0.155 A 
HETATM    6  N   UNL     1       8.819  15.728  21.294  0.00  0.00    -0.222 NA
HETATM    7  C   UNL     1       8.981  15.776  22.628  0.00  0.00     0.237 A 
HETATM    8  N   UNL     1       8.767  14.798  23.529  0.00  0.00    -0.222 NA
HETATM    9  C   UNL     1       8.289  13.691  22.937  0.00  0.00     0.166 A 
ENDROOT
BRANCH   2  10
HETATM   10  S   UNL     1       6.587  10.238  22.983  0.00  0.00    -0.051 SA
BRANCH  10  11
HETATM   11  C   UNL     1       4.863  10.648  23.252  0.00  0.00     0.028 C 
HETATM   12  C   UNL     1       4.334  11.883  22.851  0.00  0.00     0.060 C 
HETATM   13  C   UNL     1       3.146  12.300  23.410  0.00  0.00     0.106 C 
HETATM   14  O   UNL     1       2.606  13.545  23.273  0.00  0.00    -0.323 OA
HETATM   15  C   UNL     1       2.429  11.518  24.282  0.00  0.00     0.106 C 
HETATM   16  C   UNL     1       1.709  13.533  24.402  0.00  0.00     0.352 C 
HETATM   17  O   UNL     1       1.375  12.191  24.821  0.00  0.00    -0.323 OA
HETATM   18  C   UNL     1       2.818  10.243  24.597  0.00  0.00     0.059 C 
HETATM   19  C   UNL     1       4.054   9.807  24.080  0.00  0.00     0.026 C 
HETATM   20  I   UNL     1       4.618   7.851  24.673  0.00  0.00    -0.043 I 
ENDBRANCH  10  11
ENDBRANCH   2  10
BRANCH   1  21
HETATM   21  C   UNL     1       8.087  12.236  24.945  0.00  0.00     0.135 C 
BRANCH  21  22
HETATM   22  C   UNL     1       6.809  12.523  25.732  0.00  0.00     0.050 C 
BRANCH  22  23
HETATM   23  C   UNL     1       6.922  13.855  26.474  0.00  0.00     0.271 C 
BRANCH  23  24
HETATM   24  N   UNL     1       6.591  15.019  25.647  0.00  0.00     0.087 N 
HETATM   25  H   UNL     1       6.732  15.866  26.199  0.00  0.00     0.316 HD
BRANCH  24  26
HETATM   26  C   UNL     1       5.233  15.024  25.091  0.00  0.00     0.212 C 
HETATM   27  C   UNL     1       4.232  15.725  26.009  0.00  0.00     0.042 C 
HETATM   28  C   UNL     1       5.272  15.717  23.727  0.00  0.00     0.042 C 
ENDBRANCH  24  26
ENDBRANCH  23  24
ENDBRANCH  22  23
ENDBRANCH  21  22
ENDBRANCH   1  21
BRANCH   5  29
HETATM   29  N   UNL     1       8.238  14.531  19.359  0.00  0.00    -0.382 N 
HETATM   30  H   UNL     1       8.247  15.443  18.914  0.00  0.00     0.157 HD
HETATM   31  H   UNL     1       8.792  13.795  18.945  0.00  0.00     0.157 HD
ENDBRANCH   5  29
TORSDOF 8
ENDMDL
MODEL 6
REMARK VINA RESULT:    -6.417      4.051      6.867
REMARK INTER + INTRA:         -10.656
REMARK INTER:                  -9.055
REMARK INTRA:                  -1.600
REMARK UNBOUND:                -1.424
REMARK  8 active torsions:
REMARK  status: ('A' for Active; 'I' for Inactive)
REMARK    1  A    between atoms: C_2  and  N_4 
REMARK    2  A    between atoms: N_4  and  C_5 
REMARK    3  A    between atoms: C_5  and  C_6 
REMARK    4  A    between atoms: C_6  and  C_7 
REMARK    5  A    between atoms: C_7  and  N_8 
REMARK    6  A    between atoms: C_9  and  S_10 
REMARK    7  A    between atoms: S_10  and  C_11 
REMARK    8  A    between atoms: C_23  and  N_24 
ROOT
HETATM    1  N   UNL     1       4.407  12.789  24.874  0.00  0.00    -0.308 N 
HETATM    2  C   UNL     1       4.618  12.067  23.722  0.00  0.00     0.176 A 
HETATM    3  N   UNL     1       3.546  12.051  22.957  0.00  0.00    -0.216 NA
HETATM    4  C   UNL     1       2.594  12.764  23.654  0.00  0.00     0.151 A 
HETATM    5  C   UNL     1       1.258  13.112  23.380  0.00  0.00     0.155 A 
HETATM    6  N   UNL     1       0.542  13.747  24.341  0.00  0.00    -0.222 NA
HETATM    7  C   UNL     1       1.156  14.060  25.496  0.00  0.00     0.237 A 
HETATM    8  N   UNL     1       2.439  13.844  25.843  0.00  0.00    -0.222 NA
HETATM    9  C   UNL     1       3.098  13.188  24.872  0.00  0.00     0.166 A 
ENDROOT
BRANCH   2  10
HETATM   10  S   UNL     1       6.066  11.142  23.520  0.00  0.00    -0.051 SA
BRANCH  10  11
HETATM   11  C   UNL     1       7.383  12.281  23.094  0.00  0.00     0.028 C 
HETATM   12  C   UNL     1       7.136  13.434  22.336  0.00  0.00     0.060 C 
HETATM   13  C   UNL     1       8.200  14.054  21.718  0.00  0.00     0.106 C 
HETATM   14  O   UNL     1       8.101  15.058  20.801  0.00  0.00    -0.323 OA
HETATM   15  C   UNL     1       9.495  13.627  21.881  0.00  0.00     0.106 C 
HETATM   16  C   UNL     1       9.404  14.945  20.192  0.00  0.00     0.352 C 
HETATM   17  O   UNL     1      10.356  14.289  21.059  0.00  0.00    -0.323 OA
HETATM   18  C   UNL     1       9.816  12.597  22.726  0.00  0.00     0.059 C 
HETATM   19  C   UNL     1       8.746  11.914  23.334  0.00  0.00     0.026 C 
HETATM   20  I   UNL     1       9.323  10.290  24.568  0.00  0.00    -0.043 I 
ENDBRANCH  10  11
ENDBRANCH   2  10
BRANCH   1  21
HETATM   21  C   UNL     1       5.338  13.055  25.949  0.00  0.00     0.135 C 
BRANCH  21  22
HETATM   22  C   UNL     1       5.961  14.448  25.859  0.00  0.00     0.050 C 
BRANCH  22  23
HETATM   23  C   UNL     1       7.163  14.560  26.799  0.00  0.00     0.271 C 
BRANCH  23  24
HETATM   24  N   UNL     1       8.342  13.823  26.335  0.00  0.00     0.087 N 
HETATM   25  H   UNL     1       8.478  13.009  26.936  0.00  0.00     0.316 HD
BRANCH  24  26
HETATM   26  C   UNL     1       9.585  14.601  26.284  0.00  0.00     0.212 C 
HETATM   27  C   UNL     1      10.826  13.710  26.240  0.00  0.00     0.042 C 
HETATM   28  C   UNL     1       9.541  15.504  25.050  0.00  0.00     0.042 C 
ENDBRANCH  24  26
ENDBRANCH  23  24
ENDBRANCH  22  23
ENDBRANCH  21  22
ENDBRANCH   1  21
BRANCH   5  29
HETATM   29  N   UNL     1       0.621  12.830  22.181  0.00  0.00    -0.382 N 
HETATM   30  H   UNL     1       0.525  13.632  21.567  0.00  0.00     0.157 HD
HETATM   31  H   UNL     1       0.927  11.956  21.777  0.00  0.00     0.157 HD
ENDBRANCH   5  29
TORSDOF 8
ENDMDL
MODEL 7
REMARK VINA RESULT:    -6.415      4.640      7.760
REMARK INTER + INTRA:         -10.653
REMARK INTER:                  -9.294
REMARK INTRA:                  -1.358
REMARK UNBOUND:                -1.424
REMARK  8 active torsions:
REMARK  status: ('A' for Active; 'I' for Inactive)
REMARK    1  A    between atoms: C_2  and  N_4 
REMARK    2  A    between atoms: N_4  and  C_5 
REMARK    3  A    between atoms: C_5  and  C_6 
REMARK    4  A    between atoms: C_6  and  C_7 
REMARK    5  A    between atoms: C_7  and  N_8 
REMARK    6  A    between atoms: C_9  and  S_10 
REMARK    7  A    between atoms: S_10  and  C_11 
REMARK    8  A    between atoms: C_23  and  N_24 
ROOT
HETATM    1  N   UNL     1       3.387  12.985  23.976  0.00  0.00    -0.308 N 
HETATM    2  C   UNL     1       4.470  13.458  23.272  0.00  0.00     0.176 A 
HETATM    3  N   UNL     1       5.139  12.480  22.698  0.00  0.00    -0.216 NA
HETATM    4  C   UNL     1       4.482  11.326  23.069  0.00  0.00     0.151 A 
HETATM    5  C   UNL     1       4.691   9.963  22.785  0.00  0.00     0.155 A 
HETATM    6  N   UNL     1       3.912   9.044  23.407  0.00  0.00    -0.222 NA
HETATM    7  C   UNL     1       2.940   9.477  24.229  0.00  0.00     0.237 A 
HETATM    8  N   UNL     1       2.601  10.748  24.521  0.00  0.00    -0.222 NA
HETATM    9  C   UNL     1       3.419  11.620  23.907  0.00  0.00     0.166 A 
ENDROOT
BRANCH   2  10
HETATM   10  S   UNL     1       4.935  15.121  23.390  0.00  0.00    -0.051 SA
BRANCH  10  11
HETATM   11  C   UNL     1       6.713  15.203  23.188  0.00  0.00     0.028 C 
HETATM   12  C   UNL     1       7.295  15.540  21.958  0.00  0.00     0.060 C 
HETATM   13  C   UNL     1       8.619  15.218  21.748  0.00  0.00     0.106 C 
HETATM   14  O   UNL     1       9.268  15.303  20.552  0.00  0.00    -0.323 OA
HETATM   15  C   UNL     1       9.401  14.652  22.724  0.00  0.00     0.106 C 
HETATM   16  C   UNL     1      10.378  14.423  20.829  0.00  0.00     0.352 C 
HETATM   17  O   UNL     1      10.622  14.283  22.246  0.00  0.00    -0.323 OA
HETATM   18  C   UNL     1       8.931  14.434  23.993  0.00  0.00     0.059 C 
HETATM   19  C   UNL     1       7.570  14.708  24.224  0.00  0.00     0.026 C 
HETATM   20  I   UNL     1       6.904  14.277  26.190  0.00  0.00    -0.043 I 
ENDBRANCH  10  11
ENDBRANCH   2  10
BRANCH   1  21
HETATM   21  C   UNL     1       2.403  13.740  24.721  0.00  0.00     0.135 C 
BRANCH  21  22
HETATM   22  C   UNL     1       1.206  14.156  23.867  0.00  0.00     0.050 C 
BRANCH  22  23
HETATM   23  C   UNL     1      -0.005  13.271  24.168  0.00  0.00     0.271 C 
BRANCH  23  24
HETATM   24  N   UNL     1      -0.088  12.081  23.317  0.00  0.00     0.087 N 
HETATM   25  H   UNL     1      -0.294  12.375  22.361  0.00  0.00     0.316 HD
BRANCH  24  26
HETATM   26  C   UNL     1      -1.073  11.079  23.739  0.00  0.00     0.212 C 
HETATM   27  C   UNL     1      -1.016  10.804  25.241  0.00  0.00     0.042 C 
HETATM   28  C   UNL     1      -2.466  11.575  23.346  0.00  0.00     0.042 C 
ENDBRANCH  24  26
ENDBRANCH  23  24
ENDBRANCH  22  23
ENDBRANCH  21  22
ENDBRANCH   1  21
BRANCH   5  29
HETATM   29  N   UNL     1       5.664   9.501  21.912  0.00  0.00    -0.382 N 
HETATM   30  H   UNL     1       6.241   8.759  22.293  0.00  0.00     0.157 HD
HETATM   31  H   UNL     1       5.318   9.397  20.968  0.00  0.00     0.157 HD
ENDBRANCH   5  29
TORSDOF 8
ENDMDL
MODEL 8
REMARK VINA RESULT:    -6.333      2.290      3.661
REMARK INTER + INTRA:         -10.534
REMARK INTER:                  -9.043
REMARK INTRA:                  -1.490
REMARK UNBOUND:                -1.424
REMARK  8 active torsions:
REMARK  status: ('A' for Active; 'I' for Inactive)
REMARK    1  A    between atoms: C_2  and  N_4 
REMARK    2  A    between atoms: N_4  and  C_5 
REMARK    3  A    between atoms: C_5  and  C_6 
REMARK    4  A    between atoms: C_6  and  C_7 
REMARK    5  A    between atoms: C_7  and  N_8 
REMARK    6  A    between atoms: C_9  and  S_10 
REMARK    7  A    between atoms: S_10  and  C_11 
REMARK    8  A    between atoms: C_23  and  N_24 
ROOT
HETATM    1  N   UNL     1       8.714  11.536  21.872  0.00  0.00    -0.308 N 
HETATM    2  C   UNL     1       7.591  11.833  22.609  0.00  0.00     0.176 A 
HETATM    3  N   UNL     1       7.867  11.938  23.892  0.00  0.00    -0.216 NA
HETATM    4  C   UNL     1       9.215  11.669  23.995  0.00  0.00     0.151 A 
HETATM    5  C   UNL     1      10.110  11.626  25.081  0.00  0.00     0.155 A 
HETATM    6  N   UNL     1      11.383  11.215  24.857  0.00  0.00    -0.222 NA
HETATM    7  C   UNL     1      11.748  10.913  23.599  0.00  0.00     0.237 A 
HETATM    8  N   UNL     1      11.006  10.984  22.477  0.00  0.00    -0.222 NA
HETATM    9  C   UNL     1       9.747  11.366  22.753  0.00  0.00     0.166 A 
ENDROOT
BRANCH   2  10
HETATM   10  S   UNL     1       6.027  11.814  21.870  0.00  0.00    -0.051 SA
BRANCH  10  11
HETATM   11  C   UNL     1       4.890  12.638  22.983  0.00  0.00     0.028 C 
HETATM   12  C   UNL     1       4.726  14.030  22.963  0.00  0.00     0.060 C 
HETATM   13  C   UNL     1       4.159  14.640  24.061  0.00  0.00     0.106 C 
HETATM   14  O   UNL     1       4.108  15.986  24.274  0.00  0.00    -0.323 OA
HETATM   15  C   UNL     1       3.682  13.927  25.132  0.00  0.00     0.106 C 
HETATM   16  C   UNL     1       3.880  15.986  25.698  0.00  0.00     0.352 C 
HETATM   17  O   UNL     1       3.308  14.741  26.158  0.00  0.00    -0.323 OA
HETATM   18  C   UNL     1       3.678  12.557  25.147  0.00  0.00     0.059 C 
HETATM   19  C   UNL     1       4.296  11.907  24.061  0.00  0.00     0.026 C 
HETATM   20  I   UNL     1       4.313   9.791  24.193  0.00  0.00    -0.043 I 
ENDBRANCH  10  11
ENDBRANCH   2  10
BRANCH   1  21
HETATM   21  C   UNL     1       8.827  11.361  20.441  0.00  0.00     0.135 C 
BRANCH  21  22
HETATM   22  C   UNL     1       9.488  12.554  19.750  0.00  0.00     0.050 C 
BRANCH  22  23
HETATM   23  C   UNL     1       8.442  13.603  19.370  0.00  0.00     0.271 C 
BRANCH  23  24
HETATM   24  N   UNL     1       8.782  14.958  19.813  0.00  0.00     0.087 N 
HETATM   25  H   UNL     1       9.492  15.340  19.188  0.00  0.00     0.316 HD
BRANCH  24  26
HETATM   26  C   UNL     1       9.251  15.062  21.200  0.00  0.00     0.212 C 
HETATM   27  C   UNL     1      10.366  16.096  21.360  0.00  0.00     0.042 C 
HETATM   28  C   UNL     1       8.060  15.430  22.087  0.00  0.00     0.042 C 
ENDBRANCH  24  26
ENDBRANCH  23  24
ENDBRANCH  22  23
ENDBRANCH  21  22
ENDBRANCH   1  21
BRANCH   5  29
HETATM   29  N   UNL     1       9.761  11.969  26.379  0.00  0.00    -0.382 N 
HETATM   30  H   UNL     1      10.475  12.493  26.873  0.00  0.00     0.157 HD
HETATM   31  H   UNL     1       8.804  12.285  26.450  0.00  0.00     0.157 HD
ENDBRANCH   5  29
TORSDOF 8
ENDMDL
MODEL 9
REMARK VINA RESULT:    -6.331      3.408      5.574
REMARK INTER + INTRA:         -10.531
REMARK INTER:                  -9.106
REMARK INTRA:                  -1.424
REMARK UNBOUND:                -1.424
REMARK  8 active torsions:
REMARK  status: ('A' for Active; 'I' for Inactive)
REMARK    1  A    between atoms: C_2  and  N_4 
REMARK    2  A    between atoms: N_4  and  C_5 
REMARK    3  A    between atoms: C_5  and  C_6 
REMARK    4  A    between atoms: C_6  and  C_7 
REMARK    5  A    between atoms: C_7  and  N_8 
REMARK    6  A    between atoms: C_9  and  S_10 
REMARK    7  A    between atoms: S_10  and  C_11 
REMARK    8  A    between atoms: C_23  and  N_24 
ROOT
HETATM    1  N   UNL     1       6.898  12.534  23.191  0.00  0.00    -0.308 N 
HETATM    2  C   UNL     1       5.765  11.951  23.709  0.00  0.00     0.176 A 
HETATM    3  N   UNL     1       5.224  11.102  22.860  0.00  0.00    -0.216 NA
HETATM    4  C   UNL     1       6.022  11.159  21.736  0.00  0.00     0.151 A 
HETATM    5  C   UNL     1       5.986  10.498  20.494  0.00  0.00     0.155 A 
HETATM    6  N   UNL     1       6.875  10.865  19.538  0.00  0.00    -0.222 NA
HETATM    7  C   UNL     1       7.783  11.810  19.835  0.00  0.00     0.237 A 
HETATM    8  N   UNL     1       7.959  12.459  21.003  0.00  0.00    -0.222 NA
HETATM    9  C   UNL     1       7.038  12.084  21.907  0.00  0.00     0.166 A 
ENDROOT
BRANCH   2  10
HETATM   10  S   UNL     1       5.093  12.513  25.202  0.00  0.00    -0.051 SA
BRANCH  10  11
HETATM   11  C   UNL     1       3.379  12.941  24.899  0.00  0.00     0.028 C 
HETATM   12  C   UNL     1       2.351  12.004  25.070  0.00  0.00     0.060 C 
HETATM   13  C   UNL     1       1.134  12.248  24.469  0.00  0.00     0.106 C 
HETATM   14  O   UNL     1       0.108  11.355  24.381  0.00  0.00    -0.323 OA
HETATM   15  C   UNL     1       0.875  13.406  23.779  0.00  0.00     0.106 C 
HETATM   16  C   UNL     1      -0.627  11.955  23.294  0.00  0.00     0.352 C 
HETATM   17  O   UNL     1      -0.330  13.361  23.146  0.00  0.00    -0.323 OA
HETATM   18  C   UNL     1       1.790  14.423  23.702  0.00  0.00     0.059 C 
HETATM   19  C   UNL     1       3.058  14.183  24.264  0.00  0.00     0.026 C 
HETATM   20  I   UNL     1       4.438  15.777  24.041  0.00  0.00    -0.043 I 
ENDBRANCH  10  11
ENDBRANCH   2  10
BRANCH   1  21
HETATM   21  C   UNL     1       7.778  13.496  23.818  0.00  0.00     0.135 C 
BRANCH  21  22
HETATM   22  C   UNL     1       9.013  12.848  24.444  0.00  0.00     0.050 C 
BRANCH  22  23
HETATM   23  C   UNL     1      10.291  13.427  23.836  0.00  0.00     0.271 C 
BRANCH  23  24
HETATM   24  N   UNL     1      10.081  14.083  22.543  0.00  0.00     0.087 N 
HETATM   25  H   UNL     1      10.212  13.395  21.800  0.00  0.00     0.316 HD
BRANCH  24  26
HETATM   26  C   UNL     1      10.942  15.243  22.284  0.00  0.00     0.212 C 
HETATM   27  C   UNL     1      10.695  15.853  20.904  0.00  0.00     0.042 C 
HETATM   28  C   UNL     1      10.688  16.286  23.374  0.00  0.00     0.042 C 
ENDBRANCH  24  26
ENDBRANCH  23  24
ENDBRANCH  22  23
ENDBRANCH  21  22
ENDBRANCH   1  21
BRANCH   5  29
HETATM   29  N   UNL     1       5.080   9.495  20.183  0.00  0.00    -0.382 N 
HETATM   30  H   UNL     1       4.125   9.820  20.081  0.00  0.00     0.157 HD
HETATM   31  H   UNL     1       5.440   8.851  19.492  0.00  0.00     0.157 HD
ENDBRANCH   5  29
TORSDOF 8
ENDMDL
