REMARK  8 active torsions:
REMARK  status: ('A' for Active; 'I' for Inactive)
REMARK    1  A    between atoms: C_2  and  N_4 
REMARK    2  A    between atoms: N_4  and  C_5 
REMARK    3  A    between atoms: C_5  and  C_6 
REMARK    4  A    between atoms: C_6  and  C_7 
REMARK    5  A    between atoms: C_7  and  N_8 
REMARK    6  A    between atoms: C_9  and  S_10 
REMARK    7  A    between atoms: S_10  and  C_11 
REMARK    8  A    between atoms: C_23  and  N_24 
ROOT
HETATM    1  N   UNL     1       6.692  -3.325  -2.808  0.00  0.00    -0.308 N 
HETATM    2  C   UNL     1       7.517  -3.152  -3.895  0.00  0.00     0.176 A 
HETATM    3  N   UNL     1       7.791  -4.298  -4.483  0.00  0.00    -0.216 NA
HETATM    4  C   UNL     1       7.143  -5.254  -3.730  0.00  0.00     0.151 A 
HETATM    5  C   UNL     1       7.036  -6.654  -3.834  0.00  0.00     0.155 A 
HETATM    6  N   UNL     1       6.397  -7.331  -2.848  0.00  0.00    -0.222 NA
HETATM    7  C   UNL     1       5.850  -6.630  -1.839  0.00  0.00     0.237 A 
HETATM    8  N   UNL     1       5.826  -5.294  -1.670  0.00  0.00    -0.222 NA
HETATM    9  C   UNL     1       6.496  -4.670  -2.654  0.00  0.00     0.166 A 
ENDROOT
BRANCH   2  10
HETATM   10  S   UNL     1       8.234  -1.610  -4.215  0.00  0.00    -0.051 SA
BRANCH  10  11
HETATM   11  C   UNL     1       8.236  -1.370  -5.991  0.00  0.00     0.028 C 
HETATM   12  C   UNL     1       8.238  -2.457  -6.876  0.00  0.00     0.060 C 
HETATM   13  C   UNL     1       8.625  -2.240  -8.181  0.00  0.00     0.106 C 
HETATM   14  O   UNL     1       8.863  -3.216  -9.103  0.00  0.00    -0.323 OA
HETATM   15  C   UNL     1       8.932  -0.990  -8.658  0.00  0.00     0.106 C 
HETATM   16  C   UNL     1       9.659  -2.460 -10.039  0.00  0.00     0.352 C 
HETATM   17  O   UNL     1       9.432  -1.038  -9.924  0.00  0.00    -0.323 OA
HETATM   18  C   UNL     1       8.806   0.132  -7.882  0.00  0.00     0.059 C 
HETATM   19  C   UNL     1       8.460  -0.063  -6.531  0.00  0.00     0.026 C 
HETATM   20  I   UNL     1       8.356   1.715  -5.381  0.00  0.00    -0.043 I 
ENDBRANCH  10  11
ENDBRANCH   2  10
BRANCH   1  21
HETATM   21  C   UNL     1       6.154  -2.317  -1.921  0.00  0.00     0.135 C 
BRANCH  21  22
HETATM   22  C   UNL     1       5.120  -1.421  -2.602  0.00  0.00     0.050 C 
BRANCH  22  23
HETATM   23  C   UNL     1       4.450  -0.500  -1.581  0.00  0.00     0.271 C 
BRANCH  23  24
HETATM   24  N   UNL     1       5.395   0.335  -0.835  0.00  0.00     0.087 N 
HETATM   25  H   UNL     1       4.886   0.837  -0.106  0.00  0.00     0.316 HD
BRANCH  24  26
HETATM   26  C   UNL     1       6.154   1.296  -1.644  0.00  0.00     0.212 C 
HETATM   27  C   UNL     1       5.250   2.317  -2.334  0.00  0.00     0.042 C 
HETATM   28  C   UNL     1       7.156   2.009  -0.734  0.00  0.00     0.042 C 
ENDBRANCH  24  26
ENDBRANCH  23  24
ENDBRANCH  22  23
ENDBRANCH  21  22
ENDBRANCH   1  21
BRANCH   5  29
HETATM   29  N   UNL     1       7.562  -7.389  -4.886  0.00  0.00    -0.382 N 
HETATM   30  H   UNL     1       8.314  -6.921  -5.380  0.00  0.00     0.157 HD
HETATM   31  H   UNL     1       7.681  -8.365  -4.653  0.00  0.00     0.157 HD
ENDBRANCH   5  29
TORSDOF 8
