MODEL 1
REMARK VINA RESULT:    -7.144      0.000      0.000
REMARK INTER + INTRA:          -8.662
REMARK INTER:                  -8.317
REMARK INTRA:                  -0.345
REMARK UNBOUND:                -0.474
REMARK  3 active torsions:
REMARK  status: ('A' for Active; 'I' for Inactive)
REMARK    1  A    between atoms: C_4  and  N_5 
REMARK    2  A    between atoms: N_9  and  C_12 
REMARK    3  A    between atoms: C_12  and  C_13 
ROOT
HETATM    1  C   UNL     1       5.814   7.847  16.925  0.00  0.00     0.071 C 
HETATM    2  C   UNL     1       5.294   8.960  17.787  0.00  0.00     0.048 A 
HETATM    3  N   UNL     1       4.683   9.988  17.142  0.00  0.00    -0.223 NA
HETATM    4  C   UNL     1       4.241  11.031  17.849  0.00  0.00     0.201 A 
HETATM    5  N   UNL     1       4.358  11.217  19.169  0.00  0.00    -0.200 NA
HETATM    6  C   UNL     1       4.902  10.170  19.811  0.00  0.00     0.145 A 
HETATM    7  C   UNL     1       5.393   9.022  19.188  0.00  0.00     0.036 A 
HETATM    8  N   UNL     1       5.099  10.043  21.180  0.00  0.00    -0.335 N 
HETATM    9  C   UNL     1       5.720   8.829  21.413  0.00  0.00     0.094 A 
HETATM   10  C   UNL     1       5.926   8.193  20.206  0.00  0.00     0.034 A 
ENDROOT
BRANCH   8  11
HETATM   11  C   UNL     1       5.004  11.112  22.192  0.00  0.00     0.189 C 
BRANCH  11  12
HETATM   12  C   UNL     1       5.999  12.264  22.102  0.00  0.00     0.059 C 
HETATM   13  C   UNL     1       5.702  13.574  22.493  0.00  0.00    -0.029 C 
HETATM   14  C   UNL     1       4.297  13.973  22.852  0.00  0.00     0.051 C 
HETATM   15  C   UNL     1       6.717  14.559  22.485  0.00  0.00    -0.047 C 
HETATM   16  C   UNL     1       6.526  15.861  23.220  0.00  0.00     0.049 C 
HETATM   17  C   UNL     1       7.898  14.307  21.778  0.00  0.00    -0.038 C 
HETATM   18  C   UNL     1       8.055  13.022  21.272  0.00  0.00     0.124 C 
HETATM   19  C   UNL     1       8.927  15.366  21.484  0.00  0.00     0.050 C 
HETATM   20  N   UNL     1       7.177  11.998  21.474  0.00  0.00    -0.263 NA
ENDBRANCH  11  12
ENDBRANCH   8  11
BRANCH   4  21
HETATM   21  N   UNL     1       3.613  12.016  17.104  0.00  0.00    -0.271 NA
HETATM   22  H   UNL     1       3.230  12.705  17.732  0.00  0.00     0.127 HD
HETATM   23  H   UNL     1       2.981  11.583  16.445  0.00  0.00     0.127 HD
ENDBRANCH   4  21
TORSDOF 3
ENDMDL
MODEL 2
REMARK VINA RESULT:    -7.082      4.738      6.283
REMARK INTER + INTRA:          -8.591
REMARK INTER:                  -8.224
REMARK INTRA:                  -0.367
REMARK UNBOUND:                -0.474
REMARK  3 active torsions:
REMARK  status: ('A' for Active; 'I' for Inactive)
REMARK    1  A    between atoms: C_4  and  N_5 
REMARK    2  A    between atoms: N_9  and  C_12 
REMARK    3  A    between atoms: C_12  and  C_13 
ROOT
HETATM    1  C   UNL     1      -3.225  13.466  20.737  0.00  0.00     0.071 C 
HETATM    2  C   UNL     1      -2.282  12.980  21.799  0.00  0.00     0.048 A 
HETATM    3  N   UNL     1      -2.846  12.374  22.876  0.00  0.00    -0.223 NA
HETATM    4  C   UNL     1      -2.063  11.963  23.876  0.00  0.00     0.201 A 
HETATM    5  N   UNL     1      -0.736  12.105  23.973  0.00  0.00    -0.200 NA
HETATM    6  C   UNL     1      -0.175  12.643  22.877  0.00  0.00     0.145 A 
HETATM    7  C   UNL     1      -0.882  13.104  21.765  0.00  0.00     0.036 A 
HETATM    8  N   UNL     1       1.178  12.862  22.656  0.00  0.00    -0.335 N 
HETATM    9  C   UNL     1       1.319  13.467  21.419  0.00  0.00     0.094 A 
HETATM   10  C   UNL     1       0.069  13.641  20.862  0.00  0.00     0.034 A 
ENDROOT
BRANCH   8  11
HETATM   11  C   UNL     1       2.260  12.802  23.656  0.00  0.00     0.189 C 
BRANCH  11  12
HETATM   12  C   UNL     1       3.681  13.092  23.183  0.00  0.00     0.059 C 
HETATM   13  C   UNL     1       4.285  14.351  23.278  0.00  0.00    -0.029 C 
HETATM   14  C   UNL     1       3.490  15.561  23.683  0.00  0.00     0.051 C 
HETATM   15  C   UNL     1       5.645  14.508  22.921  0.00  0.00    -0.047 C 
HETATM   16  C   UNL     1       6.408  15.739  23.338  0.00  0.00     0.049 C 
HETATM   17  C   UNL     1       6.267  13.504  22.169  0.00  0.00    -0.038 C 
HETATM   18  C   UNL     1       5.540  12.336  21.973  0.00  0.00     0.124 C 
HETATM   19  C   UNL     1       7.613  13.675  21.518  0.00  0.00     0.050 C 
HETATM   20  N   UNL     1       4.311  12.090  22.511  0.00  0.00    -0.263 NA
ENDBRANCH  11  12
ENDBRANCH   8  11
BRANCH   4  21
HETATM   21  N   UNL     1      -2.730  11.338  24.919  0.00  0.00    -0.271 NA
HETATM   22  H   UNL     1      -2.066  11.115  25.643  0.00  0.00     0.127 HD
HETATM   23  H   UNL     1      -3.289  10.581  24.550  0.00  0.00     0.127 HD
ENDBRANCH   4  21
TORSDOF 3
ENDMDL
MODEL 3
REMARK VINA RESULT:    -7.056      1.253      2.166
REMARK INTER + INTRA:          -8.561
REMARK INTER:                  -8.199
REMARK INTRA:                  -0.362
REMARK UNBOUND:                -0.474
REMARK  3 active torsions:
REMARK  status: ('A' for Active; 'I' for Inactive)
REMARK    1  A    between atoms: C_4  and  N_5 
REMARK    2  A    between atoms: N_9  and  C_12 
REMARK    3  A    between atoms: C_12  and  C_13 
ROOT
HETATM    1  C   UNL     1       3.230   7.419  18.195  0.00  0.00     0.071 C 
HETATM    2  C   UNL     1       3.896   8.743  18.431  0.00  0.00     0.048 A 
HETATM    3  N   UNL     1       3.498   9.770  17.637  0.00  0.00    -0.223 NA
HETATM    4  C   UNL     1       4.088  10.961  17.766  0.00  0.00     0.201 A 
HETATM    5  N   UNL     1       5.090  11.279  18.595  0.00  0.00    -0.200 NA
HETATM    6  C   UNL     1       5.435  10.280  19.425  0.00  0.00     0.145 A 
HETATM    7  C   UNL     1       4.888   8.996  19.395  0.00  0.00     0.036 A 
HETATM    8  N   UNL     1       6.393  10.324  20.428  0.00  0.00    -0.335 N 
HETATM    9  C   UNL     1       6.458   9.074  21.016  0.00  0.00     0.094 A 
HETATM   10  C   UNL     1       5.557   8.238  20.389  0.00  0.00     0.034 A 
ENDROOT
BRANCH   8  11
HETATM   11  C   UNL     1       7.415  11.369  20.631  0.00  0.00     0.189 C 
BRANCH  11  12
HETATM   12  C   UNL     1       6.996  12.639  21.364  0.00  0.00     0.059 C 
HETATM   13  C   UNL     1       7.884  13.666  21.700  0.00  0.00    -0.029 C 
HETATM   14  C   UNL     1       9.367  13.494  21.524  0.00  0.00     0.051 C 
HETATM   15  C   UNL     1       7.392  14.861  22.277  0.00  0.00    -0.047 C 
HETATM   16  C   UNL     1       8.251  16.099  22.322  0.00  0.00     0.049 C 
HETATM   17  C   UNL     1       6.100  14.871  22.814  0.00  0.00    -0.038 C 
HETATM   18  C   UNL     1       5.324  13.741  22.581  0.00  0.00     0.124 C 
HETATM   19  C   UNL     1       5.571  15.987  23.673  0.00  0.00     0.050 C 
HETATM   20  N   UNL     1       5.716  12.675  21.826  0.00  0.00    -0.263 NA
ENDBRANCH  11  12
ENDBRANCH   8  11
BRANCH   4  21
HETATM   21  N   UNL     1       3.596  11.948  16.927  0.00  0.00    -0.271 NA
HETATM   22  H   UNL     1       2.648  11.718  16.674  0.00  0.00     0.127 HD
HETATM   23  H   UNL     1       4.254  12.105  16.176  0.00  0.00     0.127 HD
ENDBRANCH   4  21
TORSDOF 3
ENDMDL
MODEL 4
REMARK VINA RESULT:    -7.012      1.802      6.780
REMARK INTER + INTRA:          -8.510
REMARK INTER:                  -8.140
REMARK INTRA:                  -0.370
REMARK UNBOUND:                -0.474
REMARK  3 active torsions:
REMARK  status: ('A' for Active; 'I' for Inactive)
REMARK    1  A    between atoms: C_4  and  N_5 
REMARK    2  A    between atoms: N_9  and  C_12 
REMARK    3  A    between atoms: C_12  and  C_13 
ROOT
HETATM    1  C   UNL     1       5.800  16.081  23.689  0.00  0.00     0.071 C 
HETATM    2  C   UNL     1       6.627  15.157  22.844  0.00  0.00     0.048 A 
HETATM    3  N   UNL     1       7.919  15.523  22.637  0.00  0.00    -0.223 NA
HETATM    4  C   UNL     1       8.693  14.767  21.854  0.00  0.00     0.201 A 
HETATM    5  N   UNL     1       8.333  13.662  21.190  0.00  0.00    -0.200 NA
HETATM    6  C   UNL     1       7.076  13.267  21.451  0.00  0.00     0.145 A 
HETATM    7  C   UNL     1       6.173  13.963  22.256  0.00  0.00     0.036 A 
HETATM    8  N   UNL     1       6.440  12.134  20.961  0.00  0.00    -0.335 N 
HETATM    9  C   UNL     1       5.145  12.125  21.446  0.00  0.00     0.094 A 
HETATM   10  C   UNL     1       4.952  13.245  22.227  0.00  0.00     0.034 A 
ENDROOT
BRANCH   8  11
HETATM   11  C   UNL     1       6.899  11.267  19.859  0.00  0.00     0.189 C 
BRANCH  11  12
HETATM   12  C   UNL     1       5.867  10.368  19.186  0.00  0.00     0.059 C 
HETATM   13  C   UNL     1       5.590   9.062  19.605  0.00  0.00    -0.029 C 
HETATM   14  C   UNL     1       6.443   8.386  20.643  0.00  0.00     0.051 C 
HETATM   15  C   UNL     1       4.537   8.337  18.999  0.00  0.00    -0.047 C 
HETATM   16  C   UNL     1       3.992   7.091  19.650  0.00  0.00     0.049 C 
HETATM   17  C   UNL     1       4.017   8.790  17.781  0.00  0.00    -0.038 C 
HETATM   18  C   UNL     1       4.464  10.030  17.340  0.00  0.00     0.124 C 
HETATM   19  C   UNL     1       3.089   7.972  16.924  0.00  0.00     0.050 C 
HETATM   20  N   UNL     1       5.311  10.841  18.038  0.00  0.00    -0.263 NA
ENDBRANCH  11  12
ENDBRANCH   8  11
BRANCH   4  21
HETATM   21  N   UNL     1       9.999  15.211  21.723  0.00  0.00    -0.271 NA
HETATM   22  H   UNL     1      10.404  15.307  22.641  0.00  0.00     0.127 HD
HETATM   23  H   UNL     1      10.017  16.021  21.119  0.00  0.00     0.127 HD
ENDBRANCH   4  21
TORSDOF 3
ENDMDL
MODEL 5
REMARK VINA RESULT:    -6.821      1.689      2.631
REMARK INTER + INTRA:          -8.291
REMARK INTER:                  -7.961
REMARK INTRA:                  -0.330
REMARK UNBOUND:                -0.474
REMARK  3 active torsions:
REMARK  status: ('A' for Active; 'I' for Inactive)
REMARK    1  A    between atoms: C_4  and  N_5 
REMARK    2  A    between atoms: N_9  and  C_12 
REMARK    3  A    between atoms: C_12  and  C_13 
ROOT
HETATM    1  C   UNL     1       3.396   8.319  16.927  0.00  0.00     0.071 C 
HETATM    2  C   UNL     1       4.380   8.381  18.058  0.00  0.00     0.048 A 
HETATM    3  N   UNL     1       4.815   7.190  18.545  0.00  0.00    -0.223 NA
HETATM    4  C   UNL     1       5.656   7.178  19.583  0.00  0.00     0.201 A 
HETATM    5  N   UNL     1       6.121   8.237  20.256  0.00  0.00    -0.200 NA
HETATM    6  C   UNL     1       5.742   9.414  19.730  0.00  0.00     0.145 A 
HETATM    7  C   UNL     1       4.877   9.558  18.644  0.00  0.00     0.036 A 
HETATM    8  N   UNL     1       6.109  10.679  20.168  0.00  0.00    -0.335 N 
HETATM    9  C   UNL     1       5.468  11.612  19.372  0.00  0.00     0.094 A 
HETATM   10  C   UNL     1       4.694  10.950  18.442  0.00  0.00     0.034 A 
ENDROOT
BRANCH   8  11
HETATM   11  C   UNL     1       6.767  11.018  21.444  0.00  0.00     0.189 C 
BRANCH  11  12
HETATM   12  C   UNL     1       7.355  12.418  21.589  0.00  0.00     0.059 C 
HETATM   13  C   UNL     1       6.655  13.497  22.139  0.00  0.00    -0.029 C 
HETATM   14  C   UNL     1       5.188  13.389  22.451  0.00  0.00     0.051 C 
HETATM   15  C   UNL     1       7.313  14.733  22.342  0.00  0.00    -0.047 C 
HETATM   16  C   UNL     1       6.708  15.784  23.238  0.00  0.00     0.049 C 
HETATM   17  C   UNL     1       8.530  14.966  21.691  0.00  0.00    -0.038 C 
HETATM   18  C   UNL     1       9.091  13.886  21.021  0.00  0.00     0.124 C 
HETATM   19  C   UNL     1       9.184  16.320  21.624  0.00  0.00     0.050 C 
HETATM   20  N   UNL     1       8.571  12.625  21.014  0.00  0.00    -0.263 NA
ENDBRANCH  11  12
ENDBRANCH   8  11
BRANCH   4  21
HETATM   21  N   UNL     1       6.059   5.916  19.992  0.00  0.00    -0.271 NA
HETATM   22  H   UNL     1       6.880   5.652  19.472  0.00  0.00     0.127 HD
HETATM   23  H   UNL     1       5.267   5.289  19.964  0.00  0.00     0.127 HD
ENDBRANCH   4  21
TORSDOF 3
ENDMDL
MODEL 6
REMARK VINA RESULT:    -6.699      1.711      3.022
REMARK INTER + INTRA:          -8.152
REMARK INTER:                  -7.730
REMARK INTRA:                  -0.421
REMARK UNBOUND:                -0.474
REMARK  3 active torsions:
REMARK  status: ('A' for Active; 'I' for Inactive)
REMARK    1  A    between atoms: C_4  and  N_5 
REMARK    2  A    between atoms: N_9  and  C_12 
REMARK    3  A    between atoms: C_12  and  C_13 
ROOT
HETATM    1  C   UNL     1       5.425   5.492  19.562  0.00  0.00     0.071 C 
HETATM    2  C   UNL     1       5.016   6.927  19.409  0.00  0.00     0.048 A 
HETATM    3  N   UNL     1       4.063   7.187  18.476  0.00  0.00    -0.223 NA
HETATM    4  C   UNL     1       3.691   8.451  18.259  0.00  0.00     0.201 A 
HETATM    5  N   UNL     1       4.183   9.549  18.847  0.00  0.00    -0.200 NA
HETATM    6  C   UNL     1       5.075   9.283  19.815  0.00  0.00     0.145 A 
HETATM    7  C   UNL     1       5.538   8.007  20.142  0.00  0.00     0.036 A 
HETATM    8  N   UNL     1       5.712  10.203  20.637  0.00  0.00    -0.335 N 
HETATM    9  C   UNL     1       6.577   9.512  21.466  0.00  0.00     0.094 A 
HETATM   10  C   UNL     1       6.501   8.167  21.170  0.00  0.00     0.034 A 
ENDROOT
BRANCH   8  11
HETATM   11  C   UNL     1       5.754  11.667  20.461  0.00  0.00     0.189 C 
BRANCH  11  12
HETATM   12  C   UNL     1       4.941  12.522  21.428  0.00  0.00     0.059 C 
HETATM   13  C   UNL     1       5.486  13.568  22.181  0.00  0.00    -0.029 C 
HETATM   14  C   UNL     1       6.972  13.794  22.227  0.00  0.00     0.051 C 
HETATM   15  C   UNL     1       4.639  14.384  22.967  0.00  0.00    -0.047 C 
HETATM   16  C   UNL     1       5.130  15.708  23.497  0.00  0.00     0.049 C 
HETATM   17  C   UNL     1       3.343  13.939  23.251  0.00  0.00    -0.038 C 
HETATM   18  C   UNL     1       2.923  12.792  22.588  0.00  0.00     0.124 C 
HETATM   19  C   UNL     1       2.453  14.588  24.276  0.00  0.00     0.050 C 
HETATM   20  N   UNL     1       3.657  12.127  21.651  0.00  0.00    -0.263 NA
ENDBRANCH  11  12
ENDBRANCH   8  11
BRANCH   4  21
HETATM   21  N   UNL     1       2.699   8.610  17.305  0.00  0.00    -0.271 NA
HETATM   22  H   UNL     1       1.802   8.451  17.738  0.00  0.00     0.127 HD
HETATM   23  H   UNL     1       2.928   8.058  16.490  0.00  0.00     0.127 HD
ENDBRANCH   4  21
TORSDOF 3
ENDMDL
MODEL 7
REMARK VINA RESULT:    -6.637      1.216      2.515
REMARK INTER + INTRA:          -8.081
REMARK INTER:                  -7.648
REMARK INTRA:                  -0.433
REMARK UNBOUND:                -0.474
REMARK  3 active torsions:
REMARK  status: ('A' for Active; 'I' for Inactive)
REMARK    1  A    between atoms: C_4  and  N_5 
REMARK    2  A    between atoms: N_9  and  C_12 
REMARK    3  A    between atoms: C_12  and  C_13 
ROOT
HETATM    1  C   UNL     1       4.278   7.578  17.283  0.00  0.00     0.071 C 
HETATM    2  C   UNL     1       4.402   8.945  17.888  0.00  0.00     0.048 A 
HETATM    3  N   UNL     1       3.807   9.961  17.210  0.00  0.00    -0.223 NA
HETATM    4  C   UNL     1       3.923  11.209  17.673  0.00  0.00     0.201 A 
HETATM    5  N   UNL     1       4.609  11.609  18.750  0.00  0.00    -0.200 NA
HETATM    6  C   UNL     1       5.139  10.595  19.454  0.00  0.00     0.145 A 
HETATM    7  C   UNL     1       5.080   9.251  19.081  0.00  0.00     0.036 A 
HETATM    8  N   UNL     1       5.851  10.688  20.642  0.00  0.00    -0.335 N 
HETATM    9  C   UNL     1       6.247   9.413  21.007  0.00  0.00     0.094 A 
HETATM   10  C   UNL     1       5.801   8.518  20.057  0.00  0.00     0.034 A 
ENDROOT
BRANCH   8  11
HETATM   11  C   UNL     1       6.405  11.913  21.249  0.00  0.00     0.189 C 
BRANCH  11  12
HETATM   12  C   UNL     1       5.494  12.726  22.163  0.00  0.00     0.059 C 
HETATM   13  C   UNL     1       5.802  14.015  22.613  0.00  0.00    -0.029 C 
HETATM   14  C   UNL     1       7.162  14.612  22.375  0.00  0.00     0.051 C 
HETATM   15  C   UNL     1       4.851  14.744  23.365  0.00  0.00    -0.047 C 
HETATM   16  C   UNL     1       5.006  16.232  23.557  0.00  0.00     0.049 C 
HETATM   17  C   UNL     1       3.770  14.061  23.933  0.00  0.00    -0.038 C 
HETATM   18  C   UNL     1       3.618  12.729  23.567  0.00  0.00     0.124 C 
HETATM   19  C   UNL     1       2.850  14.674  24.953  0.00  0.00     0.050 C 
HETATM   20  N   UNL     1       4.404  12.080  22.660  0.00  0.00    -0.263 NA
ENDBRANCH  11  12
ENDBRANCH   8  11
BRANCH   4  21
HETATM   21  N   UNL     1       3.263  12.171  16.925  0.00  0.00    -0.271 NA
HETATM   22  H   UNL     1       2.306  11.881  16.794  0.00  0.00     0.127 HD
HETATM   23  H   UNL     1       3.804  12.379  16.098  0.00  0.00     0.127 HD
ENDBRANCH   4  21
TORSDOF 3
ENDMDL
MODEL 8
REMARK VINA RESULT:    -6.537      3.009      6.146
REMARK INTER + INTRA:          -7.966
REMARK INTER:                  -7.421
REMARK INTRA:                  -0.546
REMARK UNBOUND:                -0.474
REMARK  3 active torsions:
REMARK  status: ('A' for Active; 'I' for Inactive)
REMARK    1  A    between atoms: C_4  and  N_5 
REMARK    2  A    between atoms: N_9  and  C_12 
REMARK    3  A    between atoms: C_12  and  C_13 
ROOT
HETATM    1  C   UNL     1       4.264  16.091  24.709  0.00  0.00     0.071 C 
HETATM    2  C   UNL     1       4.457  14.999  23.698  0.00  0.00     0.048 A 
HETATM    3  N   UNL     1       3.366  14.244  23.410  0.00  0.00    -0.223 NA
HETATM    4  C   UNL     1       3.486  13.226  22.554  0.00  0.00     0.201 A 
HETATM    5  N   UNL     1       4.602  12.816  21.939  0.00  0.00    -0.200 NA
HETATM    6  C   UNL     1       5.663  13.606  22.174  0.00  0.00     0.145 A 
HETATM    7  C   UNL     1       5.663  14.702  23.039  0.00  0.00     0.036 A 
HETATM    8  N   UNL     1       6.936  13.474  21.636  0.00  0.00    -0.335 N 
HETATM    9  C   UNL     1       7.733  14.471  22.169  0.00  0.00     0.094 A 
HETATM   10  C   UNL     1       6.980  15.225  23.045  0.00  0.00     0.034 A 
ENDROOT
BRANCH   8  11
HETATM   11  C   UNL     1       7.473  12.309  20.909  0.00  0.00     0.189 C 
BRANCH  11  12
HETATM   12  C   UNL     1       7.743  11.037  21.707  0.00  0.00     0.059 C 
HETATM   13  C   UNL     1       8.975  10.747  22.305  0.00  0.00    -0.029 C 
HETATM   14  C   UNL     1      10.186  11.595  22.031  0.00  0.00     0.051 C 
HETATM   15  C   UNL     1       9.107   9.600  23.124  0.00  0.00    -0.047 C 
HETATM   16  C   UNL     1      10.289   9.453  24.048  0.00  0.00     0.049 C 
HETATM   17  C   UNL     1       8.127   8.604  23.055  0.00  0.00    -0.038 C 
HETATM   18  C   UNL     1       6.996   8.898  22.303  0.00  0.00     0.124 C 
HETATM   19  C   UNL     1       8.290   7.242  23.674  0.00  0.00     0.050 C 
HETATM   20  N   UNL     1       6.760  10.096  21.696  0.00  0.00    -0.263 NA
ENDBRANCH  11  12
ENDBRANCH   8  11
BRANCH   4  21
HETATM   21  N   UNL     1       2.312  12.530  22.308  0.00  0.00    -0.271 NA
HETATM   22  H   UNL     1       1.559  12.974  22.809  0.00  0.00     0.127 HD
HETATM   23  H   UNL     1       2.468  11.546  22.476  0.00  0.00     0.127 HD
ENDBRANCH   4  21
TORSDOF 3
ENDMDL
MODEL 9
REMARK VINA RESULT:    -6.527      1.462      6.218
REMARK INTER + INTRA:          -7.954
REMARK INTER:                  -7.481
REMARK INTRA:                  -0.474
REMARK UNBOUND:                -0.474
REMARK  3 active torsions:
REMARK  status: ('A' for Active; 'I' for Inactive)
REMARK    1  A    between atoms: C_4  and  N_5 
REMARK    2  A    between atoms: N_9  and  C_12 
REMARK    3  A    between atoms: C_12  and  C_13 
ROOT
HETATM    1  C   UNL     1       9.173  16.202  21.424  0.00  0.00     0.071 C 
HETATM    2  C   UNL     1       8.758  14.764  21.517  0.00  0.00     0.048 A 
HETATM    3  N   UNL     1       9.652  13.846  21.067  0.00  0.00    -0.223 NA
HETATM    4  C   UNL     1       9.321  12.553  21.080  0.00  0.00     0.201 A 
HETATM    5  N   UNL     1       8.155  12.022  21.467  0.00  0.00    -0.200 NA
HETATM    6  C   UNL     1       7.299  12.925  21.974  0.00  0.00     0.145 A 
HETATM    7  C   UNL     1       7.531  14.301  22.025  0.00  0.00     0.036 A 
HETATM    8  N   UNL     1       6.042  12.674  22.508  0.00  0.00    -0.335 N 
HETATM    9  C   UNL     1       5.483  13.883  22.880  0.00  0.00     0.094 A 
HETATM   10  C   UNL     1       6.369  14.897  22.577  0.00  0.00     0.034 A 
ENDROOT
BRANCH   8  11
HETATM   11  C   UNL     1       5.268  11.423  22.399  0.00  0.00     0.189 C 
BRANCH  11  12
HETATM   12  C   UNL     1       5.064  10.833  21.007  0.00  0.00     0.059 C 
HETATM   13  C   UNL     1       5.525   9.567  20.630  0.00  0.00    -0.029 C 
HETATM   14  C   UNL     1       6.433   8.775  21.530  0.00  0.00     0.051 C 
HETATM   15  C   UNL     1       5.195   9.049  19.355  0.00  0.00    -0.047 C 
HETATM   16  C   UNL     1       5.368   7.582  19.058  0.00  0.00     0.049 C 
HETATM   17  C   UNL     1       4.711   9.923  18.375  0.00  0.00    -0.038 C 
HETATM   18  C   UNL     1       4.428  11.220  18.786  0.00  0.00     0.124 C 
HETATM   19  C   UNL     1       4.574   9.542  16.925  0.00  0.00     0.050 C 
HETATM   20  N   UNL     1       4.529  11.664  20.071  0.00  0.00    -0.263 NA
ENDBRANCH  11  12
ENDBRANCH   8  11
BRANCH   4  21
HETATM   21  N   UNL     1      10.308  11.694  20.621  0.00  0.00    -0.271 NA
HETATM   22  H   UNL     1       9.879  10.831  20.327  0.00  0.00     0.127 HD
HETATM   23  H   UNL     1      11.045  11.637  21.310  0.00  0.00     0.127 HD
ENDBRANCH   4  21
TORSDOF 3
ENDMDL
