MODEL 1
REMARK minimizedAffinity 14.0484686
REMARK minimizedRMSD -1
REMARK  9 active torsions:
REMARK  status: ('A' for Active; 'I' for Inactive)
REMARK    1  A    between atoms: N_2  and  C_4 
REMARK    2  A    between atoms: C_4  and  C_5 
REMARK    3  A    between atoms: C_5  and  N_6 
REMARK    4  A    between atoms: N_6  and  C_7 
REMARK    5  A    between atoms: C_20  and  O_21 
REMARK    6  A    between atoms: C_23  and  O_24 
REMARK    7  A    between atoms: O_24  and  C_25 
REMARK       I    between atoms: C_25  and  N_26 
REMARK    8  A    between atoms: C_33  and  O_34 
REMARK    9  A    between atoms: C_35  and  O_36 
ROOT
HETATM    1  C   UNL     1       4.583   5.398  27.918  0.00  0.00     0.066 C 
HETATM    2  C   UNL     1       6.170   4.568  27.328  0.00  0.00     0.182 C 
HETATM    3  O   UNL     1       7.139   4.293  28.052  0.00  0.00    -0.290 OA
HETATM    4  C   UNL     1       6.432   3.851  26.102  0.00  0.00     0.133 C 
HETATM    5  C   UNL     1       5.672   4.738  25.523  0.00  0.00     0.076 C 
HETATM    6  N   UNL     1       6.367   5.265  24.516  0.00  0.00    -0.326 N 
HETATM    7  C   UNL     1       5.526   5.833  23.697  0.00  0.00     0.232 C 
HETATM    8  O   UNL     1       4.518   5.319  23.258  0.00  0.00    -0.272 OA
HETATM    9  C   UNL     1       5.808   7.230  23.930  0.00  0.00     0.062 C 
HETATM   10  C   UNL     1       6.767   7.506  22.861  0.00  0.00     0.027 C 
HETATM   11  C   UNL     1       4.648   7.687  24.385  0.00  0.00     0.035 C 
HETATM   12  C   UNL     1       3.773   8.221  23.429  0.00  0.00    -0.021 C 
HETATM   13  C   UNL     1       3.080   9.230  23.905  0.00  0.00     0.004 C 
HETATM   14  C   UNL     1       2.847  10.374  23.023  0.00  0.00     0.177 C 
HETATM   15  C   UNL     1       1.971  11.295  23.747  0.00  0.00     0.194 C 
HETATM   16  C   UNL     1       1.519  12.496  22.999  0.00  0.00    -0.055 C 
HETATM   17  C   UNL     1       1.753  12.532  21.524  0.00  0.00     0.046 C 
HETATM   18  C   UNL     1       0.966  13.524  23.667  0.00  0.00    -0.015 C 
HETATM   19  C   UNL     1       0.055  14.436  22.958  0.00  0.00     0.035 C 
HETATM   20  C   UNL     1       0.734  15.701  22.573  0.00  0.00     0.017 C 
HETATM   21  C   UNL     1      -1.232  14.225  23.760  0.00  0.00     0.154 C 
HETATM   22  C   UNL     1      -1.428  12.393  23.528  0.00  0.00     0.150 C 
HETATM   23  C   UNL     1      -0.447  10.730  24.206  0.00  0.00     0.039 C 
HETATM   24  C   UNL     1       0.500   9.372  25.528  0.00  0.00    -0.012 C 
HETATM   25  C   UNL     1      -0.726  10.422  26.541  0.00  0.00     0.010 C 
HETATM   26  C   UNL     1       1.919   7.981  26.473  0.00  0.00     0.049 C 
HETATM   27  C   UNL     1       3.361   6.364  26.886  0.00  0.00     0.019 C 
HETATM   28  C   UNL     1       4.020   5.109  25.959  0.00  0.00     0.203 C 
HETATM   29  O   UNL     1       3.374   4.048  26.038  0.00  0.00    -0.286 OA
HETATM   30  H   UNL     1       7.329   5.059  24.233  0.00  0.00     0.168 HD
ENDROOT
BRANCH   1  31
HETATM   31  N   UNL     1       4.922   4.015  29.223  0.00  0.00    -0.288 NA
HETATM   32  H   UNL     1       5.102   4.761  29.914  0.00  0.00     0.127 HD
BRANCH  31  33
HETATM   33  C   UNL     1       4.252   3.277  30.890  0.00  0.00     0.112 C 
BRANCH  33  34
HETATM   34  C   UNL     1       2.892   3.269  32.304  0.00  0.00     0.130 C 
BRANCH  34  35
HETATM   35  N   UNL     1       1.463   3.889  32.674  0.00  0.00    -0.420 N 
HETATM   36  C   UNL     1       1.306   5.341  32.674  0.00  0.00     0.142 C 
HETATM   37  C   UNL     1       0.234   3.275  32.152  0.00  0.00     0.142 C 
ENDBRANCH  34  35
ENDBRANCH  33  34
ENDBRANCH  31  33
ENDBRANCH   1  31
BRANCH  22  38
HETATM   38  O   UNL     1      -2.741  12.583  22.427  0.00  0.00    -0.388 OA
HETATM   39  C   UNL     1      -2.723  13.213  20.991  0.00  0.00     0.202 C 
ENDBRANCH  22  38
BRANCH  21  40
HETATM   40  O   UNL     1      -1.290  15.022  24.956  0.00  0.00    -0.392 OA
HETATM   41  H   UNL     1      -0.740  14.724  25.688  0.00  0.00     0.210 HD
ENDBRANCH  21  40
BRANCH  14  42
HETATM   42  O   UNL     1       3.966  11.191  22.862  0.00  0.00    -0.384 OA
HETATM   43  C   UNL     1       4.941  10.544  22.135  0.00  0.00     0.202 C 
ENDBRANCH  14  42
BRANCH  15  44
HETATM   44  O   UNL     1       2.288  11.561  25.139  0.00  0.00    -0.291 OA
BRANCH  44  45
HETATM   45  C   UNL     1       3.378  12.331  25.357  0.00  0.00     0.359 C 
HETATM   46  N   UNL     1       4.423  11.608  25.812  0.00  0.00    -0.346 N 
HETATM   47  H   UNL     1       4.474  10.604  25.795  0.00  0.00     0.161 HD
HETATM   48  H   UNL     1       5.150  12.167  26.234  0.00  0.00     0.161 HD
HETATM   49  O   UNL     1       3.455  13.550  25.343  0.00  0.00    -0.239 OA
ENDBRANCH  44  45
ENDBRANCH  15  44
TORSDOF 9
ENDMDL
