MODEL 1
REMARK VINA RESULT:    -8.021      0.000      0.000
REMARK INTER + INTRA:         -11.394
REMARK INTER:                  -9.785
REMARK INTRA:                  -1.609
REMARK UNBOUND:                -1.497
REMARK  4 active torsions:
REMARK  status: ('A' for Active; 'I' for Inactive)
REMARK    1  A    between atoms: N_10  and  C_14 
REMARK    2  A    between atoms: C_17  and  C_18 
REMARK       I    between atoms: C_18  and  N_20 
REMARK    3  A    between atoms: C_22  and  N_23 
REMARK    4  A    between atoms: N_23  and  C_24 
ROOT
HETATM    1  C   UNL     1       3.922   7.649  23.139  0.00  0.00     0.041 C 
HETATM    2  C   UNL     1       4.311   8.854  22.551  0.00  0.00     0.031 C 
HETATM    3  C   UNL     1       4.292   9.013  21.163  0.00  0.00     0.022 C 
HETATM    4  C   UNL     1       3.890   7.960  20.336  0.00  0.00     0.058 C 
HETATM    5  C   UNL     1       3.690   6.553  22.285  0.00  0.00     0.060 C 
HETATM    6  C   UNL     1       3.583   6.699  20.893  0.00  0.00     0.046 C 
ENDROOT
BRANCH   1   7
HETATM    7  N   UNL     1       3.658   7.521  24.555  0.00  0.00    -0.324 N 
HETATM    8  C   UNL     1       2.562   7.956  25.304  0.00  0.00     0.031 C 
HETATM    9  C   UNL     1       1.323   8.641  24.808  0.00  0.00     0.067 C 
HETATM   10  C   UNL     1       2.761   7.610  26.636  0.00  0.00     0.040 C 
HETATM   11  C   UNL     1       0.178   8.645  25.864  0.00  0.00    -0.036 C 
HETATM   12  C   UNL     1       0.731   8.970  27.268  0.00  0.00     0.093 C 
HETATM   13  C   UNL     1      -0.552   7.284  25.884  0.00  0.00     0.015 C 
HETATM   14  C   UNL     1      -0.845   9.726  25.465  0.00  0.00     0.015 C 
HETATM   15  C   UNL     1       1.832   8.006  27.688  0.00  0.00     0.162 C 
HETATM   16  O   UNL     1       1.956   7.647  28.858  0.00  0.00    -0.292 OA
HETATM   17  C   UNL     1       3.907   6.792  26.704  0.00  0.00    -0.030 C 
HETATM   18  C   UNL     1       4.447   6.789  25.437  0.00  0.00     0.105 C 
HETATM   19  C   UNL     1       4.408   6.052  27.891  0.00  0.00     0.050 C 
ENDBRANCH   1   7
BRANCH   6  20
HETATM   20  N   UNL     1       3.217   5.644  20.063  0.00  0.00    -0.384 N 
HETATM   21  H   UNL     1       3.675   5.753  19.148  0.00  0.00     0.160 HD
BRANCH  20  22
HETATM   22  C   UNL     1       1.957   4.913  20.062  0.00  0.00     0.082 C 
HETATM   23  C   UNL     1       2.202   3.474  19.584  0.00  0.00     0.032 C 
HETATM   24  C   UNL     1       2.701   3.411  18.140  0.00  0.00     0.080 C 
HETATM   25  C   UNL     1       1.845   4.251  17.216  0.00  0.00     0.127 C 
HETATM   26  C   UNL     1       1.491   5.644  17.677  0.00  0.00     0.080 C 
HETATM   27  O   UNL     1       1.543   3.857  16.090  0.00  0.00    -0.298 OA
HETATM   28  C   UNL     1       0.966   5.598  19.107  0.00  0.00     0.032 C 
ENDBRANCH  20  22
ENDBRANCH   6  20
BRANCH   4  29
HETATM   29  C   UNL     1       3.716   8.206  18.874  0.00  0.00     0.251 C 
HETATM   30  O   UNL     1       4.460   7.710  18.038  0.00  0.00    -0.268 OA
HETATM   31  N   UNL     1       2.675   9.011  18.484  0.00  0.00    -0.366 N 
HETATM   32  H   UNL     1       2.151   9.591  19.122  0.00  0.00     0.159 HD
HETATM   33  H   UNL     1       2.611   9.222  17.495  0.00  0.00     0.159 HD
ENDBRANCH   4  29
TORSDOF 4
ENDMDL
MODEL 2
REMARK VINA RESULT:    -8.001      3.008      4.782
REMARK INTER + INTRA:         -11.370
REMARK INTER:                 -10.224
REMARK INTRA:                  -1.145
REMARK UNBOUND:                -1.497
REMARK  4 active torsions:
REMARK  status: ('A' for Active; 'I' for Inactive)
REMARK    1  A    between atoms: N_10  and  C_14 
REMARK    2  A    between atoms: C_17  and  C_18 
REMARK       I    between atoms: C_18  and  N_20 
REMARK    3  A    between atoms: C_22  and  N_23 
REMARK    4  A    between atoms: N_23  and  C_24 
ROOT
HETATM    1  C   UNL     1       1.381   7.141  25.586  0.00  0.00     0.041 C 
HETATM    2  C   UNL     1       1.556   5.825  26.017  0.00  0.00     0.031 C 
HETATM    3  C   UNL     1       2.380   4.943  25.311  0.00  0.00     0.022 C 
HETATM    4  C   UNL     1       3.038   5.365  24.152  0.00  0.00     0.058 C 
HETATM    5  C   UNL     1       1.911   7.490  24.327  0.00  0.00     0.060 C 
HETATM    6  C   UNL     1       2.806   6.659  23.636  0.00  0.00     0.046 C 
ENDROOT
BRANCH   1   7
HETATM    7  N   UNL     1       0.776   8.160  26.414  0.00  0.00    -0.324 N 
HETATM    8  C   UNL     1       0.186   9.373  26.052  0.00  0.00     0.031 C 
HETATM    9  C   UNL     1      -0.020   9.920  24.670  0.00  0.00     0.067 C 
HETATM   10  C   UNL     1      -0.250  10.022  27.201  0.00  0.00     0.040 C 
HETATM   11  C   UNL     1      -1.023  11.110  24.641  0.00  0.00    -0.036 C 
HETATM   12  C   UNL     1      -0.765  12.071  25.821  0.00  0.00     0.093 C 
HETATM   13  C   UNL     1      -2.480  10.599  24.683  0.00  0.00     0.015 C 
HETATM   14  C   UNL     1      -0.828  11.876  23.318  0.00  0.00     0.015 C 
HETATM   15  C   UNL     1      -0.830  11.360  27.165  0.00  0.00     0.162 C 
HETATM   16  O   UNL     1      -1.286  11.917  28.162  0.00  0.00    -0.292 OA
HETATM   17  C   UNL     1      -0.098   9.134  28.285  0.00  0.00    -0.030 C 
HETATM   18  C   UNL     1       0.560   8.033  27.782  0.00  0.00     0.105 C 
HETATM   19  C   UNL     1      -0.582   9.328  29.676  0.00  0.00     0.050 C 
ENDBRANCH   1   7
BRANCH   6  20
HETATM   20  N   UNL     1       3.436   7.062  22.463  0.00  0.00    -0.384 N 
HETATM   21  H   UNL     1       3.333   6.327  21.749  0.00  0.00     0.160 HD
BRANCH  20  22
HETATM   22  C   UNL     1       4.609   7.916  22.335  0.00  0.00     0.082 C 
HETATM   23  C   UNL     1       4.348   8.984  21.263  0.00  0.00     0.032 C 
HETATM   24  C   UNL     1       4.137   8.384  19.872  0.00  0.00     0.080 C 
HETATM   25  C   UNL     1       5.222   7.387  19.524  0.00  0.00     0.127 C 
HETATM   26  C   UNL     1       5.589   6.369  20.577  0.00  0.00     0.080 C 
HETATM   27  O   UNL     1       5.705   7.337  18.394  0.00  0.00    -0.298 OA
HETATM   28  C   UNL     1       5.819   7.067  21.912  0.00  0.00     0.032 C 
ENDBRANCH  20  22
ENDBRANCH   6  20
BRANCH   4  29
HETATM   29  C   UNL     1       4.041   4.462  23.513  0.00  0.00     0.251 C 
HETATM   30  O   UNL     1       3.840   3.931  22.429  0.00  0.00    -0.268 OA
HETATM   31  N   UNL     1       5.219   4.246  24.182  0.00  0.00    -0.366 N 
HETATM   32  H   UNL     1       5.365   4.499  25.148  0.00  0.00     0.159 HD
HETATM   33  H   UNL     1       5.860   3.580  23.768  0.00  0.00     0.159 HD
ENDBRANCH   4  29
TORSDOF 4
ENDMDL
MODEL 3
REMARK VINA RESULT:    -7.976      1.830      8.021
REMARK INTER + INTRA:         -11.338
REMARK INTER:                  -9.747
REMARK INTRA:                  -1.591
REMARK UNBOUND:                -1.497
REMARK  4 active torsions:
REMARK  status: ('A' for Active; 'I' for Inactive)
REMARK    1  A    between atoms: N_10  and  C_14 
REMARK    2  A    between atoms: C_17  and  C_18 
REMARK       I    between atoms: C_18  and  N_20 
REMARK    3  A    between atoms: C_22  and  N_23 
REMARK    4  A    between atoms: N_23  and  C_24 
ROOT
HETATM    1  C   UNL     1       4.365   7.257  23.470  0.00  0.00     0.041 C 
HETATM    2  C   UNL     1       5.016   6.500  24.445  0.00  0.00     0.031 C 
HETATM    3  C   UNL     1       4.506   6.414  25.744  0.00  0.00     0.022 C 
HETATM    4  C   UNL     1       3.336   7.095  26.090  0.00  0.00     0.058 C 
HETATM    5  C   UNL     1       3.291   8.071  23.885  0.00  0.00     0.060 C 
HETATM    6  C   UNL     1       2.706   7.946  25.155  0.00  0.00     0.046 C 
ENDROOT
BRANCH   1   7
HETATM    7  N   UNL     1       4.686   7.159  22.063  0.00  0.00    -0.324 N 
HETATM    8  C   UNL     1       4.120   6.355  21.071  0.00  0.00     0.031 C 
HETATM    9  C   UNL     1       2.970   5.400  21.205  0.00  0.00     0.067 C 
HETATM   10  C   UNL     1       4.766   6.605  19.866  0.00  0.00     0.040 C 
HETATM   11  C   UNL     1       2.393   4.962  19.827  0.00  0.00    -0.036 C 
HETATM   12  C   UNL     1       3.531   4.666  18.827  0.00  0.00     0.093 C 
HETATM   13  C   UNL     1       1.455   6.048  19.256  0.00  0.00     0.015 C 
HETATM   14  C   UNL     1       1.562   3.681  20.036  0.00  0.00     0.015 C 
HETATM   15  C   UNL     1       4.465   5.854  18.652  0.00  0.00     0.162 C 
HETATM   16  O   UNL     1       4.976   6.112  17.564  0.00  0.00    -0.292 OA
HETATM   17  C   UNL     1       5.628   7.705  20.056  0.00  0.00    -0.030 C 
HETATM   18  C   UNL     1       5.585   7.991  21.403  0.00  0.00     0.105 C 
HETATM   19  C   UNL     1       6.396   8.431  19.012  0.00  0.00     0.050 C 
ENDBRANCH   1   7
BRANCH   6  20
HETATM   20  N   UNL     1       1.562   8.649  25.515  0.00  0.00    -0.384 N 
HETATM   21  H   UNL     1       1.700   9.078  26.441  0.00  0.00     0.160 HD
BRANCH  20  22
HETATM   22  C   UNL     1       0.184   8.345  25.153  0.00  0.00     0.082 C 
HETATM   23  C   UNL     1      -0.518   9.631  24.692  0.00  0.00     0.032 C 
HETATM   24  C   UNL     1      -0.620  10.676  25.802  0.00  0.00     0.080 C 
HETATM   25  C   UNL     1      -1.163  10.081  27.083  0.00  0.00     0.127 C 
HETATM   26  C   UNL     1      -0.576   8.766  27.538  0.00  0.00     0.080 C 
HETATM   27  O   UNL     1      -1.968  10.693  27.783  0.00  0.00    -0.298 OA
HETATM   28  C   UNL     1      -0.557   7.780  26.375  0.00  0.00     0.032 C 
ENDBRANCH  20  22
ENDBRANCH   6  20
BRANCH   4  29
HETATM   29  C   UNL     1       2.720   6.853  27.429  0.00  0.00     0.251 C 
HETATM   30  O   UNL     1       2.703   7.711  28.301  0.00  0.00    -0.268 OA
HETATM   31  N   UNL     1       2.155   5.623  27.656  0.00  0.00    -0.366 N 
HETATM   32  H   UNL     1       2.300   4.824  27.056  0.00  0.00     0.159 HD
HETATM   33  H   UNL     1       1.801   5.452  28.589  0.00  0.00     0.159 HD
ENDBRANCH   4  29
TORSDOF 4
ENDMDL
MODEL 4
REMARK VINA RESULT:    -7.891      2.289      3.073
REMARK INTER + INTRA:         -11.233
REMARK INTER:                 -10.014
REMARK INTRA:                  -1.219
REMARK UNBOUND:                -1.497
REMARK  4 active torsions:
REMARK  status: ('A' for Active; 'I' for Inactive)
REMARK    1  A    between atoms: N_10  and  C_14 
REMARK    2  A    between atoms: C_17  and  C_18 
REMARK       I    between atoms: C_18  and  N_20 
REMARK    3  A    between atoms: C_22  and  N_23 
REMARK    4  A    between atoms: N_23  and  C_24 
ROOT
HETATM    1  C   UNL     1       3.006   8.859  23.799  0.00  0.00     0.041 C 
HETATM    2  C   UNL     1       3.737   9.941  23.304  0.00  0.00     0.031 C 
HETATM    3  C   UNL     1       4.530   9.807  22.162  0.00  0.00     0.022 C 
HETATM    4  C   UNL     1       4.613   8.580  21.498  0.00  0.00     0.058 C 
HETATM    5  C   UNL     1       3.240   7.595  23.219  0.00  0.00     0.060 C 
HETATM    6  C   UNL     1       3.964   7.442  22.026  0.00  0.00     0.046 C 
ENDROOT
BRANCH   1   7
HETATM    7  N   UNL     1       1.968   9.007  24.794  0.00  0.00    -0.324 N 
HETATM    8  C   UNL     1       1.088  10.069  25.017  0.00  0.00     0.031 C 
HETATM    9  C   UNL     1       0.958  11.338  24.227  0.00  0.00     0.067 C 
HETATM   10  C   UNL     1       0.271   9.757  26.098  0.00  0.00     0.040 C 
HETATM   11  C   UNL     1      -0.357  12.109  24.545  0.00  0.00    -0.036 C 
HETATM   12  C   UNL     1      -0.635  12.112  26.064  0.00  0.00     0.093 C 
HETATM   13  C   UNL     1      -1.552  11.488  23.789  0.00  0.00     0.015 C 
HETATM   14  C   UNL     1      -0.195  13.563  24.061  0.00  0.00     0.015 C 
HETATM   15  C   UNL     1      -0.698  10.705  26.638  0.00  0.00     0.162 C 
HETATM   16  O   UNL     1      -1.476  10.418  27.547  0.00  0.00    -0.292 OA
HETATM   17  C   UNL     1       0.513   8.415  26.451  0.00  0.00    -0.030 C 
HETATM   18  C   UNL     1       1.571   8.002  25.670  0.00  0.00     0.105 C 
HETATM   19  C   UNL     1      -0.241   7.598  27.437  0.00  0.00     0.050 C 
ENDBRANCH   1   7
BRANCH   6  20
HETATM   20  N   UNL     1       4.077   6.215  21.381  0.00  0.00    -0.384 N 
HETATM   21  H   UNL     1       4.944   6.199  20.827  0.00  0.00     0.160 HD
BRANCH  20  22
HETATM   22  C   UNL     1       2.998   5.362  20.903  0.00  0.00     0.082 C 
HETATM   23  C   UNL     1       3.269   3.911  21.326  0.00  0.00     0.032 C 
HETATM   24  C   UNL     1       4.539   3.340  20.694  0.00  0.00     0.080 C 
HETATM   25  C   UNL     1       4.577   3.584  19.201  0.00  0.00     0.127 C 
HETATM   26  C   UNL     1       4.227   4.970  18.717  0.00  0.00     0.080 C 
HETATM   27  O   UNL     1       4.983   2.721  18.423  0.00  0.00    -0.298 OA
HETATM   28  C   UNL     1       2.929   5.432  19.369  0.00  0.00     0.032 C 
ENDBRANCH  20  22
ENDBRANCH   6  20
BRANCH   4  29
HETATM   29  C   UNL     1       5.329   8.505  20.189  0.00  0.00     0.251 C 
HETATM   30  O   UNL     1       4.729   8.432  19.124  0.00  0.00    -0.268 OA
HETATM   31  N   UNL     1       6.700   8.529  20.213  0.00  0.00    -0.366 N 
HETATM   32  H   UNL     1       7.245   8.400  21.053  0.00  0.00     0.159 HD
HETATM   33  H   UNL     1       7.171   8.410  19.324  0.00  0.00     0.159 HD
ENDBRANCH   4  29
TORSDOF 4
ENDMDL
MODEL 5
REMARK VINA RESULT:    -7.722      1.868      2.151
REMARK INTER + INTRA:         -11.026
REMARK INTER:                  -9.548
REMARK INTRA:                  -1.477
REMARK UNBOUND:                -1.497
REMARK  4 active torsions:
REMARK  status: ('A' for Active; 'I' for Inactive)
REMARK    1  A    between atoms: N_10  and  C_14 
REMARK    2  A    between atoms: C_17  and  C_18 
REMARK       I    between atoms: C_18  and  N_20 
REMARK    3  A    between atoms: C_22  and  N_23 
REMARK    4  A    between atoms: N_23  and  C_24 
ROOT
HETATM    1  C   UNL     1       3.935   5.916  22.808  0.00  0.00     0.041 C 
HETATM    2  C   UNL     1       5.261   6.347  22.733  0.00  0.00     0.031 C 
HETATM    3  C   UNL     1       5.814   6.756  21.516  0.00  0.00     0.022 C 
HETATM    4  C   UNL     1       5.048   6.731  20.347  0.00  0.00     0.058 C 
HETATM    5  C   UNL     1       3.240   5.735  21.595  0.00  0.00     0.060 C 
HETATM    6  C   UNL     1       3.734   6.210  20.371  0.00  0.00     0.046 C 
ENDROOT
BRANCH   1   7
HETATM    7  N   UNL     1       3.238   5.751  24.063  0.00  0.00    -0.324 N 
HETATM    8  C   UNL     1       2.475   6.669  24.790  0.00  0.00     0.031 C 
HETATM    9  C   UNL     1       2.134   8.082  24.417  0.00  0.00     0.067 C 
HETATM   10  C   UNL     1       2.009   6.051  25.945  0.00  0.00     0.040 C 
HETATM   11  C   UNL     1       0.980   8.667  25.284  0.00  0.00    -0.036 C 
HETATM   12  C   UNL     1       1.161   8.281  26.768  0.00  0.00     0.093 C 
HETATM   13  C   UNL     1      -0.392   8.175  24.773  0.00  0.00     0.015 C 
HETATM   14  C   UNL     1       1.010  10.202  25.156  0.00  0.00     0.015 C 
HETATM   15  C   UNL     1       1.254   6.775  26.962  0.00  0.00     0.162 C 
HETATM   16  O   UNL     1       0.774   6.227  27.953  0.00  0.00    -0.292 OA
HETATM   17  C   UNL     1       2.329   4.681  25.863  0.00  0.00    -0.030 C 
HETATM   18  C   UNL     1       3.105   4.540  24.734  0.00  0.00     0.105 C 
HETATM   19  C   UNL     1       1.888   3.603  26.785  0.00  0.00     0.050 C 
ENDBRANCH   1   7
BRANCH   6  20
HETATM   20  N   UNL     1       2.988   6.155  19.198  0.00  0.00    -0.384 N 
HETATM   21  H   UNL     1       3.615   5.978  18.401  0.00  0.00     0.160 HD
BRANCH  20  22
HETATM   22  C   UNL     1       1.759   6.876  18.896  0.00  0.00     0.082 C 
HETATM   23  C   UNL     1       0.642   5.870  18.582  0.00  0.00     0.032 C 
HETATM   24  C   UNL     1       0.933   5.037  17.334  0.00  0.00     0.080 C 
HETATM   25  C   UNL     1       1.352   5.905  16.167  0.00  0.00     0.127 C 
HETATM   26  C   UNL     1       2.380   6.978  16.437  0.00  0.00     0.080 C 
HETATM   27  O   UNL     1       0.954   5.678  15.025  0.00  0.00    -0.298 OA
HETATM   28  C   UNL     1       1.980   7.778  17.671  0.00  0.00     0.032 C 
ENDBRANCH  20  22
ENDBRANCH   6  20
BRANCH   4  29
HETATM   29  C   UNL     1       5.604   7.329  19.097  0.00  0.00     0.251 C 
HETATM   30  O   UNL     1       5.393   6.841  17.994  0.00  0.00    -0.268 OA
HETATM   31  N   UNL     1       6.363   8.465  19.219  0.00  0.00    -0.366 N 
HETATM   32  H   UNL     1       6.723   8.802  20.100  0.00  0.00     0.159 HD
HETATM   33  H   UNL     1       6.787   8.820  18.371  0.00  0.00     0.159 HD
ENDBRANCH   4  29
TORSDOF 4
ENDMDL
MODEL 6
REMARK VINA RESULT:    -7.678      1.896      2.496
REMARK INTER + INTRA:         -10.971
REMARK INTER:                  -9.405
REMARK INTRA:                  -1.566
REMARK UNBOUND:                -1.497
REMARK  4 active torsions:
REMARK  status: ('A' for Active; 'I' for Inactive)
REMARK    1  A    between atoms: N_10  and  C_14 
REMARK    2  A    between atoms: C_17  and  C_18 
REMARK       I    between atoms: C_18  and  N_20 
REMARK    3  A    between atoms: C_22  and  N_23 
REMARK    4  A    between atoms: N_23  and  C_24 
ROOT
HETATM    1  C   UNL     1       3.139   6.870  23.995  0.00  0.00     0.041 C 
HETATM    2  C   UNL     1       4.509   7.040  24.206  0.00  0.00     0.031 C 
HETATM    3  C   UNL     1       5.391   7.153  23.129  0.00  0.00     0.022 C 
HETATM    4  C   UNL     1       4.916   7.088  21.816  0.00  0.00     0.058 C 
HETATM    5  C   UNL     1       2.708   6.634  22.674  0.00  0.00     0.060 C 
HETATM    6  C   UNL     1       3.551   6.821  21.567  0.00  0.00     0.046 C 
ENDROOT
BRANCH   1   7
HETATM    7  N   UNL     1       2.162   7.026  25.049  0.00  0.00    -0.324 N 
HETATM    8  C   UNL     1       1.386   8.136  25.392  0.00  0.00     0.031 C 
HETATM    9  C   UNL     1       1.331   9.468  24.705  0.00  0.00     0.067 C 
HETATM   10  C   UNL     1       0.593   7.809  26.487  0.00  0.00     0.040 C 
HETATM   11  C   UNL     1       0.101  10.317  25.144  0.00  0.00    -0.036 C 
HETATM   12  C   UNL     1      -0.109  10.226  26.671  0.00  0.00     0.093 C 
HETATM   13  C   UNL     1      -1.174   9.856  24.404  0.00  0.00     0.015 C 
HETATM   14  C   UNL     1       0.366  11.786  24.760  0.00  0.00     0.015 C 
HETATM   15  C   UNL     1      -0.267   8.788  27.142  0.00  0.00     0.162 C 
HETATM   16  O   UNL     1      -1.027   8.497  28.065  0.00  0.00    -0.292 OA
HETATM   17  C   UNL     1       0.735   6.427  26.728  0.00  0.00    -0.030 C 
HETATM   18  C   UNL     1       1.719   5.992  25.867  0.00  0.00     0.105 C 
HETATM   19  C   UNL     1      -0.043   5.602  27.687  0.00  0.00     0.050 C 
ENDBRANCH   1   7
BRANCH   6  20
HETATM   20  N   UNL     1       3.090   6.723  20.259  0.00  0.00    -0.384 N 
HETATM   21  H   UNL     1       2.579   7.581  20.011  0.00  0.00     0.160 HD
BRANCH  20  22
HETATM   22  C   UNL     1       2.692   5.515  19.547  0.00  0.00     0.082 C 
HETATM   23  C   UNL     1       3.648   5.280  18.368  0.00  0.00     0.032 C 
HETATM   24  C   UNL     1       3.584   6.397  17.326  0.00  0.00     0.080 C 
HETATM   25  C   UNL     1       2.157   6.713  16.934  0.00  0.00     0.127 C 
HETATM   26  C   UNL     1       1.150   6.862  18.048  0.00  0.00     0.080 C 
HETATM   27  O   UNL     1       1.853   6.948  15.765  0.00  0.00    -0.298 OA
HETATM   28  C   UNL     1       1.263   5.684  19.008  0.00  0.00     0.032 C 
ENDBRANCH  20  22
ENDBRANCH   6  20
BRANCH   4  29
HETATM   29  C   UNL     1       5.849   7.380  20.687  0.00  0.00     0.251 C 
HETATM   30  O   UNL     1       5.562   8.165  19.793  0.00  0.00    -0.268 OA
HETATM   31  N   UNL     1       7.062   6.739  20.683  0.00  0.00    -0.366 N 
HETATM   32  H   UNL     1       7.279   5.953  21.279  0.00  0.00     0.159 HD
HETATM   33  H   UNL     1       7.655   6.896  19.877  0.00  0.00     0.159 HD
ENDBRANCH   4  29
TORSDOF 4
ENDMDL
MODEL 7
REMARK VINA RESULT:    -7.666      2.123      8.480
REMARK INTER + INTRA:         -10.956
REMARK INTER:                  -9.531
REMARK INTRA:                  -1.425
REMARK UNBOUND:                -1.497
REMARK  4 active torsions:
REMARK  status: ('A' for Active; 'I' for Inactive)
REMARK    1  A    between atoms: N_10  and  C_14 
REMARK    2  A    between atoms: C_17  and  C_18 
REMARK       I    between atoms: C_18  and  N_20 
REMARK    3  A    between atoms: C_22  and  N_23 
REMARK    4  A    between atoms: N_23  and  C_24 
ROOT
HETATM    1  C   UNL     1       3.487   7.068  24.045  0.00  0.00     0.041 C 
HETATM    2  C   UNL     1       4.429   6.631  24.978  0.00  0.00     0.031 C 
HETATM    3  C   UNL     1       4.275   6.913  26.338  0.00  0.00     0.022 C 
HETATM    4  C   UNL     1       3.176   7.651  26.787  0.00  0.00     0.058 C 
HETATM    5  C   UNL     1       2.486   7.953  24.495  0.00  0.00     0.060 C 
HETATM    6  C   UNL     1       2.257   8.190  25.859  0.00  0.00     0.046 C 
ENDROOT
BRANCH   1   7
HETATM    7  N   UNL     1       3.447   6.575  22.686  0.00  0.00    -0.324 N 
HETATM    8  C   UNL     1       4.222   6.935  21.581  0.00  0.00     0.031 C 
HETATM    9  C   UNL     1       5.358   7.914  21.533  0.00  0.00     0.067 C 
HETATM   10  C   UNL     1       3.810   6.191  20.481  0.00  0.00     0.040 C 
HETATM   11  C   UNL     1       6.206   7.783  20.233  0.00  0.00    -0.036 C 
HETATM   12  C   UNL     1       5.292   7.598  19.002  0.00  0.00     0.093 C 
HETATM   13  C   UNL     1       7.195   6.602  20.341  0.00  0.00     0.015 C 
HETATM   14  C   UNL     1       7.028   9.075  20.059  0.00  0.00     0.015 C 
HETATM   15  C   UNL     1       4.366   6.400  19.149  0.00  0.00     0.162 C 
HETATM   16  O   UNL     1       4.064   5.702  18.183  0.00  0.00    -0.292 OA
HETATM   17  C   UNL     1       2.888   5.225  20.932  0.00  0.00    -0.030 C 
HETATM   18  C   UNL     1       2.661   5.509  22.261  0.00  0.00     0.105 C 
HETATM   19  C   UNL     1       2.308   4.105  20.146  0.00  0.00     0.050 C 
ENDBRANCH   1   7
BRANCH   6  20
HETATM   20  N   UNL     1       1.183   8.952  26.308  0.00  0.00    -0.384 N 
HETATM   21  H   UNL     1       1.473   9.501  27.130  0.00  0.00     0.160 HD
BRANCH  20  22
HETATM   22  C   UNL     1      -0.233   8.622  26.228  0.00  0.00     0.082 C 
HETATM   23  C   UNL     1      -1.001   9.813  25.636  0.00  0.00     0.032 C 
HETATM   24  C   UNL     1      -0.931  11.058  26.521  0.00  0.00     0.080 C 
HETATM   25  C   UNL     1      -1.267  10.739  27.962  0.00  0.00     0.127 C 
HETATM   26  C   UNL     1      -0.614   9.522  28.571  0.00  0.00     0.080 C 
HETATM   27  O   UNL     1      -1.955  11.499  28.642  0.00  0.00    -0.298 OA
HETATM   28  C   UNL     1      -0.773   8.328  27.637  0.00  0.00     0.032 C 
ENDBRANCH  20  22
ENDBRANCH   6  20
BRANCH   4  29
HETATM   29  C   UNL     1       2.944   7.795  28.255  0.00  0.00     0.251 C 
HETATM   30  O   UNL     1       2.192   7.050  28.870  0.00  0.00    -0.268 OA
HETATM   31  N   UNL     1       3.615   8.797  28.909  0.00  0.00    -0.366 N 
HETATM   32  H   UNL     1       4.094   9.548  28.434  0.00  0.00     0.159 HD
HETATM   33  H   UNL     1       3.397   8.924  29.889  0.00  0.00     0.159 HD
ENDBRANCH   4  29
TORSDOF 4
ENDMDL
MODEL 8
REMARK VINA RESULT:    -7.617      2.065      8.360
REMARK INTER + INTRA:         -10.896
REMARK INTER:                  -9.476
REMARK INTRA:                  -1.420
REMARK UNBOUND:                -1.497
REMARK  4 active torsions:
REMARK  status: ('A' for Active; 'I' for Inactive)
REMARK    1  A    between atoms: N_10  and  C_14 
REMARK    2  A    between atoms: C_17  and  C_18 
REMARK       I    between atoms: C_18  and  N_20 
REMARK    3  A    between atoms: C_22  and  N_23 
REMARK    4  A    between atoms: N_23  and  C_24 
ROOT
HETATM    1  C   UNL     1       3.895   7.459  23.934  0.00  0.00     0.041 C 
HETATM    2  C   UNL     1       4.725   6.866  24.887  0.00  0.00     0.031 C 
HETATM    3  C   UNL     1       4.400   6.907  26.245  0.00  0.00     0.022 C 
HETATM    4  C   UNL     1       3.238   7.553  26.675  0.00  0.00     0.058 C 
HETATM    5  C   UNL     1       2.827   8.250  24.403  0.00  0.00     0.060 C 
HETATM    6  C   UNL     1       2.427   8.246  25.748  0.00  0.00     0.046 C 
ENDROOT
BRANCH   1   7
HETATM    7  N   UNL     1       4.032   7.211  22.516  0.00  0.00    -0.324 N 
HETATM    8  C   UNL     1       4.176   6.003  21.829  0.00  0.00     0.031 C 
HETATM    9  C   UNL     1       4.175   4.614  22.399  0.00  0.00     0.067 C 
HETATM   10  C   UNL     1       4.280   6.268  20.468  0.00  0.00     0.040 C 
HETATM   11  C   UNL     1       3.994   3.520  21.306  0.00  0.00    -0.036 C 
HETATM   12  C   UNL     1       4.850   3.844  20.062  0.00  0.00     0.093 C 
HETATM   13  C   UNL     1       2.509   3.384  20.907  0.00  0.00     0.015 C 
HETATM   14  C   UNL     1       4.451   2.170  21.893  0.00  0.00     0.015 C 
HETATM   15  C   UNL     1       4.532   5.217  19.489  0.00  0.00     0.162 C 
HETATM   16  O   UNL     1       4.555   5.426  18.277  0.00  0.00    -0.292 OA
HETATM   17  C   UNL     1       4.021   7.640  20.274  0.00  0.00    -0.030 C 
HETATM   18  C   UNL     1       3.914   8.188  21.533  0.00  0.00     0.105 C 
HETATM   19  C   UNL     1       3.859   8.344  18.976  0.00  0.00     0.050 C 
ENDBRANCH   1   7
BRANCH   6  20
HETATM   20  N   UNL     1       1.290   8.917  26.185  0.00  0.00    -0.384 N 
HETATM   21  H   UNL     1       1.514   9.450  27.037  0.00  0.00     0.160 HD
BRANCH  20  22
HETATM   22  C   UNL     1      -0.097   8.498  26.040  0.00  0.00     0.082 C 
HETATM   23  C   UNL     1      -0.916   9.647  25.432  0.00  0.00     0.032 C 
HETATM   24  C   UNL     1      -0.964  10.879  26.336  0.00  0.00     0.080 C 
HETATM   25  C   UNL     1      -1.338  10.515  27.757  0.00  0.00     0.127 C 
HETATM   26  C   UNL     1      -0.632   9.332  28.377  0.00  0.00     0.080 C 
HETATM   27  O   UNL     1      -2.102  11.218  28.417  0.00  0.00    -0.298 OA
HETATM   28  C   UNL     1      -0.675   8.146  27.420  0.00  0.00     0.032 C 
ENDBRANCH  20  22
ENDBRANCH   6  20
BRANCH   4  29
HETATM   29  C   UNL     1       2.825   7.439  28.106  0.00  0.00     0.251 C 
HETATM   30  O   UNL     1       2.845   8.398  28.866  0.00  0.00    -0.268 OA
HETATM   31  N   UNL     1       2.408   6.210  28.550  0.00  0.00    -0.366 N 
HETATM   32  H   UNL     1       2.546   5.354  28.032  0.00  0.00     0.159 HD
HETATM   33  H   UNL     1       2.196   6.133  29.537  0.00  0.00     0.159 HD
ENDBRANCH   4  29
TORSDOF 4
ENDMDL
MODEL 9
REMARK VINA RESULT:    -7.464      2.033      3.676
REMARK INTER + INTRA:         -10.707
REMARK INTER:                  -9.209
REMARK INTRA:                  -1.497
REMARK UNBOUND:                -1.497
REMARK  4 active torsions:
REMARK  status: ('A' for Active; 'I' for Inactive)
REMARK    1  A    between atoms: N_10  and  C_14 
REMARK    2  A    between atoms: C_17  and  C_18 
REMARK       I    between atoms: C_18  and  N_20 
REMARK    3  A    between atoms: C_22  and  N_23 
REMARK    4  A    between atoms: N_23  and  C_24 
ROOT
HETATM    1  C   UNL     1       2.768   8.702  24.855  0.00  0.00     0.041 C 
HETATM    2  C   UNL     1       3.487   9.790  24.359  0.00  0.00     0.031 C 
HETATM    3  C   UNL     1       4.036   9.760  23.074  0.00  0.00     0.022 C 
HETATM    4  C   UNL     1       3.881   8.631  22.265  0.00  0.00     0.058 C 
HETATM    5  C   UNL     1       2.774   7.515  24.094  0.00  0.00     0.060 C 
HETATM    6  C   UNL     1       3.243   7.477  22.772  0.00  0.00     0.046 C 
ENDROOT
BRANCH   1   7
HETATM    7  N   UNL     1       1.953   8.783  26.047  0.00  0.00    -0.324 N 
HETATM    8  C   UNL     1       2.214   8.326  27.342  0.00  0.00     0.031 C 
HETATM    9  C   UNL     1       3.460   7.663  27.850  0.00  0.00     0.067 C 
HETATM   10  C   UNL     1       1.125   8.626  28.152  0.00  0.00     0.040 C 
HETATM   11  C   UNL     1       3.527   7.627  29.405  0.00  0.00    -0.036 C 
HETATM   12  C   UNL     1       2.153   7.252  30.002  0.00  0.00     0.093 C 
HETATM   13  C   UNL     1       3.994   8.988  29.964  0.00  0.00     0.015 C 
HETATM   14  C   UNL     1       4.562   6.564  29.821  0.00  0.00     0.015 C 
HETATM   15  C   UNL     1       1.052   8.197  29.544  0.00  0.00     0.162 C 
HETATM   16  O   UNL     1       0.129   8.515  30.293  0.00  0.00    -0.292 OA
HETATM   17  C   UNL     1       0.243   9.437  27.410  0.00  0.00    -0.030 C 
HETATM   18  C   UNL     1       0.753   9.481  26.131  0.00  0.00     0.105 C 
HETATM   19  C   UNL     1      -0.969  10.134  27.913  0.00  0.00     0.050 C 
ENDBRANCH   1   7
BRANCH   6  20
HETATM   20  N   UNL     1       3.121   6.344  21.975  0.00  0.00    -0.384 N 
HETATM   21  H   UNL     1       2.260   6.410  21.414  0.00  0.00     0.160 HD
BRANCH  20  22
HETATM   22  C   UNL     1       3.585   4.996  22.274  0.00  0.00     0.082 C 
HETATM   23  C   UNL     1       5.052   4.853  21.840  0.00  0.00     0.032 C 
HETATM   24  C   UNL     1       5.238   5.013  20.331  0.00  0.00     0.080 C 
HETATM   25  C   UNL     1       4.259   4.159  19.554  0.00  0.00     0.127 C 
HETATM   26  C   UNL     1       2.816   4.185  19.996  0.00  0.00     0.080 C 
HETATM   27  O   UNL     1       4.604   3.555  18.539  0.00  0.00    -0.298 OA
HETATM   28  C   UNL     1       2.733   3.975  21.503  0.00  0.00     0.032 C 
ENDBRANCH  20  22
ENDBRANCH   6  20
BRANCH   4  29
HETATM   29  C   UNL     1       4.328   8.686  20.841  0.00  0.00     0.251 C 
HETATM   30  O   UNL     1       3.534   8.775  19.914  0.00  0.00    -0.268 OA
HETATM   31  N   UNL     1       5.677   8.641  20.596  0.00  0.00    -0.366 N 
HETATM   32  H   UNL     1       6.361   8.382  21.292  0.00  0.00     0.159 HD
HETATM   33  H   UNL     1       5.961   8.612  19.625  0.00  0.00     0.159 HD
ENDBRANCH   4  29
TORSDOF 4
ENDMDL
