REMARK  4 active torsions:
REMARK  status: ('A' for Active; 'I' for Inactive)
REMARK    1  A    between atoms: N_10  and  C_14 
REMARK    2  A    between atoms: C_17  and  C_18 
REMARK       I    between atoms: C_18  and  N_20 
REMARK    3  A    between atoms: C_22  and  N_23 
REMARK    4  A    between atoms: N_23  and  C_24 
ROOT
HETATM    1  C   UNL     1       6.639  -2.556  -0.705  0.00  0.00     0.041 C 
HETATM    2  C   UNL     1       7.587  -1.639  -1.162  0.00  0.00     0.031 C 
HETATM    3  C   UNL     1       8.800  -2.072  -1.704  0.00  0.00     0.022 C 
HETATM    4  C   UNL     1       9.089  -3.437  -1.789  0.00  0.00     0.058 C 
HETATM    5  C   UNL     1       7.022  -3.911  -0.640  0.00  0.00     0.060 C 
HETATM    6  C   UNL     1       8.194  -4.387  -1.248  0.00  0.00     0.046 C 
ENDROOT
BRANCH   1   7
HETATM    7  N   UNL     1       5.276  -2.183  -0.399  0.00  0.00    -0.324 N 
HETATM    8  C   UNL     1       4.621  -0.962  -0.578  0.00  0.00     0.031 C 
HETATM    9  C   UNL     1       5.165   0.292  -1.197  0.00  0.00     0.067 C 
HETATM   10  C   UNL     1       3.312  -1.083  -0.125  0.00  0.00     0.040 C 
HETATM   11  C   UNL     1       4.048   1.317  -1.552  0.00  0.00    -0.036 C 
HETATM   12  C   UNL     1       3.006   1.405  -0.416  0.00  0.00     0.093 C 
HETATM   13  C   UNL     1       3.355   0.934  -2.878  0.00  0.00     0.015 C 
HETATM   14  C   UNL     1       4.702   2.699  -1.742  0.00  0.00     0.015 C 
HETATM   15  C   UNL     1       2.394   0.050  -0.093  0.00  0.00     0.162 C 
HETATM   16  O   UNL     1       1.214  -0.057   0.237  0.00  0.00    -0.292 OA
HETATM   17  C   UNL     1       3.082  -2.440   0.178  0.00  0.00    -0.030 C 
HETATM   18  C   UNL     1       4.299  -3.071   0.039  0.00  0.00     0.105 C 
HETATM   19  C   UNL     1       1.785  -3.069   0.537  0.00  0.00     0.050 C 
ENDBRANCH   1   7
BRANCH   6  20
HETATM   20  N   UNL     1       8.502  -5.742  -1.304  0.00  0.00    -0.384 N 
HETATM   21  H   UNL     1       8.915  -5.962  -2.221  0.00  0.00     0.160 HD
BRANCH  20  22
HETATM   22  C   UNL     1       7.810  -6.837  -0.637  0.00  0.00     0.082 C 
HETATM   23  C   UNL     1       8.346  -6.982   0.795  0.00  0.00     0.032 C 
HETATM   24  C   UNL     1       9.826  -7.363   0.834  0.00  0.00     0.080 C 
HETATM   25  C   UNL     1      10.126  -8.533  -0.078  0.00  0.00     0.127 C 
HETATM   26  C   UNL     1       9.545  -8.491  -1.471  0.00  0.00     0.080 C 
HETATM   27  O   UNL     1      10.900  -9.427   0.262  0.00  0.00    -0.298 OA
HETATM   28  C   UNL     1       8.062  -8.146  -1.402  0.00  0.00     0.032 C 
ENDBRANCH  20  22
ENDBRANCH   6  20
BRANCH   4  29
HETATM   29  C   UNL     1      10.312  -3.880  -2.523  0.00  0.00     0.251 C 
HETATM   30  O   UNL     1      10.358  -4.944  -3.126  0.00  0.00    -0.268 OA
HETATM   31  N   UNL     1      11.399  -3.043  -2.510  0.00  0.00    -0.366 N 
HETATM   32  H   UNL     1      11.487  -2.254  -1.886  0.00  0.00     0.159 HD
HETATM   33  H   UNL     1      12.241  -3.387  -2.955  0.00  0.00     0.159 HD
ENDBRANCH   4  29
TORSDOF 4
