MODEL 1
REMARK VINA RESULT:   -10.389      0.000      0.000
REMARK INTER + INTRA:         -16.441
REMARK INTER:                 -15.410
REMARK INTRA:                  -1.031
REMARK UNBOUND:                -2.104
REMARK  7 active torsions:
REMARK  status: ('A' for Active; 'I' for Inactive)
REMARK    1  A    between atoms: C_8  and  C_9 
REMARK    2  A    between atoms: C_14  and  N_15 
REMARK       I    between atoms: N_15  and  C_17 
REMARK    3  A    between atoms: C_17  and  C_19 
REMARK    4  A    between atoms: C_20  and  O_22 
REMARK    5  A    between atoms: C_26  and  C_30 
REMARK    6  A    between atoms: C_30  and  C_31 
REMARK    7  A    between atoms: C_31  and  C_32 
ROOT
HETATM    1  C   UNL     1      -1.120  11.020  25.546  0.00  0.00     0.066 A 
HETATM    2  C   UNL     1      -2.131  11.135  24.579  0.00  0.00     0.083 A 
HETATM    3  C   UNL     1      -1.951  11.865  23.395  0.00  0.00     0.069 A 
HETATM    4  C   UNL     1       0.162  11.530  25.231  0.00  0.00     0.035 A 
HETATM    5  C   UNL     1       0.379  12.224  24.020  0.00  0.00     0.019 A 
HETATM    6  C   UNL     1      -0.692  12.409  23.156  0.00  0.00     0.065 A 
HETATM    7  C   UNL     1       1.480  12.826  23.347  0.00  0.00     0.067 A 
HETATM    8  N   UNL     1       1.105  13.405  22.200  0.00  0.00    -0.178 NA
HETATM    9  N   UNL     1      -0.201  13.139  22.113  0.00  0.00    -0.277 N 
HETATM   10  H   UNL     1      -0.697  13.483  21.300  0.00  0.00     0.189 HD
ENDROOT
BRANCH   1  11
HETATM   11  C   UNL     1      -1.227  10.309  26.869  0.00  0.00     0.260 C 
HETATM   12  N   UNL     1      -0.348   9.287  27.274  0.00  0.00    -0.318 N 
HETATM   13  C   UNL     1      -0.524   8.746  28.622  0.00  0.00     0.159 C 
HETATM   14  O   UNL     1      -2.130  10.700  27.616  0.00  0.00    -0.267 OA
BRANCH  12  15
HETATM   15  C   UNL     1       0.629   8.657  26.469  0.00  0.00     0.037 C 
HETATM   16  C   UNL     1       0.267   7.900  25.363  0.00  0.00     0.030 C 
HETATM   17  C   UNL     1       1.228   7.561  24.409  0.00  0.00     0.010 C 
HETATM   18  C   UNL     1       2.545   8.047  24.505  0.00  0.00    -0.054 C 
HETATM   19  C   UNL     1       2.933   8.605  25.734  0.00  0.00     0.010 C 
HETATM   20  C   UNL     1       1.984   8.899  26.718  0.00  0.00     0.030 C 
BRANCH  18  21
HETATM   21  C   UNL     1       3.486   8.033  23.293  0.00  0.00     0.022 C 
HETATM   22  C   UNL     1       4.450   6.824  23.256  0.00  0.00     0.037 C 
HETATM   23  C   UNL     1       5.427   6.824  24.433  0.00  0.00     0.235 C 
HETATM   24  N   UNL     1       6.207   8.113  24.505  0.00  0.00    -0.075 N 
HETATM   25  C   UNL     1       5.357   9.353  24.392  0.00  0.00     0.235 C 
HETATM   26  C   UNL     1       7.426   8.141  23.631  0.00  0.00     0.269 C 
HETATM   27  H   UNL     1       6.574   8.121  25.467  0.00  0.00     0.279 HD
HETATM   28  C   UNL     1       4.403   9.281  23.211  0.00  0.00     0.037 C 
ENDBRANCH  18  21
ENDBRANCH  12  15
ENDBRANCH   1  11
BRANCH   2  29
HETATM   29  O   UNL     1      -3.350  10.510  24.645  0.00  0.00    -0.360 OA
HETATM   30  H   UNL     1      -3.982  11.149  25.027  0.00  0.00     0.217 HD
ENDBRANCH   2  29
BRANCH   7  31
HETATM   31  C   UNL     1       2.915  12.888  23.763  0.00  0.00     0.063 C 
BRANCH  31  32
HETATM   32  C   UNL     1       3.272  14.209  24.458  0.00  0.00     0.014 C 
BRANCH  32  33
HETATM   33  C   UNL     1       4.739  14.321  24.954  0.00  0.00    -0.051 C 
HETATM   34  C   UNL     1       5.200  15.787  24.989  0.00  0.00     0.014 C 
HETATM   35  C   UNL     1       4.807  13.752  26.384  0.00  0.00     0.014 C 
HETATM   36  C   UNL     1       5.692  13.510  24.061  0.00  0.00     0.014 C 
ENDBRANCH  32  33
ENDBRANCH  31  32
ENDBRANCH   7  31
TORSDOF 7
ENDMDL
MODEL 2
REMARK VINA RESULT:   -10.243      0.965      1.463
REMARK INTER + INTRA:         -16.239
REMARK INTER:                 -14.847
REMARK INTRA:                  -1.392
REMARK UNBOUND:                -2.104
REMARK  7 active torsions:
REMARK  status: ('A' for Active; 'I' for Inactive)
REMARK    1  A    between atoms: C_8  and  C_9 
REMARK    2  A    between atoms: C_14  and  N_15 
REMARK       I    between atoms: N_15  and  C_17 
REMARK    3  A    between atoms: C_17  and  C_19 
REMARK    4  A    between atoms: C_20  and  O_22 
REMARK    5  A    between atoms: C_26  and  C_30 
REMARK    6  A    between atoms: C_30  and  C_31 
REMARK    7  A    between atoms: C_31  and  C_32 
ROOT
HETATM    1  C   UNL     1      -1.090  10.926  25.758  0.00  0.00     0.066 A 
HETATM    2  C   UNL     1      -2.112  11.011  24.800  0.00  0.00     0.083 A 
HETATM    3  C   UNL     1      -1.952  11.720  23.600  0.00  0.00     0.069 A 
HETATM    4  C   UNL     1       0.184  11.443  25.419  0.00  0.00     0.035 A 
HETATM    5  C   UNL     1       0.380  12.116  24.193  0.00  0.00     0.019 A 
HETATM    6  C   UNL     1      -0.702  12.273  23.338  0.00  0.00     0.065 A 
HETATM    7  C   UNL     1       1.467  12.716  23.497  0.00  0.00     0.067 A 
HETATM    8  N   UNL     1       1.074  13.269  22.343  0.00  0.00    -0.178 NA
HETATM    9  N   UNL     1      -0.230  12.987  22.275  0.00  0.00    -0.277 N 
HETATM   10  H   UNL     1      -0.739  13.310  21.461  0.00  0.00     0.189 HD
ENDROOT
BRANCH   1  11
HETATM   11  C   UNL     1      -1.175  10.240  27.096  0.00  0.00     0.260 C 
HETATM   12  N   UNL     1      -0.370   9.143  27.458  0.00  0.00    -0.318 N 
HETATM   13  C   UNL     1      -0.506   8.633  28.822  0.00  0.00     0.159 C 
HETATM   14  O   UNL     1      -1.986  10.720  27.893  0.00  0.00    -0.267 OA
BRANCH  12  15
HETATM   15  C   UNL     1       0.490   8.418  26.601  0.00  0.00     0.037 C 
HETATM   16  C   UNL     1      -0.016   7.640  25.569  0.00  0.00     0.030 C 
HETATM   17  C   UNL     1       0.832   7.199  24.552  0.00  0.00     0.010 C 
HETATM   18  C   UNL     1       2.179   7.602  24.508  0.00  0.00    -0.054 C 
HETATM   19  C   UNL     1       2.711   8.185  25.669  0.00  0.00     0.010 C 
HETATM   20  C   UNL     1       1.874   8.582  26.718  0.00  0.00     0.030 C 
BRANCH  18  21
HETATM   21  C   UNL     1       3.003   7.476  23.219  0.00  0.00     0.022 C 
HETATM   22  C   UNL     1       2.844   6.116  22.500  0.00  0.00     0.037 C 
HETATM   23  C   UNL     1       3.365   4.950  23.340  0.00  0.00     0.235 C 
HETATM   24  N   UNL     1       4.802   5.161  23.750  0.00  0.00    -0.075 N 
HETATM   25  C   UNL     1       5.083   6.526  24.324  0.00  0.00     0.235 C 
HETATM   26  C   UNL     1       5.802   4.726  22.720  0.00  0.00     0.269 C 
HETATM   27  H   UNL     1       4.930   4.504  24.533  0.00  0.00     0.279 HD
HETATM   28  C   UNL     1       4.529   7.636  23.446  0.00  0.00     0.037 C 
ENDBRANCH  18  21
ENDBRANCH  12  15
ENDBRANCH   1  11
BRANCH   2  29
HETATM   29  O   UNL     1      -3.323  10.374  24.891  0.00  0.00    -0.360 OA
HETATM   30  H   UNL     1      -3.204   9.475  24.530  0.00  0.00     0.217 HD
ENDBRANCH   2  29
BRANCH   7  31
HETATM   31  C   UNL     1       2.906  12.802  23.896  0.00  0.00     0.063 C 
BRANCH  31  32
HETATM   32  C   UNL     1       3.303  14.204  24.377  0.00  0.00     0.014 C 
BRANCH  32  33
HETATM   33  C   UNL     1       4.741  14.325  24.950  0.00  0.00    -0.051 C 
HETATM   34  C   UNL     1       5.761  13.630  24.036  0.00  0.00     0.014 C 
HETATM   35  C   UNL     1       5.100  15.821  25.036  0.00  0.00     0.014 C 
HETATM   36  C   UNL     1       4.830  13.722  26.362  0.00  0.00     0.014 C 
ENDBRANCH  32  33
ENDBRANCH  31  32
ENDBRANCH   7  31
TORSDOF 7
ENDMDL
MODEL 3
REMARK VINA RESULT:    -9.224      1.456      2.218
REMARK INTER + INTRA:         -14.832
REMARK INTER:                 -12.697
REMARK INTRA:                  -2.136
REMARK UNBOUND:                -2.104
REMARK  7 active torsions:
REMARK  status: ('A' for Active; 'I' for Inactive)
REMARK    1  A    between atoms: C_8  and  C_9 
REMARK    2  A    between atoms: C_14  and  N_15 
REMARK       I    between atoms: N_15  and  C_17 
REMARK    3  A    between atoms: C_17  and  C_19 
REMARK    4  A    between atoms: C_20  and  O_22 
REMARK    5  A    between atoms: C_26  and  C_30 
REMARK    6  A    between atoms: C_30  and  C_31 
REMARK    7  A    between atoms: C_31  and  C_32 
ROOT
HETATM    1  C   UNL     1      -0.879  10.919  25.784  0.00  0.00     0.066 A 
HETATM    2  C   UNL     1      -1.922  11.117  24.867  0.00  0.00     0.083 A 
HETATM    3  C   UNL     1      -1.738  11.829  23.672  0.00  0.00     0.069 A 
HETATM    4  C   UNL     1       0.425  11.318  25.406  0.00  0.00     0.035 A 
HETATM    5  C   UNL     1       0.641  11.991  24.183  0.00  0.00     0.019 A 
HETATM    6  C   UNL     1      -0.451  12.265  23.370  0.00  0.00     0.065 A 
HETATM    7  C   UNL     1       1.755  12.497  23.455  0.00  0.00     0.067 A 
HETATM    8  N   UNL     1       1.375  13.105  22.324  0.00  0.00    -0.178 NA
HETATM    9  N   UNL     1       0.048  12.950  22.301  0.00  0.00    -0.277 N 
HETATM   10  H   UNL     1      -0.455  13.334  21.511  0.00  0.00     0.189 HD
ENDROOT
BRANCH   1  11
HETATM   11  C   UNL     1      -0.981  10.221  27.115  0.00  0.00     0.260 C 
HETATM   12  N   UNL     1      -0.232   9.077  27.451  0.00  0.00    -0.318 N 
HETATM   13  C   UNL     1      -0.376   8.557  28.810  0.00  0.00     0.159 C 
HETATM   14  O   UNL     1      -1.753  10.734  27.931  0.00  0.00    -0.267 OA
BRANCH  12  15
HETATM   15  C   UNL     1       0.574   8.318  26.571  0.00  0.00     0.037 C 
HETATM   16  C   UNL     1       0.010   7.575  25.543  0.00  0.00     0.030 C 
HETATM   17  C   UNL     1       0.814   7.101  24.506  0.00  0.00     0.010 C 
HETATM   18  C   UNL     1       2.179   7.437  24.438  0.00  0.00    -0.054 C 
HETATM   19  C   UNL     1       2.762   7.983  25.594  0.00  0.00     0.010 C 
HETATM   20  C   UNL     1       1.967   8.411  26.662  0.00  0.00     0.030 C 
BRANCH  18  21
HETATM   21  C   UNL     1       2.971   7.281  23.133  0.00  0.00     0.022 C 
HETATM   22  C   UNL     1       2.659   5.980  22.358  0.00  0.00     0.037 C 
HETATM   23  C   UNL     1       3.060   4.728  23.139  0.00  0.00     0.235 C 
HETATM   24  N   UNL     1       4.516   4.765  23.535  0.00  0.00    -0.075 N 
HETATM   25  C   UNL     1       4.948   6.066  24.163  0.00  0.00     0.235 C 
HETATM   26  C   UNL     1       5.452   4.273  22.472  0.00  0.00     0.269 C 
HETATM   27  H   UNL     1       4.581   4.064  24.287  0.00  0.00     0.279 HD
HETATM   28  C   UNL     1       4.508   7.266  23.343  0.00  0.00     0.037 C 
ENDBRANCH  18  21
ENDBRANCH  12  15
ENDBRANCH   1  11
BRANCH   2  29
HETATM   29  O   UNL     1      -3.185  10.597  24.994  0.00  0.00    -0.360 OA
HETATM   30  H   UNL     1      -3.097   9.735  25.444  0.00  0.00     0.217 HD
ENDBRANCH   2  29
BRANCH   7  31
HETATM   31  C   UNL     1       3.208  12.439  23.801  0.00  0.00     0.063 C 
BRANCH  31  32
HETATM   32  C   UNL     1       3.794  11.027  23.658  0.00  0.00     0.014 C 
BRANCH  32  33
HETATM   33  C   UNL     1       5.335  10.963  23.486  0.00  0.00    -0.051 C 
HETATM   34  C   UNL     1       5.972  10.049  24.544  0.00  0.00     0.014 C 
HETATM   35  C   UNL     1       5.640  10.384  22.091  0.00  0.00     0.014 C 
HETATM   36  C   UNL     1       5.964  12.363  23.579  0.00  0.00     0.014 C 
ENDBRANCH  32  33
ENDBRANCH  31  32
ENDBRANCH   7  31
TORSDOF 7
ENDMDL
MODEL 4
REMARK VINA RESULT:    -8.255      2.569      5.519
REMARK INTER + INTRA:         -13.496
REMARK INTER:                 -12.115
REMARK INTRA:                  -1.381
REMARK UNBOUND:                -2.104
REMARK  7 active torsions:
REMARK  status: ('A' for Active; 'I' for Inactive)
REMARK    1  A    between atoms: C_8  and  C_9 
REMARK    2  A    between atoms: C_14  and  N_15 
REMARK       I    between atoms: N_15  and  C_17 
REMARK    3  A    between atoms: C_17  and  C_19 
REMARK    4  A    between atoms: C_20  and  O_22 
REMARK    5  A    between atoms: C_26  and  C_30 
REMARK    6  A    between atoms: C_30  and  C_31 
REMARK    7  A    between atoms: C_31  and  C_32 
ROOT
HETATM    1  C   UNL     1       1.504   7.402  24.446  0.00  0.00     0.066 A 
HETATM    2  C   UNL     1       1.121   6.733  25.618  0.00  0.00     0.083 A 
HETATM    3  C   UNL     1       0.263   7.317  26.563  0.00  0.00     0.069 A 
HETATM    4  C   UNL     1       0.877   8.635  24.148  0.00  0.00     0.035 A 
HETATM    5  C   UNL     1      -0.030   9.216  25.062  0.00  0.00     0.019 A 
HETATM    6  C   UNL     1      -0.279   8.563  26.261  0.00  0.00     0.065 A 
HETATM    7  C   UNL     1      -0.862  10.370  25.112  0.00  0.00     0.067 A 
HETATM    8  N   UNL     1      -1.511  10.464  26.279  0.00  0.00    -0.178 NA
HETATM    9  N   UNL     1      -1.142   9.368  26.947  0.00  0.00    -0.277 N 
HETATM   10  H   UNL     1      -1.530   9.228  27.871  0.00  0.00     0.189 HD
ENDROOT
BRANCH   1  11
HETATM   11  C   UNL     1       2.458   6.891  23.398  0.00  0.00     0.260 C 
HETATM   12  N   UNL     1       3.626   7.576  23.012  0.00  0.00    -0.318 N 
HETATM   13  C   UNL     1       4.499   6.917  22.040  0.00  0.00     0.159 C 
HETATM   14  O   UNL     1       2.173   5.797  22.903  0.00  0.00    -0.267 OA
BRANCH  12  15
HETATM   15  C   UNL     1       3.992   8.887  23.395  0.00  0.00     0.037 C 
HETATM   16  C   UNL     1       3.901   9.299  24.717  0.00  0.00     0.030 C 
HETATM   17  C   UNL     1       4.555  10.461  25.129  0.00  0.00     0.010 C 
HETATM   18  C   UNL     1       5.380  11.178  24.244  0.00  0.00    -0.054 C 
HETATM   19  C   UNL     1       5.269  10.876  22.877  0.00  0.00     0.010 C 
HETATM   20  C   UNL     1       4.568   9.743  22.451  0.00  0.00     0.030 C 
BRANCH  18  21
HETATM   21  C   UNL     1       6.409  12.192  24.764  0.00  0.00     0.022 C 
HETATM   22  C   UNL     1       6.193  12.611  26.236  0.00  0.00     0.037 C 
HETATM   23  C   UNL     1       4.869  13.349  26.441  0.00  0.00     0.235 C 
HETATM   24  N   UNL     1       4.757  14.549  25.533  0.00  0.00    -0.075 N 
HETATM   25  C   UNL     1       5.104  14.265  24.094  0.00  0.00     0.235 C 
HETATM   26  C   UNL     1       5.410  15.788  26.073  0.00  0.00     0.269 C 
HETATM   27  H   UNL     1       3.750  14.762  25.534  0.00  0.00     0.279 HD
HETATM   28  C   UNL     1       6.422  13.521  23.964  0.00  0.00     0.037 C 
ENDBRANCH  18  21
ENDBRANCH  12  15
ENDBRANCH   1  11
BRANCH   2  29
HETATM   29  O   UNL     1       1.472   5.445  25.935  0.00  0.00    -0.360 OA
HETATM   30  H   UNL     1       2.325   5.263  25.495  0.00  0.00     0.217 HD
ENDBRANCH   2  29
BRANCH   7  31
HETATM   31  C   UNL     1      -1.066  11.427  24.074  0.00  0.00     0.063 C 
BRANCH  31  32
HETATM   32  C   UNL     1      -0.354  12.741  24.421  0.00  0.00     0.014 C 
BRANCH  32  33
HETATM   33  C   UNL     1       0.793  13.147  23.457  0.00  0.00    -0.051 C 
HETATM   34  C   UNL     1       0.274  13.320  22.021  0.00  0.00     0.014 C 
HETATM   35  C   UNL     1       1.368  14.494  23.935  0.00  0.00     0.014 C 
HETATM   36  C   UNL     1       1.924  12.105  23.468  0.00  0.00     0.014 C 
ENDBRANCH  32  33
ENDBRANCH  31  32
ENDBRANCH   7  31
TORSDOF 7
ENDMDL
MODEL 5
REMARK VINA RESULT:    -8.163      2.358      5.254
REMARK INTER + INTRA:         -13.369
REMARK INTER:                 -12.542
REMARK INTRA:                  -0.827
REMARK UNBOUND:                -2.104
REMARK  7 active torsions:
REMARK  status: ('A' for Active; 'I' for Inactive)
REMARK    1  A    between atoms: C_8  and  C_9 
REMARK    2  A    between atoms: C_14  and  N_15 
REMARK       I    between atoms: N_15  and  C_17 
REMARK    3  A    between atoms: C_17  and  C_19 
REMARK    4  A    between atoms: C_20  and  O_22 
REMARK    5  A    between atoms: C_26  and  C_30 
REMARK    6  A    between atoms: C_30  and  C_31 
REMARK    7  A    between atoms: C_31  and  C_32 
ROOT
HETATM    1  C   UNL     1       0.811   7.871  26.448  0.00  0.00     0.066 A 
HETATM    2  C   UNL     1       0.397   7.860  27.789  0.00  0.00     0.083 A 
HETATM    3  C   UNL     1      -0.491   8.816  28.303  0.00  0.00     0.069 A 
HETATM    4  C   UNL     1       0.184   8.784  25.567  0.00  0.00     0.035 A 
HETATM    5  C   UNL     1      -0.752   9.722  26.055  0.00  0.00     0.019 A 
HETATM    6  C   UNL     1      -1.032   9.740  27.414  0.00  0.00     0.065 A 
HETATM    7  C   UNL     1      -1.594  10.734  25.511  0.00  0.00     0.067 A 
HETATM    8  N   UNL     1      -2.276  11.379  26.465  0.00  0.00    -0.178 NA
HETATM    9  N   UNL     1      -1.920  10.761  27.594  0.00  0.00    -0.277 N 
HETATM   10  H   UNL     1      -2.334  11.087  28.459  0.00  0.00     0.189 HD
ENDROOT
BRANCH   1  11
HETATM   11  C   UNL     1       1.797   6.930  25.810  0.00  0.00     0.260 C 
HETATM   12  N   UNL     1       2.987   7.356  25.188  0.00  0.00    -0.318 N 
HETATM   13  C   UNL     1       3.889   6.320  24.685  0.00  0.00     0.159 C 
HETATM   14  O   UNL     1       1.520   5.729  25.889  0.00  0.00    -0.267 OA
BRANCH  12  15
HETATM   15  C   UNL     1       3.352   8.694  24.911  0.00  0.00     0.037 C 
HETATM   16  C   UNL     1       3.301   9.670  25.897  0.00  0.00     0.030 C 
HETATM   17  C   UNL     1       3.958  10.886  25.704  0.00  0.00     0.010 C 
HETATM   18  C   UNL     1       4.745  11.109  24.559  0.00  0.00    -0.054 C 
HETATM   19  C   UNL     1       4.590  10.211  23.491  0.00  0.00     0.010 C 
HETATM   20  C   UNL     1       3.887   9.014  23.659  0.00  0.00     0.030 C 
BRANCH  18  21
HETATM   21  C   UNL     1       5.781  12.241  24.517  0.00  0.00     0.022 C 
HETATM   22  C   UNL     1       6.189  12.774  25.910  0.00  0.00     0.037 C 
HETATM   23  C   UNL     1       5.019  13.424  26.650  0.00  0.00     0.235 C 
HETATM   24  N   UNL     1       4.390  14.525  25.833  0.00  0.00    -0.075 N 
HETATM   25  C   UNL     1       4.097  14.139  24.405  0.00  0.00     0.235 C 
HETATM   26  C   UNL     1       5.074  15.853  25.966  0.00  0.00     0.269 C 
HETATM   27  H   UNL     1       3.469  14.659  26.274  0.00  0.00     0.279 HD
HETATM   28  C   UNL     1       5.296  13.490  23.735  0.00  0.00     0.037 C 
ENDBRANCH  18  21
ENDBRANCH  12  15
ENDBRANCH   1  11
BRANCH   2  29
HETATM   29  O   UNL     1       0.748   6.903  28.707  0.00  0.00    -0.360 OA
HETATM   30  H   UNL     1       0.204   6.113  28.522  0.00  0.00     0.217 HD
ENDBRANCH   2  29
BRANCH   7  31
HETATM   31  C   UNL     1      -1.774  11.138  24.082  0.00  0.00     0.063 C 
BRANCH  31  32
HETATM   32  C   UNL     1      -1.400  12.604  23.831  0.00  0.00     0.014 C 
BRANCH  32  33
HETATM   33  C   UNL     1       0.047  12.841  23.320  0.00  0.00    -0.051 C 
HETATM   34  C   UNL     1       0.066  13.067  21.800  0.00  0.00     0.014 C 
HETATM   35  C   UNL     1       0.600  14.102  24.009  0.00  0.00     0.014 C 
HETATM   36  C   UNL     1       0.961  11.655  23.669  0.00  0.00     0.014 C 
ENDBRANCH  32  33
ENDBRANCH  31  32
ENDBRANCH   7  31
TORSDOF 7
ENDMDL
MODEL 6
REMARK VINA RESULT:    -8.068      1.570      5.611
REMARK INTER + INTRA:         -13.238
REMARK INTER:                 -11.359
REMARK INTRA:                  -1.879
REMARK UNBOUND:                -2.104
REMARK  7 active torsions:
REMARK  status: ('A' for Active; 'I' for Inactive)
REMARK    1  A    between atoms: C_8  and  C_9 
REMARK    2  A    between atoms: C_14  and  N_15 
REMARK       I    between atoms: N_15  and  C_17 
REMARK    3  A    between atoms: C_17  and  C_19 
REMARK    4  A    between atoms: C_20  and  O_22 
REMARK    5  A    between atoms: C_26  and  C_30 
REMARK    6  A    between atoms: C_30  and  C_31 
REMARK    7  A    between atoms: C_31  and  C_32 
ROOT
HETATM    1  C   UNL     1      -0.902  10.215  25.369  0.00  0.00     0.066 A 
HETATM    2  C   UNL     1      -0.833  10.162  26.770  0.00  0.00     0.083 A 
HETATM    3  C   UNL     1      -0.004   9.251  27.441  0.00  0.00     0.069 A 
HETATM    4  C   UNL     1       0.013   9.430  24.628  0.00  0.00     0.035 A 
HETATM    5  C   UNL     1       0.893   8.543  25.287  0.00  0.00     0.019 A 
HETATM    6  C   UNL     1       0.831   8.447  26.670  0.00  0.00     0.065 A 
HETATM    7  C   UNL     1       1.941   7.652  24.921  0.00  0.00     0.067 A 
HETATM    8  N   UNL     1       2.432   7.000  25.981  0.00  0.00    -0.178 NA
HETATM    9  N   UNL     1       1.748   7.497  27.015  0.00  0.00    -0.277 N 
HETATM   10  H   UNL     1       1.968   7.143  27.938  0.00  0.00     0.189 HD
ENDROOT
BRANCH   1  11
HETATM   11  C   UNL     1      -1.794  11.113  24.552  0.00  0.00     0.260 C 
HETATM   12  N   UNL     1      -1.321  12.216  23.817  0.00  0.00    -0.318 N 
HETATM   13  C   UNL     1      -2.293  12.947  23.004  0.00  0.00     0.159 C 
HETATM   14  O   UNL     1      -2.990  10.806  24.534  0.00  0.00    -0.267 OA
BRANCH  12  15
HETATM   15  C   UNL     1      -0.013  12.753  23.863  0.00  0.00     0.037 C 
HETATM   16  C   UNL     1       0.481  13.340  25.020  0.00  0.00     0.030 C 
HETATM   17  C   UNL     1       1.851  13.568  25.152  0.00  0.00     0.010 C 
HETATM   18  C   UNL     1       2.755  13.134  24.165  0.00  0.00    -0.054 C 
HETATM   19  C   UNL     1       2.216  12.761  22.923  0.00  0.00     0.010 C 
HETATM   20  C   UNL     1       0.838  12.583  22.766  0.00  0.00     0.030 C 
BRANCH  18  21
HETATM   21  C   UNL     1       4.255  13.003  24.465  0.00  0.00     0.022 C 
HETATM   22  C   UNL     1       5.081  12.409  23.301  0.00  0.00     0.037 C 
HETATM   23  C   UNL     1       4.681  10.968  22.980  0.00  0.00     0.235 C 
HETATM   24  N   UNL     1       4.780  10.082  24.197  0.00  0.00    -0.075 N 
HETATM   25  C   UNL     1       4.131  10.657  25.430  0.00  0.00     0.235 C 
HETATM   26  C   UNL     1       6.155   9.534  24.445  0.00  0.00     0.269 C 
HETATM   27  H   UNL     1       4.212   9.261  23.947  0.00  0.00     0.279 HD
HETATM   28  C   UNL     1       4.562  12.092  25.682  0.00  0.00     0.037 C 
ENDBRANCH  18  21
ENDBRANCH  12  15
ENDBRANCH   1  11
BRANCH   2  29
HETATM   29  O   UNL     1      -1.495  11.013  27.618  0.00  0.00    -0.360 OA
HETATM   30  H   UNL     1      -1.263  10.749  28.529  0.00  0.00     0.217 HD
ENDBRANCH   2  29
BRANCH   7  31
HETATM   31  C   UNL     1       2.508   7.375  23.565  0.00  0.00     0.063 C 
BRANCH  31  32
HETATM   32  C   UNL     1       3.261   6.039  23.501  0.00  0.00     0.014 C 
BRANCH  32  33
HETATM   33  C   UNL     1       4.514   6.028  22.584  0.00  0.00    -0.051 C 
HETATM   34  C   UNL     1       4.477   4.838  21.613  0.00  0.00     0.014 C 
HETATM   35  C   UNL     1       4.519   7.331  21.762  0.00  0.00     0.014 C 
HETATM   36  C   UNL     1       5.809   5.969  23.411  0.00  0.00     0.014 C 
ENDBRANCH  32  33
ENDBRANCH  31  32
ENDBRANCH   7  31
TORSDOF 7
ENDMDL
MODEL 7
REMARK VINA RESULT:    -8.023      2.388      5.128
REMARK INTER + INTRA:         -13.175
REMARK INTER:                 -11.072
REMARK INTRA:                  -2.104
REMARK UNBOUND:                -2.104
REMARK  7 active torsions:
REMARK  status: ('A' for Active; 'I' for Inactive)
REMARK    1  A    between atoms: C_8  and  C_9 
REMARK    2  A    between atoms: C_14  and  N_15 
REMARK       I    between atoms: N_15  and  C_17 
REMARK    3  A    between atoms: C_17  and  C_19 
REMARK    4  A    between atoms: C_20  and  O_22 
REMARK    5  A    between atoms: C_26  and  C_30 
REMARK    6  A    between atoms: C_30  and  C_31 
REMARK    7  A    between atoms: C_31  and  C_32 
ROOT
HETATM    1  C   UNL     1       1.313  12.933  24.067  0.00  0.00     0.066 A 
HETATM    2  C   UNL     1       0.477  13.206  22.974  0.00  0.00     0.083 A 
HETATM    3  C   UNL     1      -0.785  12.610  22.834  0.00  0.00     0.069 A 
HETATM    4  C   UNL     1       0.789  12.155  25.127  0.00  0.00     0.035 A 
HETATM    5  C   UNL     1      -0.500  11.588  25.029  0.00  0.00     0.019 A 
HETATM    6  C   UNL     1      -1.234  11.796  23.869  0.00  0.00     0.065 A 
HETATM    7  C   UNL     1      -1.363  10.813  25.855  0.00  0.00     0.067 A 
HETATM    8  N   UNL     1      -2.503  10.500  25.228  0.00  0.00    -0.178 NA
HETATM    9  N   UNL     1      -2.398  11.103  24.040  0.00  0.00    -0.277 N 
HETATM   10  H   UNL     1      -3.170  11.004  23.393  0.00  0.00     0.189 HD
ENDROOT
BRANCH   1  11
HETATM   11  C   UNL     1       2.702  13.473  24.286  0.00  0.00     0.260 C 
HETATM   12  N   UNL     1       3.854  12.666  24.307  0.00  0.00    -0.318 N 
HETATM   13  C   UNL     1       5.144  13.342  24.447  0.00  0.00     0.159 C 
HETATM   14  O   UNL     1       2.785  14.698  24.419  0.00  0.00    -0.267 OA
BRANCH  12  15
HETATM   15  C   UNL     1       3.885  11.252  24.306  0.00  0.00     0.037 C 
HETATM   16  C   UNL     1       3.536  10.527  25.437  0.00  0.00     0.030 C 
HETATM   17  C   UNL     1       3.261   9.163  25.330  0.00  0.00     0.010 C 
HETATM   18  C   UNL     1       3.249   8.524  24.076  0.00  0.00    -0.054 C 
HETATM   19  C   UNL     1       3.825   9.217  22.999  0.00  0.00     0.010 C 
HETATM   20  C   UNL     1       4.153  10.571  23.114  0.00  0.00     0.030 C 
BRANCH  18  21
HETATM   21  C   UNL     1       2.566   7.162  23.886  0.00  0.00     0.022 C 
HETATM   22  C   UNL     1       2.793   6.175  25.055  0.00  0.00     0.037 C 
HETATM   23  C   UNL     1       4.265   5.788  25.210  0.00  0.00     0.235 C 
HETATM   24  N   UNL     1       4.828   5.222  23.930  0.00  0.00    -0.075 N 
HETATM   25  C   UNL     1       4.519   6.047  22.706  0.00  0.00     0.235 C 
HETATM   26  C   UNL     1       4.571   3.756  23.744  0.00  0.00     0.269 C 
HETATM   27  H   UNL     1       5.847   5.296  24.059  0.00  0.00     0.279 HD
HETATM   28  C   UNL     1       3.045   6.405  22.620  0.00  0.00     0.037 C 
ENDBRANCH  18  21
ENDBRANCH  12  15
ENDBRANCH   1  11
BRANCH   2  29
HETATM   29  O   UNL     1       0.758  14.111  21.981  0.00  0.00    -0.360 OA
HETATM   30  H   UNL     1      -0.082  14.552  21.747  0.00  0.00     0.217 HD
ENDBRANCH   2  29
BRANCH   7  31
HETATM   31  C   UNL     1      -1.142  10.332  27.254  0.00  0.00     0.063 C 
BRANCH  31  32
HETATM   32  C   UNL     1       0.216   9.641  27.433  0.00  0.00     0.014 C 
BRANCH  32  33
HETATM   33  C   UNL     1       0.151   8.123  27.755  0.00  0.00    -0.051 C 
HETATM   34  C   UNL     1      -0.299   7.317  26.527  0.00  0.00     0.014 C 
HETATM   35  C   UNL     1       1.563   7.656  28.157  0.00  0.00     0.014 C 
HETATM   36  C   UNL     1      -0.806   7.844  28.926  0.00  0.00     0.014 C 
ENDBRANCH  32  33
ENDBRANCH  31  32
ENDBRANCH   7  31
TORSDOF 7
ENDMDL
MODEL 8
REMARK VINA RESULT:    -8.019      3.072      6.036
REMARK INTER + INTRA:         -13.169
REMARK INTER:                 -12.543
REMARK INTRA:                  -0.626
REMARK UNBOUND:                -2.104
REMARK  7 active torsions:
REMARK  status: ('A' for Active; 'I' for Inactive)
REMARK    1  A    between atoms: C_8  and  C_9 
REMARK    2  A    between atoms: C_14  and  N_15 
REMARK       I    between atoms: N_15  and  C_17 
REMARK    3  A    between atoms: C_17  and  C_19 
REMARK    4  A    between atoms: C_20  and  O_22 
REMARK    5  A    between atoms: C_26  and  C_30 
REMARK    6  A    between atoms: C_30  and  C_31 
REMARK    7  A    between atoms: C_31  and  C_32 
ROOT
HETATM    1  C   UNL     1       4.872  12.926  24.003  0.00  0.00     0.066 A 
HETATM    2  C   UNL     1       4.464  14.215  24.379  0.00  0.00     0.083 A 
HETATM    3  C   UNL     1       3.117  14.531  24.614  0.00  0.00     0.069 A 
HETATM    4  C   UNL     1       3.906  11.891  24.017  0.00  0.00     0.035 A 
HETATM    5  C   UNL     1       2.554  12.179  24.302  0.00  0.00     0.019 A 
HETATM    6  C   UNL     1       2.189  13.495  24.550  0.00  0.00     0.065 A 
HETATM    7  C   UNL     1       1.341  11.447  24.448  0.00  0.00     0.067 A 
HETATM    8  N   UNL     1       0.299  12.253  24.687  0.00  0.00    -0.178 NA
HETATM    9  N   UNL     1       0.838  13.474  24.743  0.00  0.00    -0.277 N 
HETATM   10  H   UNL     1       0.218  14.253  24.927  0.00  0.00     0.189 HD
ENDROOT
BRANCH   1  11
HETATM   11  C   UNL     1       6.277  12.495  23.675  0.00  0.00     0.260 C 
HETATM   12  N   UNL     1       6.611  11.195  23.248  0.00  0.00    -0.318 N 
HETATM   13  C   UNL     1       8.007  10.946  22.887  0.00  0.00     0.159 C 
HETATM   14  O   UNL     1       7.143  13.370  23.773  0.00  0.00    -0.267 OA
BRANCH  12  15
HETATM   15  C   UNL     1       5.748  10.075  23.228  0.00  0.00     0.037 C 
HETATM   16  C   UNL     1       5.082   9.704  22.068  0.00  0.00     0.030 C 
HETATM   17  C   UNL     1       4.503   8.438  21.976  0.00  0.00     0.010 C 
HETATM   18  C   UNL     1       4.656   7.494  23.008  0.00  0.00    -0.054 C 
HETATM   19  C   UNL     1       5.125   7.969  24.244  0.00  0.00     0.010 C 
HETATM   20  C   UNL     1       5.659   9.257  24.359  0.00  0.00     0.030 C 
BRANCH  18  21
HETATM   21  C   UNL     1       4.393   6.002  22.765  0.00  0.00     0.022 C 
HETATM   22  C   UNL     1       2.986   5.694  22.203  0.00  0.00     0.037 C 
HETATM   23  C   UNL     1       1.873   6.071  23.182  0.00  0.00     0.235 C 
HETATM   24  N   UNL     1       2.061   5.398  24.519  0.00  0.00    -0.075 N 
HETATM   25  C   UNL     1       3.457   5.517  25.076  0.00  0.00     0.235 C 
HETATM   26  C   UNL     1       1.505   4.007  24.588  0.00  0.00     0.269 C 
HETATM   27  H   UNL     1       1.466   5.950  25.154  0.00  0.00     0.279 HD
HETATM   28  C   UNL     1       4.511   5.139  24.049  0.00  0.00     0.037 C 
ENDBRANCH  18  21
ENDBRANCH  12  15
ENDBRANCH   1  11
BRANCH   2  29
HETATM   29  O   UNL     1       5.313  15.265  24.620  0.00  0.00    -0.360 OA
HETATM   30  H   UNL     1       4.897  16.064  24.244  0.00  0.00     0.217 HD
ENDBRANCH   2  29
BRANCH   7  31
HETATM   31  C   UNL     1       1.118   9.971  24.356  0.00  0.00     0.063 C 
BRANCH  31  32
HETATM   32  C   UNL     1      -0.111   9.509  25.151  0.00  0.00     0.014 C 
BRANCH  32  33
HETATM   33  C   UNL     1       0.194   8.607  26.377  0.00  0.00    -0.051 C 
HETATM   34  C   UNL     1       1.708   8.488  26.612  0.00  0.00     0.014 C 
HETATM   35  C   UNL     1      -0.445   9.256  27.620  0.00  0.00     0.014 C 
HETATM   36  C   UNL     1      -0.405   7.203  26.199  0.00  0.00     0.014 C 
ENDBRANCH  32  33
ENDBRANCH  31  32
ENDBRANCH   7  31
TORSDOF 7
ENDMDL
MODEL 9
REMARK VINA RESULT:    -7.966      2.639      4.577
REMARK INTER + INTRA:         -13.097
REMARK INTER:                 -11.702
REMARK INTRA:                  -1.394
REMARK UNBOUND:                -2.104
REMARK  7 active torsions:
REMARK  status: ('A' for Active; 'I' for Inactive)
REMARK    1  A    between atoms: C_8  and  C_9 
REMARK    2  A    between atoms: C_14  and  N_15 
REMARK       I    between atoms: N_15  and  C_17 
REMARK    3  A    between atoms: C_17  and  C_19 
REMARK    4  A    between atoms: C_20  and  O_22 
REMARK    5  A    between atoms: C_26  and  C_30 
REMARK    6  A    between atoms: C_30  and  C_31 
REMARK    7  A    between atoms: C_31  and  C_32 
ROOT
HETATM    1  C   UNL     1       3.190   9.552  23.641  0.00  0.00     0.066 A 
HETATM    2  C   UNL     1       3.640   8.464  22.879  0.00  0.00     0.083 A 
HETATM    3  C   UNL     1       4.936   8.415  22.344  0.00  0.00     0.069 A 
HETATM    4  C   UNL     1       4.130  10.546  24.004  0.00  0.00     0.035 A 
HETATM    5  C   UNL     1       5.455  10.488  23.518  0.00  0.00     0.019 A 
HETATM    6  C   UNL     1       5.809   9.449  22.669  0.00  0.00     0.065 A 
HETATM    7  C   UNL     1       6.656  11.237  23.676  0.00  0.00     0.067 A 
HETATM    8  N   UNL     1       7.649  10.747  22.924  0.00  0.00    -0.178 NA
HETATM    9  N   UNL     1       7.112   9.677  22.332  0.00  0.00    -0.277 N 
HETATM   10  H   UNL     1       7.703   9.138  21.711  0.00  0.00     0.189 HD
ENDROOT
BRANCH   1  11
HETATM   11  C   UNL     1       1.808   9.729  24.214  0.00  0.00     0.260 C 
HETATM   12  N   UNL     1       1.219   8.823  25.116  0.00  0.00    -0.318 N 
HETATM   13  C   UNL     1      -0.097   9.170  25.652  0.00  0.00     0.159 C 
HETATM   14  O   UNL     1       1.212  10.754  23.867  0.00  0.00    -0.267 OA
BRANCH  12  15
HETATM   15  C   UNL     1       1.730   7.556  25.482  0.00  0.00     0.037 C 
HETATM   16  C   UNL     1       1.218   6.390  24.930  0.00  0.00     0.030 C 
HETATM   17  C   UNL     1       1.930   5.196  25.048  0.00  0.00     0.010 C 
HETATM   18  C   UNL     1       3.204   5.169  25.645  0.00  0.00    -0.054 C 
HETATM   19  C   UNL     1       3.585   6.296  26.390  0.00  0.00     0.010 C 
HETATM   20  C   UNL     1       2.848   7.482  26.320  0.00  0.00     0.030 C 
BRANCH  18  21
HETATM   21  C   UNL     1       4.158   3.987  25.425  0.00  0.00     0.022 C 
HETATM   22  C   UNL     1       5.656   4.367  25.486  0.00  0.00     0.037 C 
HETATM   23  C   UNL     1       6.057   5.329  24.367  0.00  0.00     0.235 C 
HETATM   24  N   UNL     1       5.714   4.771  23.008  0.00  0.00    -0.075 N 
HETATM   25  C   UNL     1       4.310   4.232  22.902  0.00  0.00     0.235 C 
HETATM   26  C   UNL     1       6.754   3.849  22.444  0.00  0.00     0.269 C 
HETATM   27  H   UNL     1       5.736   5.598  22.394  0.00  0.00     0.279 HD
HETATM   28  C   UNL     1       3.974   3.294  24.050  0.00  0.00     0.037 C 
ENDBRANCH  18  21
ENDBRANCH  12  15
ENDBRANCH   1  11
BRANCH   2  29
HETATM   29  O   UNL     1       2.914   7.327  22.632  0.00  0.00    -0.360 OA
HETATM   30  H   UNL     1       2.052   7.608  22.269  0.00  0.00     0.217 HD
ENDBRANCH   2  29
BRANCH   7  31
HETATM   31  C   UNL     1       6.907  12.440  24.526  0.00  0.00     0.063 C 
BRANCH  31  32
HETATM   32  C   UNL     1       6.206  13.697  23.994  0.00  0.00     0.014 C 
BRANCH  32  33
HETATM   33  C   UNL     1       5.138  14.312  24.938  0.00  0.00    -0.051 C 
HETATM   34  C   UNL     1       3.718  14.034  24.421  0.00  0.00     0.014 C 
HETATM   35  C   UNL     1       5.291  13.659  26.325  0.00  0.00     0.014 C 
HETATM   36  C   UNL     1       5.336  15.829  25.091  0.00  0.00     0.014 C 
ENDBRANCH  32  33
ENDBRANCH  31  32
ENDBRANCH   7  31
TORSDOF 7
ENDMDL
