MODEL 1
REMARK VINA RESULT:    -7.103      0.000      0.000
REMARK INTER + INTRA:         -11.148
REMARK INTER:                  -9.554
REMARK INTRA:                  -1.594
REMARK UNBOUND:                -0.930
REMARK  8 active torsions:
REMARK  status: ('A' for Active; 'I' for Inactive)
REMARK    1  A    between atoms: C_2  and  N_4 
REMARK    2  A    between atoms: N_4  and  C_5 
REMARK    3  A    between atoms: C_5  and  C_6 
REMARK    4  A    between atoms: C_6  and  C_7 
REMARK    5  A    between atoms: C_7  and  N_8 
REMARK    6  A    between atoms: C_9  and  S_10 
REMARK    7  A    between atoms: S_10  and  C_11 
REMARK    8  A    between atoms: C_23  and  N_24 
ROOT
HETATM    1  N   UNL     1       2.390   9.199  24.967  0.00  0.00    -0.308 N 
HETATM    2  C   UNL     1       2.883   8.028  24.442  0.00  0.00     0.176 A 
HETATM    3  N   UNL     1       2.115   7.001  24.742  0.00  0.00    -0.216 NA
HETATM    4  C   UNL     1       1.102   7.523  25.517  0.00  0.00     0.151 A 
HETATM    5  C   UNL     1      -0.026   6.955  26.139  0.00  0.00     0.155 A 
HETATM    6  N   UNL     1      -0.790   7.739  26.940  0.00  0.00    -0.222 NA
HETATM    7  C   UNL     1      -0.464   9.038  27.065  0.00  0.00     0.237 A 
HETATM    8  N   UNL     1       0.542   9.705  26.467  0.00  0.00    -0.222 NA
HETATM    9  C   UNL     1       1.286   8.881  25.710  0.00  0.00     0.166 A 
ENDROOT
BRANCH   2  10
HETATM   10  S   UNL     1       4.446   7.989  23.700  0.00  0.00    -0.051 SA
BRANCH  10  11
HETATM   11  C   UNL     1       4.212   7.622  21.961  0.00  0.00     0.028 C 
HETATM   12  C   UNL     1       4.023   8.641  21.018  0.00  0.00     0.060 C 
HETATM   13  C   UNL     1       3.472   8.312  19.797  0.00  0.00     0.106 C 
HETATM   14  O   UNL     1       3.051   9.206  18.858  0.00  0.00    -0.323 OA
HETATM   15  C   UNL     1       3.178   7.017  19.450  0.00  0.00     0.106 C 
HETATM   16  C   UNL     1       2.180   8.345  18.095  0.00  0.00     0.352 C 
HETATM   17  O   UNL     1       2.506   6.949  18.267  0.00  0.00    -0.323 OA
HETATM   18  C   UNL     1       3.478   5.961  20.270  0.00  0.00     0.059 C 
HETATM   19  C   UNL     1       3.995   6.270  21.543  0.00  0.00     0.026 C 
HETATM   20  I   UNL     1       4.364   4.587  22.778  0.00  0.00    -0.043 I 
ENDBRANCH  10  11
ENDBRANCH   2  10
BRANCH   1  21
HETATM   21  C   UNL     1       2.931  10.535  24.844  0.00  0.00     0.135 C 
BRANCH  21  22
HETATM   22  C   UNL     1       2.205  11.373  23.792  0.00  0.00     0.050 C 
BRANCH  22  23
HETATM   23  C   UNL     1       1.469  12.542  24.448  0.00  0.00     0.271 C 
BRANCH  23  24
HETATM   24  N   UNL     1       0.097  12.220  24.849  0.00  0.00     0.087 N 
HETATM   25  H   UNL     1       0.128  11.556  25.624  0.00  0.00     0.316 HD
BRANCH  24  26
HETATM   26  C   UNL     1      -0.756  11.680  23.784  0.00  0.00     0.212 C 
HETATM   27  C   UNL     1      -2.087  11.150  24.316  0.00  0.00     0.042 C 
HETATM   28  C   UNL     1      -1.002  12.785  22.755  0.00  0.00     0.042 C 
ENDBRANCH  24  26
ENDBRANCH  23  24
ENDBRANCH  22  23
ENDBRANCH  21  22
ENDBRANCH   1  21
BRANCH   5  29
HETATM   29  N   UNL     1      -0.398   5.627  25.992  0.00  0.00    -0.382 N 
HETATM   30  H   UNL     1      -1.394   5.464  26.091  0.00  0.00     0.157 HD
HETATM   31  H   UNL     1       0.084   5.173  25.229  0.00  0.00     0.157 HD
ENDBRANCH   5  29
TORSDOF 8
ENDMDL
MODEL 2
REMARK VINA RESULT:    -6.962      1.212      3.793
REMARK INTER + INTRA:         -10.944
REMARK INTER:                  -9.227
REMARK INTRA:                  -1.717
REMARK UNBOUND:                -0.930
REMARK  8 active torsions:
REMARK  status: ('A' for Active; 'I' for Inactive)
REMARK    1  A    between atoms: C_2  and  N_4 
REMARK    2  A    between atoms: N_4  and  C_5 
REMARK    3  A    between atoms: C_5  and  C_6 
REMARK    4  A    between atoms: C_6  and  C_7 
REMARK    5  A    between atoms: C_7  and  N_8 
REMARK    6  A    between atoms: C_9  and  S_10 
REMARK    7  A    between atoms: S_10  and  C_11 
REMARK    8  A    between atoms: C_23  and  N_24 
ROOT
HETATM    1  N   UNL     1       1.656   8.248  24.731  0.00  0.00    -0.308 N 
HETATM    2  C   UNL     1       2.834   8.909  24.466  0.00  0.00     0.176 A 
HETATM    3  N   UNL     1       2.655  10.212  24.401  0.00  0.00    -0.216 NA
HETATM    4  C   UNL     1       1.304  10.401  24.601  0.00  0.00     0.151 A 
HETATM    5  C   UNL     1       0.489  11.548  24.654  0.00  0.00     0.155 A 
HETATM    6  N   UNL     1      -0.853  11.385  24.763  0.00  0.00    -0.222 NA
HETATM    7  C   UNL     1      -1.342  10.136  24.865  0.00  0.00     0.237 A 
HETATM    8  N   UNL     1      -0.660   8.975  24.897  0.00  0.00    -0.222 NA
HETATM    9  C   UNL     1       0.660   9.185  24.757  0.00  0.00     0.166 A 
ENDROOT
BRANCH   2  10
HETATM   10  S   UNL     1       4.262   8.023  24.055  0.00  0.00    -0.051 SA
BRANCH  10  11
HETATM   11  C   UNL     1       4.175   7.633  22.308  0.00  0.00     0.028 C 
HETATM   12  C   UNL     1       4.066   8.639  21.338  0.00  0.00     0.060 C 
HETATM   13  C   UNL     1       3.620   8.293  20.081  0.00  0.00     0.106 C 
HETATM   14  O   UNL     1       3.280   9.174  19.097  0.00  0.00    -0.323 OA
HETATM   15  C   UNL     1       3.354   6.993  19.728  0.00  0.00     0.106 C 
HETATM   16  C   UNL     1       2.475   8.303  18.276  0.00  0.00     0.352 C 
HETATM   17  O   UNL     1       2.783   6.909  18.494  0.00  0.00    -0.323 OA
HETATM   18  C   UNL     1       3.583   5.949  20.584  0.00  0.00     0.059 C 
HETATM   19  C   UNL     1       3.992   6.275  21.892  0.00  0.00     0.026 C 
HETATM   20  I   UNL     1       4.254   4.609  23.176  0.00  0.00    -0.043 I 
ENDBRANCH  10  11
ENDBRANCH   2  10
BRANCH   1  21
HETATM   21  C   UNL     1       1.442   6.828  24.896  0.00  0.00     0.135 C 
BRANCH  21  22
HETATM   22  C   UNL     1       1.456   6.394  26.362  0.00  0.00     0.050 C 
BRANCH  22  23
HETATM   23  C   UNL     1       0.040   6.068  26.840  0.00  0.00     0.271 C 
BRANCH  23  24
HETATM   24  N   UNL     1      -0.606   7.169  27.558  0.00  0.00     0.087 N 
HETATM   25  H   UNL     1      -1.117   7.744  26.887  0.00  0.00     0.316 HD
BRANCH  24  26
HETATM   26  C   UNL     1       0.299   8.024  28.337  0.00  0.00     0.212 C 
HETATM   27  C   UNL     1      -0.207   9.462  28.442  0.00  0.00     0.042 C 
HETATM   28  C   UNL     1       0.456   7.416  29.732  0.00  0.00     0.042 C 
ENDBRANCH  24  26
ENDBRANCH  23  24
ENDBRANCH  22  23
ENDBRANCH  21  22
ENDBRANCH   1  21
BRANCH   5  29
HETATM   29  N   UNL     1       0.979  12.843  24.587  0.00  0.00    -0.382 N 
HETATM   30  H   UNL     1       1.214  13.242  25.490  0.00  0.00     0.157 HD
HETATM   31  H   UNL     1       1.632  12.970  23.827  0.00  0.00     0.157 HD
ENDBRANCH   5  29
TORSDOF 8
ENDMDL
MODEL 3
REMARK VINA RESULT:    -6.920      4.143      7.392
REMARK INTER + INTRA:         -10.884
REMARK INTER:                  -9.511
REMARK INTRA:                  -1.373
REMARK UNBOUND:                -0.930
REMARK  8 active torsions:
REMARK  status: ('A' for Active; 'I' for Inactive)
REMARK    1  A    between atoms: C_2  and  N_4 
REMARK    2  A    between atoms: N_4  and  C_5 
REMARK    3  A    between atoms: C_5  and  C_6 
REMARK    4  A    between atoms: C_6  and  C_7 
REMARK    5  A    between atoms: C_7  and  N_8 
REMARK    6  A    between atoms: C_9  and  S_10 
REMARK    7  A    between atoms: S_10  and  C_11 
REMARK    8  A    between atoms: C_23  and  N_24 
ROOT
HETATM    1  N   UNL     1       4.001   6.488  19.718  0.00  0.00    -0.308 N 
HETATM    2  C   UNL     1       4.024   7.632  20.481  0.00  0.00     0.176 A 
HETATM    3  N   UNL     1       3.351   8.609  19.910  0.00  0.00    -0.216 NA
HETATM    4  C   UNL     1       2.901   8.087  18.716  0.00  0.00     0.151 A 
HETATM    5  C   UNL     1       2.128   8.615  17.664  0.00  0.00     0.155 A 
HETATM    6  N   UNL     1       1.944   7.860  16.552  0.00  0.00    -0.222 NA
HETATM    7  C   UNL     1       2.467   6.621  16.525  0.00  0.00     0.237 A 
HETATM    8  N   UNL     1       3.158   5.987  17.491  0.00  0.00    -0.222 NA
HETATM    9  C   UNL     1       3.340   6.784  18.558  0.00  0.00     0.166 A 
ENDROOT
BRANCH   2  10
HETATM   10  S   UNL     1       5.036   7.732  21.881  0.00  0.00    -0.051 SA
BRANCH  10  11
HETATM   11  C   UNL     1       4.001   7.469  23.320  0.00  0.00     0.028 C 
HETATM   12  C   UNL     1       2.971   8.360  23.653  0.00  0.00     0.060 C 
HETATM   13  C   UNL     1       2.473   8.337  24.938  0.00  0.00     0.106 C 
HETATM   14  O   UNL     1       1.617   9.258  25.466  0.00  0.00    -0.323 OA
HETATM   15  C   UNL     1       2.897   7.427  25.874  0.00  0.00     0.106 C 
HETATM   16  C   UNL     1       1.847   9.010  26.868  0.00  0.00     0.352 C 
HETATM   17  O   UNL     1       2.383   7.690  27.107  0.00  0.00    -0.323 OA
HETATM   18  C   UNL     1       3.793   6.437  25.567  0.00  0.00     0.059 C 
HETATM   19  C   UNL     1       4.355   6.464  24.276  0.00  0.00     0.026 C 
HETATM   20  I   UNL     1       5.785   4.944  23.905  0.00  0.00    -0.043 I 
ENDBRANCH  10  11
ENDBRANCH   2  10
BRANCH   1  21
HETATM   21  C   UNL     1       4.601   5.204  20.008  0.00  0.00     0.135 C 
BRANCH  21  22
HETATM   22  C   UNL     1       3.564   4.121  20.306  0.00  0.00     0.050 C 
BRANCH  22  23
HETATM   23  C   UNL     1       2.645   4.555  21.449  0.00  0.00     0.271 C 
BRANCH  23  24
HETATM   24  N   UNL     1       1.278   4.859  21.020  0.00  0.00     0.087 N 
HETATM   25  H   UNL     1       0.625   4.481  21.708  0.00  0.00     0.316 HD
BRANCH  24  26
HETATM   26  C   UNL     1       0.916   4.362  19.687  0.00  0.00     0.212 C 
HETATM   27  C   UNL     1       0.297   2.966  19.735  0.00  0.00     0.042 C 
HETATM   28  C   UNL     1      -0.063   5.352  19.052  0.00  0.00     0.042 C 
ENDBRANCH  24  26
ENDBRANCH  23  24
ENDBRANCH  22  23
ENDBRANCH  21  22
ENDBRANCH   1  21
BRANCH   5  29
HETATM   29  N   UNL     1       1.551   9.876  17.691  0.00  0.00    -0.382 N 
HETATM   30  H   UNL     1       2.222  10.636  17.703  0.00  0.00     0.157 HD
HETATM   31  H   UNL     1       0.758   9.951  17.069  0.00  0.00     0.157 HD
ENDBRANCH   5  29
TORSDOF 8
ENDMDL
MODEL 4
REMARK VINA RESULT:    -6.911      4.252      7.305
REMARK INTER + INTRA:         -10.871
REMARK INTER:                  -9.841
REMARK INTRA:                  -1.031
REMARK UNBOUND:                -0.930
REMARK  8 active torsions:
REMARK  status: ('A' for Active; 'I' for Inactive)
REMARK    1  A    between atoms: C_2  and  N_4 
REMARK    2  A    between atoms: N_4  and  C_5 
REMARK    3  A    between atoms: C_5  and  C_6 
REMARK    4  A    between atoms: C_6  and  C_7 
REMARK    5  A    between atoms: C_7  and  N_8 
REMARK    6  A    between atoms: C_9  and  S_10 
REMARK    7  A    between atoms: S_10  and  C_11 
REMARK    8  A    between atoms: C_23  and  N_24 
ROOT
HETATM    1  N   UNL     1       1.474   9.855  24.900  0.00  0.00    -0.308 N 
HETATM    2  C   UNL     1       0.569   8.856  25.175  0.00  0.00     0.176 A 
HETATM    3  N   UNL     1      -0.672   9.278  25.045  0.00  0.00    -0.216 NA
HETATM    4  C   UNL     1      -0.567  10.609  24.702  0.00  0.00     0.151 A 
HETATM    5  C   UNL     1      -1.516  11.610  24.419  0.00  0.00     0.155 A 
HETATM    6  N   UNL     1      -1.081  12.878  24.215  0.00  0.00    -0.222 NA
HETATM    7  C   UNL     1       0.242  13.114  24.242  0.00  0.00     0.237 A 
HETATM    8  N   UNL     1       1.242  12.231  24.430  0.00  0.00    -0.222 NA
HETATM    9  C   UNL     1       0.761  10.997  24.657  0.00  0.00     0.166 A 
ENDROOT
BRANCH   2  10
HETATM   10  S   UNL     1       1.101   7.345  25.829  0.00  0.00    -0.051 SA
BRANCH  10  11
HETATM   11  C   UNL     1       0.766   7.368  27.589  0.00  0.00     0.028 C 
HETATM   12  C   UNL     1       1.264   8.384  28.416  0.00  0.00     0.060 C 
HETATM   13  C   UNL     1       1.314   8.159  29.775  0.00  0.00     0.106 C 
HETATM   14  O   UNL     1       1.941   8.961  30.682  0.00  0.00    -0.323 OA
HETATM   15  C   UNL     1       0.825   7.012  30.348  0.00  0.00     0.106 C 
HETATM   16  C   UNL     1       2.075   8.021  31.768  0.00  0.00     0.352 C 
HETATM   17  O   UNL     1       1.118   6.943  31.676  0.00  0.00    -0.323 OA
HETATM   18  C   UNL     1       0.192   6.047  29.610  0.00  0.00     0.059 C 
HETATM   19  C   UNL     1       0.169   6.225  28.213  0.00  0.00     0.026 C 
HETATM   20  I   UNL     1      -0.763   4.654  27.138  0.00  0.00    -0.043 I 
ENDBRANCH  10  11
ENDBRANCH   2  10
BRANCH   1  21
HETATM   21  C   UNL     1       2.919   9.784  24.912  0.00  0.00     0.135 C 
BRANCH  21  22
HETATM   22  C   UNL     1       3.515   9.625  23.514  0.00  0.00     0.050 C 
BRANCH  22  23
HETATM   23  C   UNL     1       3.824   8.155  23.224  0.00  0.00     0.271 C 
BRANCH  23  24
HETATM   24  N   UNL     1       3.572   7.765  21.834  0.00  0.00     0.087 N 
HETATM   25  H   UNL     1       3.774   6.770  21.730  0.00  0.00     0.316 HD
BRANCH  24  26
HETATM   26  C   UNL     1       4.325   8.520  20.826  0.00  0.00     0.212 C 
HETATM   27  C   UNL     1       5.757   8.010  20.667  0.00  0.00     0.042 C 
HETATM   28  C   UNL     1       3.580   8.423  19.493  0.00  0.00     0.042 C 
ENDBRANCH  24  26
ENDBRANCH  23  24
ENDBRANCH  22  23
ENDBRANCH  21  22
ENDBRANCH   1  21
BRANCH   5  29
HETATM   29  N   UNL     1      -2.882  11.377  24.351  0.00  0.00    -0.382 N 
HETATM   30  H   UNL     1      -3.193  10.586  24.906  0.00  0.00     0.157 HD
HETATM   31  H   UNL     1      -3.421  12.230  24.395  0.00  0.00     0.157 HD
ENDBRANCH   5  29
TORSDOF 8
ENDMDL
MODEL 5
REMARK VINA RESULT:    -6.838      5.919      7.989
REMARK INTER + INTRA:         -10.766
REMARK INTER:                  -9.391
REMARK INTRA:                  -1.374
REMARK UNBOUND:                -0.930
REMARK  8 active torsions:
REMARK  status: ('A' for Active; 'I' for Inactive)
REMARK    1  A    between atoms: C_2  and  N_4 
REMARK    2  A    between atoms: N_4  and  C_5 
REMARK    3  A    between atoms: C_5  and  C_6 
REMARK    4  A    between atoms: C_6  and  C_7 
REMARK    5  A    between atoms: C_7  and  N_8 
REMARK    6  A    between atoms: C_9  and  S_10 
REMARK    7  A    between atoms: S_10  and  C_11 
REMARK    8  A    between atoms: C_23  and  N_24 
ROOT
HETATM    1  N   UNL     1       1.551   3.347  18.961  0.00  0.00    -0.308 N 
HETATM    2  C   UNL     1       2.673   3.700  19.675  0.00  0.00     0.176 A 
HETATM    3  N   UNL     1       3.757   3.139  19.182  0.00  0.00    -0.216 NA
HETATM    4  C   UNL     1       3.318   2.369  18.126  0.00  0.00     0.151 A 
HETATM    5  C   UNL     1       3.975   1.539  17.199  0.00  0.00     0.155 A 
HETATM    6  N   UNL     1       3.226   0.819  16.328  0.00  0.00    -0.222 NA
HETATM    7  C   UNL     1       1.890   0.967  16.356  0.00  0.00     0.237 A 
HETATM    8  N   UNL     1       1.158   1.778  17.143  0.00  0.00    -0.222 NA
HETATM    9  C   UNL     1       1.940   2.448  18.007  0.00  0.00     0.166 A 
ENDROOT
BRANCH   2  10
HETATM   10  S   UNL     1       2.528   4.583  21.156  0.00  0.00    -0.051 SA
BRANCH  10  11
HETATM   11  C   UNL     1       3.795   5.850  21.159  0.00  0.00     0.028 C 
HETATM   12  C   UNL     1       3.819   6.863  20.191  0.00  0.00     0.060 C 
HETATM   13  C   UNL     1       4.992   7.561  20.000  0.00  0.00     0.106 C 
HETATM   14  O   UNL     1       5.231   8.432  18.978  0.00  0.00    -0.323 OA
HETATM   15  C   UNL     1       6.106   7.351  20.774  0.00  0.00     0.106 C 
HETATM   16  C   UNL     1       6.673   8.446  19.020  0.00  0.00     0.352 C 
HETATM   17  O   UNL     1       7.185   8.039  20.308  0.00  0.00    -0.323 OA
HETATM   18  C   UNL     1       6.099   6.481  21.832  0.00  0.00     0.059 C 
HETATM   19  C   UNL     1       4.930   5.718  22.021  0.00  0.00     0.026 C 
HETATM   20  I   UNL     1       5.025   4.344  23.633  0.00  0.00    -0.043 I 
ENDBRANCH  10  11
ENDBRANCH   2  10
BRANCH   1  21
HETATM   21  C   UNL     1       0.183   3.767  19.174  0.00  0.00     0.135 C 
BRANCH  21  22
HETATM   22  C   UNL     1      -0.309   4.742  18.105  0.00  0.00     0.050 C 
BRANCH  22  23
HETATM   23  C   UNL     1       0.328   6.119  18.296  0.00  0.00     0.271 C 
BRANCH  23  24
HETATM   24  N   UNL     1       0.280   6.959  17.097  0.00  0.00     0.087 N 
HETATM   25  H   UNL     1      -0.061   6.398  16.315  0.00  0.00     0.316 HD
BRANCH  24  26
HETATM   26  C   UNL     1       1.553   7.587  16.722  0.00  0.00     0.212 C 
HETATM   27  C   UNL     1       1.921   8.750  17.643  0.00  0.00     0.042 C 
HETATM   28  C   UNL     1       2.648   6.519  16.759  0.00  0.00     0.042 C 
ENDBRANCH  24  26
ENDBRANCH  23  24
ENDBRANCH  22  23
ENDBRANCH  21  22
ENDBRANCH   1  21
BRANCH   5  29
HETATM   29  N   UNL     1       5.354   1.403  17.132  0.00  0.00    -0.382 N 
HETATM   30  H   UNL     1       5.681   0.933  16.294  0.00  0.00     0.157 HD
HETATM   31  H   UNL     1       5.839   2.237  17.429  0.00  0.00     0.157 HD
ENDBRANCH   5  29
TORSDOF 8
ENDMDL
MODEL 6
REMARK VINA RESULT:    -6.796      4.820      7.694
REMARK INTER + INTRA:         -10.706
REMARK INTER:                  -8.957
REMARK INTRA:                  -1.749
REMARK UNBOUND:                -0.930
REMARK  8 active torsions:
REMARK  status: ('A' for Active; 'I' for Inactive)
REMARK    1  A    between atoms: C_2  and  N_4 
REMARK    2  A    between atoms: N_4  and  C_5 
REMARK    3  A    between atoms: C_5  and  C_6 
REMARK    4  A    between atoms: C_6  and  C_7 
REMARK    5  A    between atoms: C_7  and  N_8 
REMARK    6  A    between atoms: C_9  and  S_10 
REMARK    7  A    between atoms: S_10  and  C_11 
REMARK    8  A    between atoms: C_23  and  N_24 
ROOT
HETATM    1  N   UNL     1       4.170   6.680  19.390  0.00  0.00    -0.308 N 
HETATM    2  C   UNL     1       4.305   7.843  20.112  0.00  0.00     0.176 A 
HETATM    3  N   UNL     1       3.552   8.807  19.625  0.00  0.00    -0.216 NA
HETATM    4  C   UNL     1       2.927   8.256  18.526  0.00  0.00     0.151 A 
HETATM    5  C   UNL     1       2.003   8.758  17.590  0.00  0.00     0.155 A 
HETATM    6  N   UNL     1       1.656   7.977  16.538  0.00  0.00    -0.222 NA
HETATM    7  C   UNL     1       2.171   6.737  16.462  0.00  0.00     0.237 A 
HETATM    8  N   UNL     1       3.001   6.125  17.329  0.00  0.00    -0.222 NA
HETATM    9  C   UNL     1       3.340   6.948  18.336  0.00  0.00     0.166 A 
ENDROOT
BRANCH   2  10
HETATM   10  S   UNL     1       5.517   7.976  21.340  0.00  0.00    -0.051 SA
BRANCH  10  11
HETATM   11  C   UNL     1       4.761   7.522  22.901  0.00  0.00     0.028 C 
HETATM   12  C   UNL     1       4.749   6.194  23.348  0.00  0.00     0.060 C 
HETATM   13  C   UNL     1       3.845   5.839  24.326  0.00  0.00     0.106 C 
HETATM   14  O   UNL     1       3.579   4.563  24.726  0.00  0.00    -0.323 OA
HETATM   15  C   UNL     1       3.017   6.754  24.927  0.00  0.00     0.106 C 
HETATM   16  C   UNL     1       2.297   4.779  25.350  0.00  0.00     0.352 C 
HETATM   17  O   UNL     1       2.109   6.155  25.748  0.00  0.00    -0.323 OA
HETATM   18  C   UNL     1       3.085   8.091  24.639  0.00  0.00     0.059 C 
HETATM   19  C   UNL     1       3.964   8.477  23.609  0.00  0.00     0.026 C 
HETATM   20  I   UNL     1       3.958  10.552  23.174  0.00  0.00    -0.043 I 
ENDBRANCH  10  11
ENDBRANCH   2  10
BRANCH   1  21
HETATM   21  C   UNL     1       4.809   5.403  19.618  0.00  0.00     0.135 C 
BRANCH  21  22
HETATM   22  C   UNL     1       3.930   4.435  20.409  0.00  0.00     0.050 C 
BRANCH  22  23
HETATM   23  C   UNL     1       3.434   3.301  19.510  0.00  0.00     0.271 C 
BRANCH  23  24
HETATM   24  N   UNL     1       2.168   3.600  18.835  0.00  0.00     0.087 N 
HETATM   25  H   UNL     1       2.286   4.443  18.272  0.00  0.00     0.316 HD
BRANCH  24  26
HETATM   26  C   UNL     1       1.011   3.770  19.723  0.00  0.00     0.212 C 
HETATM   27  C   UNL     1       0.269   5.081  19.466  0.00  0.00     0.042 C 
HETATM   28  C   UNL     1       0.068   2.582  19.521  0.00  0.00     0.042 C 
ENDBRANCH  24  26
ENDBRANCH  23  24
ENDBRANCH  22  23
ENDBRANCH  21  22
ENDBRANCH   1  21
BRANCH   5  29
HETATM   29  N   UNL     1       1.434  10.021  17.672  0.00  0.00    -0.382 N 
HETATM   30  H   UNL     1       1.101  10.381  16.785  0.00  0.00     0.157 HD
HETATM   31  H   UNL     1       0.837  10.122  18.481  0.00  0.00     0.157 HD
ENDBRANCH   5  29
TORSDOF 8
ENDMDL
MODEL 7
REMARK VINA RESULT:    -6.700      3.039      4.900
REMARK INTER + INTRA:         -10.568
REMARK INTER:                  -9.407
REMARK INTRA:                  -1.161
REMARK UNBOUND:                -0.930
REMARK  8 active torsions:
REMARK  status: ('A' for Active; 'I' for Inactive)
REMARK    1  A    between atoms: C_2  and  N_4 
REMARK    2  A    between atoms: N_4  and  C_5 
REMARK    3  A    between atoms: C_5  and  C_6 
REMARK    4  A    between atoms: C_6  and  C_7 
REMARK    5  A    between atoms: C_7  and  N_8 
REMARK    6  A    between atoms: C_9  and  S_10 
REMARK    7  A    between atoms: S_10  and  C_11 
REMARK    8  A    between atoms: C_23  and  N_24 
ROOT
HETATM    1  N   UNL     1       1.119   8.113  27.353  0.00  0.00    -0.308 N 
HETATM    2  C   UNL     1       1.137   7.745  26.027  0.00  0.00     0.176 A 
HETATM    3  N   UNL     1       0.293   8.461  25.314  0.00  0.00    -0.216 NA
HETATM    4  C   UNL     1      -0.317   9.306  26.217  0.00  0.00     0.151 A 
HETATM    5  C   UNL     1      -1.297  10.309  26.089  0.00  0.00     0.155 A 
HETATM    6  N   UNL     1      -1.772  10.898  27.214  0.00  0.00    -0.222 NA
HETATM    7  C   UNL     1      -1.251  10.533  28.399  0.00  0.00     0.237 A 
HETATM    8  N   UNL     1      -0.268   9.644  28.638  0.00  0.00    -0.222 NA
HETATM    9  C   UNL     1       0.149   9.066  27.499  0.00  0.00     0.166 A 
ENDROOT
BRANCH   2  10
HETATM   10  S   UNL     1       2.020   6.347  25.517  0.00  0.00    -0.051 SA
BRANCH  10  11
HETATM   11  C   UNL     1       3.348   6.902  24.450  0.00  0.00     0.028 C 
HETATM   12  C   UNL     1       3.218   8.051  23.658  0.00  0.00     0.060 C 
HETATM   13  C   UNL     1       4.079   8.216  22.595  0.00  0.00     0.106 C 
HETATM   14  O   UNL     1       3.960   9.169  21.626  0.00  0.00    -0.323 OA
HETATM   15  C   UNL     1       5.102   7.338  22.335  0.00  0.00     0.106 C 
HETATM   16  C   UNL     1       4.782   8.565  20.606  0.00  0.00     0.352 C 
HETATM   17  O   UNL     1       5.722   7.616  21.154  0.00  0.00    -0.323 OA
HETATM   18  C   UNL     1       5.373   6.277  23.159  0.00  0.00     0.059 C 
HETATM   19  C   UNL     1       4.480   6.055  24.225  0.00  0.00     0.026 C 
HETATM   20  I   UNL     1       4.926   4.354  25.410  0.00  0.00    -0.043 I 
ENDBRANCH  10  11
ENDBRANCH   2  10
BRANCH   1  21
HETATM   21  C   UNL     1       1.910   7.582  28.442  0.00  0.00     0.135 C 
BRANCH  21  22
HETATM   22  C   UNL     1       3.045   8.516  28.858  0.00  0.00     0.050 C 
BRANCH  22  23
HETATM   23  C   UNL     1       3.068   8.691  30.378  0.00  0.00     0.271 C 
BRANCH  23  24
HETATM   24  N   UNL     1       1.736   8.821  30.974  0.00  0.00     0.087 N 
HETATM   25  H   UNL     1       1.616   9.779  31.304  0.00  0.00     0.316 HD
BRANCH  24  26
HETATM   26  C   UNL     1       1.449   7.891  32.073  0.00  0.00     0.212 C 
HETATM   27  C   UNL     1       0.114   7.170  31.891  0.00  0.00     0.042 C 
HETATM   28  C   UNL     1       2.590   6.876  32.157  0.00  0.00     0.042 C 
ENDBRANCH  24  26
ENDBRANCH  23  24
ENDBRANCH  22  23
ENDBRANCH  21  22
ENDBRANCH   1  21
BRANCH   5  29
HETATM   29  N   UNL     1      -1.818  10.723  24.873  0.00  0.00    -0.382 N 
HETATM   30  H   UNL     1      -1.895   9.983  24.184  0.00  0.00     0.157 HD
HETATM   31  H   UNL     1      -2.601  11.352  24.984  0.00  0.00     0.157 HD
ENDBRANCH   5  29
TORSDOF 8
ENDMDL
MODEL 8
REMARK VINA RESULT:    -6.684      2.616      5.059
REMARK INTER + INTRA:         -10.545
REMARK INTER:                  -9.615
REMARK INTRA:                  -0.930
REMARK UNBOUND:                -0.930
REMARK  8 active torsions:
REMARK  status: ('A' for Active; 'I' for Inactive)
REMARK    1  A    between atoms: C_2  and  N_4 
REMARK    2  A    between atoms: N_4  and  C_5 
REMARK    3  A    between atoms: C_5  and  C_6 
REMARK    4  A    between atoms: C_6  and  C_7 
REMARK    5  A    between atoms: C_7  and  N_8 
REMARK    6  A    between atoms: C_9  and  S_10 
REMARK    7  A    between atoms: S_10  and  C_11 
REMARK    8  A    between atoms: C_23  and  N_24 
ROOT
HETATM    1  N   UNL     1      -0.228   9.725  26.090  0.00  0.00    -0.308 N 
HETATM    2  C   UNL     1       1.044  10.000  25.645  0.00  0.00     0.176 A 
HETATM    3  N   UNL     1       1.040  10.914  24.697  0.00  0.00    -0.216 NA
HETATM    4  C   UNL     1      -0.290  11.222  24.499  0.00  0.00     0.151 A 
HETATM    5  C   UNL     1      -0.954  12.118  23.640  0.00  0.00     0.155 A 
HETATM    6  N   UNL     1      -2.310  12.106  23.613  0.00  0.00    -0.222 NA
HETATM    7  C   UNL     1      -2.961  11.273  24.444  0.00  0.00     0.237 A 
HETATM    8  N   UNL     1      -2.439  10.428  25.353  0.00  0.00    -0.222 NA
HETATM    9  C   UNL     1      -1.095  10.454  25.322  0.00  0.00     0.166 A 
ENDROOT
BRANCH   2  10
HETATM   10  S   UNL     1       2.383   9.037  26.168  0.00  0.00    -0.051 SA
BRANCH  10  11
HETATM   11  C   UNL     1       3.092   8.259  24.717  0.00  0.00     0.028 C 
HETATM   12  C   UNL     1       3.695   9.016  23.702  0.00  0.00     0.060 C 
HETATM   13  C   UNL     1       3.868   8.434  22.465  0.00  0.00     0.106 C 
HETATM   14  O   UNL     1       4.256   9.091  21.335  0.00  0.00    -0.323 OA
HETATM   15  C   UNL     1       3.543   7.124  22.217  0.00  0.00     0.106 C 
HETATM   16  C   UNL     1       3.800   8.143  20.348  0.00  0.00     0.352 C 
HETATM   17  O   UNL     1       3.655   6.813  20.895  0.00  0.00    -0.323 OA
HETATM   18  C   UNL     1       3.088   6.291  23.205  0.00  0.00     0.059 C 
HETATM   19  C   UNL     1       2.855   6.869  24.468  0.00  0.00     0.026 C 
HETATM   20  I   UNL     1       2.084   5.532  25.922  0.00  0.00    -0.043 I 
ENDBRANCH  10  11
ENDBRANCH   2  10
BRANCH   1  21
HETATM   21  C   UNL     1      -0.636   8.803  27.126  0.00  0.00     0.135 C 
BRANCH  21  22
HETATM   22  C   UNL     1      -0.493   9.389  28.530  0.00  0.00     0.050 C 
BRANCH  22  23
HETATM   23  C   UNL     1       0.393   8.496  29.399  0.00  0.00     0.271 C 
BRANCH  23  24
HETATM   24  N   UNL     1       0.421   8.891  30.810  0.00  0.00     0.087 N 
HETATM   25  H   UNL     1       0.049   9.838  30.894  0.00  0.00     0.316 HD
BRANCH  24  26
HETATM   26  C   UNL     1       1.739   8.830  31.451  0.00  0.00     0.212 C 
HETATM   27  C   UNL     1       1.916   7.573  32.301  0.00  0.00     0.042 C 
HETATM   28  C   UNL     1       2.810   8.883  30.359  0.00  0.00     0.042 C 
ENDBRANCH  24  26
ENDBRANCH  23  24
ENDBRANCH  22  23
ENDBRANCH  21  22
ENDBRANCH   1  21
BRANCH   5  29
HETATM   29  N   UNL     1      -0.299  13.010  22.803  0.00  0.00    -0.382 N 
HETATM   30  H   UNL     1       0.650  13.222  23.090  0.00  0.00     0.157 HD
HETATM   31  H   UNL     1      -0.470  12.817  21.826  0.00  0.00     0.157 HD
ENDBRANCH   5  29
TORSDOF 8
ENDMDL
MODEL 9
REMARK VINA RESULT:    -6.613      1.853      4.409
REMARK INTER + INTRA:         -10.443
REMARK INTER:                  -9.017
REMARK INTRA:                  -1.426
REMARK UNBOUND:                -0.930
REMARK  8 active torsions:
REMARK  status: ('A' for Active; 'I' for Inactive)
REMARK    1  A    between atoms: C_2  and  N_4 
REMARK    2  A    between atoms: N_4  and  C_5 
REMARK    3  A    between atoms: C_5  and  C_6 
REMARK    4  A    between atoms: C_6  and  C_7 
REMARK    5  A    between atoms: C_7  and  N_8 
REMARK    6  A    between atoms: C_9  and  S_10 
REMARK    7  A    between atoms: S_10  and  C_11 
REMARK    8  A    between atoms: C_23  and  N_24 
ROOT
HETATM    1  N   UNL     1       2.875   7.098  24.122  0.00  0.00    -0.308 N 
HETATM    2  C   UNL     1       3.827   7.831  23.452  0.00  0.00     0.176 A 
HETATM    3  N   UNL     1       3.595   9.125  23.544  0.00  0.00    -0.216 NA
HETATM    4  C   UNL     1       2.432   9.232  24.275  0.00  0.00     0.151 A 
HETATM    5  C   UNL     1       1.669  10.330  24.718  0.00  0.00     0.155 A 
HETATM    6  N   UNL     1       0.489  10.091  25.341  0.00  0.00    -0.222 NA
HETATM    7  C   UNL     1       0.122   8.814  25.552  0.00  0.00     0.237 A 
HETATM    8  N   UNL     1       0.796   7.691  25.239  0.00  0.00    -0.222 NA
HETATM    9  C   UNL     1       1.943   7.978  24.599  0.00  0.00     0.166 A 
ENDROOT
BRANCH   2  10
HETATM   10  S   UNL     1       5.000   7.043  22.454  0.00  0.00    -0.051 SA
BRANCH  10  11
HETATM   11  C   UNL     1       4.385   7.068  20.771  0.00  0.00     0.028 C 
HETATM   12  C   UNL     1       4.115   8.273  20.108  0.00  0.00     0.060 C 
HETATM   13  C   UNL     1       3.300   8.244  18.997  0.00  0.00     0.106 C 
HETATM   14  O   UNL     1       2.792   9.340  18.365  0.00  0.00    -0.323 OA
HETATM   15  C   UNL     1       2.809   7.072  18.477  0.00  0.00     0.106 C 
HETATM   16  C   UNL     1       1.701   8.714  17.658  0.00  0.00     0.352 C 
HETATM   17  O   UNL     1       1.909   7.296  17.480  0.00  0.00    -0.323 OA
HETATM   18  C   UNL     1       3.157   5.850  18.991  0.00  0.00     0.059 C 
HETATM   19  C   UNL     1       3.949   5.851  20.155  0.00  0.00     0.026 C 
HETATM   20  I   UNL     1       4.383   3.925  20.928  0.00  0.00    -0.043 I 
ENDBRANCH  10  11
ENDBRANCH   2  10
BRANCH   1  21
HETATM   21  C   UNL     1       2.791   5.662  24.271  0.00  0.00     0.135 C 
BRANCH  21  22
HETATM   22  C   UNL     1       3.530   5.152  25.508  0.00  0.00     0.050 C 
BRANCH  22  23
HETATM   23  C   UNL     1       2.553   4.499  26.488  0.00  0.00     0.271 C 
BRANCH  23  24
HETATM   24  N   UNL     1       1.147   4.782  26.190  0.00  0.00     0.087 N 
HETATM   25  H   UNL     1       1.032   5.789  26.068  0.00  0.00     0.316 HD
BRANCH  24  26
HETATM   26  C   UNL     1       0.187   4.305  27.193  0.00  0.00     0.212 C 
HETATM   27  C   UNL     1      -1.083   5.153  27.233  0.00  0.00     0.042 C 
HETATM   28  C   UNL     1      -0.161   2.849  26.875  0.00  0.00     0.042 C 
ENDBRANCH  24  26
ENDBRANCH  23  24
ENDBRANCH  22  23
ENDBRANCH  21  22
ENDBRANCH   1  21
BRANCH   5  29
HETATM   29  N   UNL     1       2.050  11.652  24.542  0.00  0.00    -0.382 N 
HETATM   30  H   UNL     1       1.566  12.304  25.148  0.00  0.00     0.157 HD
HETATM   31  H   UNL     1       3.050  11.754  24.435  0.00  0.00     0.157 HD
ENDBRANCH   5  29
TORSDOF 8
ENDMDL
