MODEL 1
REMARK VINA RESULT:    -8.292      0.000      0.000
REMARK INTER + INTRA:         -12.256
REMARK INTER:                 -11.181
REMARK INTRA:                  -1.075
REMARK UNBOUND:                -1.297
REMARK  6 active torsions:
REMARK  status: ('A' for Active; 'I' for Inactive)
REMARK    1  A    between atoms: N_6  and  C_7 
REMARK    2  A    between atoms: C_12  and  N_13 
REMARK       I    between atoms: N_13  and  C_15 
REMARK    3  A    between atoms: C_15  and  C_17 
REMARK    4  A    between atoms: C_18  and  O_20 
REMARK    5  A    between atoms: C_24  and  C_28 
REMARK       I    between atoms: C_28  and  N_30 
REMARK    6  A    between atoms: C_32  and  O_33 
ROOT
HETATM    1  C   UNL     1       5.148  12.376  21.317  0.00  0.00     0.066 C 
HETATM    2  C   UNL     1       4.119  12.641  22.246  0.00  0.00     0.083 C 
HETATM    3  C   UNL     1       4.271  13.564  23.292  0.00  0.00     0.069 C 
HETATM    4  C   UNL     1       6.338  13.123  21.423  0.00  0.00     0.036 C 
HETATM    5  C   UNL     1       6.573  13.941  22.557  0.00  0.00     0.029 C 
HETATM    6  C   UNL     1       5.517  14.169  23.429  0.00  0.00     0.065 C 
HETATM    7  C   UNL     1       7.701  14.590  23.162  0.00  0.00     0.157 C 
HETATM    8  N   UNL     1       7.306  15.324  24.228  0.00  0.00    -0.168 NA
HETATM    9  N   UNL     1       5.999  15.061  24.348  0.00  0.00    -0.277 N 
HETATM   10  H   UNL     1       5.490  15.496  25.109  0.00  0.00     0.189 HD
ENDROOT
BRANCH   1  11
HETATM   11  C   UNL     1       4.921  11.298  20.269  0.00  0.00     0.260 C 
HETATM   12  N   UNL     1       5.553  10.028  20.356  0.00  0.00    -0.318 N 
HETATM   13  C   UNL     1       6.408   9.699  21.500  0.00  0.00     0.159 C 
HETATM   14  O   UNL     1       4.096  11.617  19.405  0.00  0.00    -0.267 OA
BRANCH  12  15
HETATM   15  C   UNL     1       5.301   8.933  19.417  0.00  0.00     0.037 A 
HETATM   16  C   UNL     1       4.468   7.861  19.775  0.00  0.00     0.032 A 
HETATM   17  C   UNL     1       4.048   6.882  18.857  0.00  0.00     0.031 A 
HETATM   18  C   UNL     1       4.466   6.874  17.525  0.00  0.00     0.030 A 
HETATM   19  C   UNL     1       5.390   7.872  17.194  0.00  0.00     0.031 A 
HETATM   20  C   UNL     1       5.797   8.878  18.111  0.00  0.00     0.032 A 
BRANCH  18  21
HETATM   21  N   UNL     1       4.001   5.929  16.635  0.00  0.00    -0.377 N 
HETATM   22  C   UNL     1       3.532   6.233  15.273  0.00  0.00     0.149 C 
HETATM   23  C   UNL     1       2.052   5.845  15.119  0.00  0.00     0.187 C 
HETATM   24  O   UNL     1       1.827   4.467  15.462  0.00  0.00    -0.388 OA
HETATM   25  C   UNL     1       2.223   4.222  16.822  0.00  0.00     0.187 C 
HETATM   26  C   UNL     1       3.713   4.539  17.047  0.00  0.00     0.149 C 
ENDBRANCH  18  21
ENDBRANCH  12  15
ENDBRANCH   1  11
BRANCH   2  27
HETATM   27  O   UNL     1       2.898  12.015  22.212  0.00  0.00    -0.360 OA
HETATM   28  H   UNL     1       2.365  12.363  22.961  0.00  0.00     0.217 HD
ENDBRANCH   2  27
BRANCH   7  29
HETATM   29  C   UNL     1       9.120  14.474  22.741  0.00  0.00     0.275 C 
HETATM   30  O   UNL     1       9.428  14.694  21.568  0.00  0.00    -0.266 OA
HETATM   31  N   UNL     1      10.096  14.052  23.682  0.00  0.00    -0.344 N 
HETATM   32  C   UNL     1      11.473  13.937  23.189  0.00  0.00     0.158 C 
HETATM   33  C   UNL     1       9.767  13.156  24.793  0.00  0.00     0.126 C 
HETATM   34  C   UNL     1      12.559  13.936  24.291  0.00  0.00     0.139 C 
HETATM   35  C   UNL     1      12.189  12.992  25.439  0.00  0.00     0.035 C 
HETATM   36  C   UNL     1      10.771  13.254  25.936  0.00  0.00     0.022 C 
BRANCH  34  37
HETATM   37  O   UNL     1      12.777  15.233  24.864  0.00  0.00    -0.389 OA
HETATM   38  C   UNL     1      14.056  15.384  25.467  0.00  0.00     0.202 C 
ENDBRANCH  34  37
ENDBRANCH   7  29
TORSDOF 6
ENDMDL
MODEL 2
REMARK VINA RESULT:    -8.069      4.724      6.458
REMARK INTER + INTRA:         -11.961
REMARK INTER:                 -10.836
REMARK INTRA:                  -1.125
REMARK UNBOUND:                -1.297
REMARK  6 active torsions:
REMARK  status: ('A' for Active; 'I' for Inactive)
REMARK    1  A    between atoms: N_6  and  C_7 
REMARK    2  A    between atoms: C_12  and  N_13 
REMARK       I    between atoms: N_13  and  C_15 
REMARK    3  A    between atoms: C_15  and  C_17 
REMARK    4  A    between atoms: C_18  and  O_20 
REMARK    5  A    between atoms: C_24  and  C_28 
REMARK       I    between atoms: C_28  and  N_30 
REMARK    6  A    between atoms: C_32  and  O_33 
ROOT
HETATM    1  C   UNL     1       5.967  12.842  23.763  0.00  0.00     0.066 C 
HETATM    2  C   UNL     1       5.414  14.006  23.188  0.00  0.00     0.083 C 
HETATM    3  C   UNL     1       6.202  14.977  22.550  0.00  0.00     0.069 C 
HETATM    4  C   UNL     1       7.354  12.636  23.625  0.00  0.00     0.036 C 
HETATM    5  C   UNL     1       8.187  13.669  23.127  0.00  0.00     0.029 C 
HETATM    6  C   UNL     1       7.580  14.785  22.566  0.00  0.00     0.065 C 
HETATM    7  C   UNL     1       9.592  13.961  23.107  0.00  0.00     0.157 C 
HETATM    8  N   UNL     1       9.828  15.092  22.404  0.00  0.00    -0.168 NA
HETATM    9  N   UNL     1       8.610  15.547  22.085  0.00  0.00    -0.277 N 
HETATM   10  H   UNL     1       8.542  16.414  21.564  0.00  0.00     0.189 HD
ENDROOT
BRANCH   1  11
HETATM   11  C   UNL     1       5.044  11.889  24.506  0.00  0.00     0.260 C 
HETATM   12  N   UNL     1       4.366  10.835  23.837  0.00  0.00    -0.318 N 
HETATM   13  C   UNL     1       4.582  10.600  22.406  0.00  0.00     0.159 C 
HETATM   14  O   UNL     1       5.011  12.087  25.726  0.00  0.00    -0.267 OA
BRANCH  12  15
HETATM   15  C   UNL     1       3.533   9.844  24.523  0.00  0.00     0.037 A 
HETATM   16  C   UNL     1       4.109   8.904  25.392  0.00  0.00     0.032 A 
HETATM   17  C   UNL     1       3.344   8.055  26.212  0.00  0.00     0.031 A 
HETATM   18  C   UNL     1       1.948   8.048  26.190  0.00  0.00     0.030 A 
HETATM   19  C   UNL     1       1.372   8.899  25.240  0.00  0.00     0.031 A 
HETATM   20  C   UNL     1       2.139   9.778  24.428  0.00  0.00     0.032 A 
BRANCH  18  21
HETATM   21  N   UNL     1       1.224   7.238  27.039  0.00  0.00    -0.377 N 
HETATM   22  C   UNL     1      -0.233   7.045  26.958  0.00  0.00     0.149 C 
HETATM   23  C   UNL     1      -0.908   7.531  28.251  0.00  0.00     0.187 C 
HETATM   24  O   UNL     1      -0.352   6.891  29.412  0.00  0.00    -0.388 OA
HETATM   25  C   UNL     1       1.056   7.164  29.503  0.00  0.00     0.187 C 
HETATM   26  C   UNL     1       1.816   6.658  28.263  0.00  0.00     0.149 C 
ENDBRANCH  18  21
ENDBRANCH  12  15
ENDBRANCH   1  11
BRANCH   2  27
HETATM   27  O   UNL     1       4.071  14.290  23.214  0.00  0.00    -0.360 OA
HETATM   28  H   UNL     1       3.966  15.246  23.011  0.00  0.00     0.217 HD
ENDBRANCH   2  27
BRANCH   7  29
HETATM   29  C   UNL     1      10.667  13.186  23.777  0.00  0.00     0.275 C 
HETATM   30  O   UNL     1      11.129  12.184  23.229  0.00  0.00    -0.266 OA
HETATM   31  N   UNL     1      11.106  13.575  25.071  0.00  0.00    -0.344 N 
HETATM   32  C   UNL     1      12.153  12.749  25.681  0.00  0.00     0.158 C 
HETATM   33  C   UNL     1      10.217  14.241  26.025  0.00  0.00     0.126 C 
HETATM   34  C   UNL     1      12.926  13.430  26.836  0.00  0.00     0.139 C 
HETATM   35  C   UNL     1      11.973  14.117  27.817  0.00  0.00     0.035 C 
HETATM   36  C   UNL     1      10.984  15.020  27.088  0.00  0.00     0.022 C 
BRANCH  34  37
HETATM   37  O   UNL     1      13.853  14.426  26.378  0.00  0.00    -0.389 OA
HETATM   38  C   UNL     1      14.894  13.905  25.562  0.00  0.00     0.202 C 
ENDBRANCH  34  37
ENDBRANCH   7  29
TORSDOF 6
ENDMDL
MODEL 3
REMARK VINA RESULT:    -8.052      2.009      2.578
REMARK INTER + INTRA:         -11.939
REMARK INTER:                 -11.020
REMARK INTRA:                  -0.919
REMARK UNBOUND:                -1.297
REMARK  6 active torsions:
REMARK  status: ('A' for Active; 'I' for Inactive)
REMARK    1  A    between atoms: N_6  and  C_7 
REMARK    2  A    between atoms: C_12  and  N_13 
REMARK       I    between atoms: N_13  and  C_15 
REMARK    3  A    between atoms: C_15  and  C_17 
REMARK    4  A    between atoms: C_18  and  O_20 
REMARK    5  A    between atoms: C_24  and  C_28 
REMARK       I    between atoms: C_28  and  N_30 
REMARK    6  A    between atoms: C_32  and  O_33 
ROOT
HETATM    1  C   UNL     1       7.206  12.141  23.578  0.00  0.00     0.066 C 
HETATM    2  C   UNL     1       6.237  12.337  24.585  0.00  0.00     0.083 C 
HETATM    3  C   UNL     1       6.391  13.293  25.600  0.00  0.00     0.069 C 
HETATM    4  C   UNL     1       8.331  12.989  23.574  0.00  0.00     0.036 C 
HETATM    5  C   UNL     1       8.584  13.850  24.672  0.00  0.00     0.029 C 
HETATM    6  C   UNL     1       7.586  14.006  25.624  0.00  0.00     0.065 C 
HETATM    7  C   UNL     1       9.696  14.608  25.172  0.00  0.00     0.157 C 
HETATM    8  N   UNL     1       9.325  15.329  26.255  0.00  0.00    -0.168 NA
HETATM    9  N   UNL     1       8.061  14.957  26.486  0.00  0.00    -0.277 N 
HETATM   10  H   UNL     1       7.578  15.364  27.279  0.00  0.00     0.189 HD
ENDROOT
BRANCH   1  11
HETATM   11  C   UNL     1       6.991  11.023  22.569  0.00  0.00     0.260 C 
HETATM   12  N   UNL     1       6.038  11.140  21.520  0.00  0.00    -0.318 N 
HETATM   13  C   UNL     1       5.267  12.374  21.347  0.00  0.00     0.159 C 
HETATM   14  O   UNL     1       7.763  10.070  22.718  0.00  0.00    -0.267 OA
BRANCH  12  15
HETATM   15  C   UNL     1       5.854  10.126  20.479  0.00  0.00     0.037 A 
HETATM   16  C   UNL     1       5.276   8.884  20.784  0.00  0.00     0.032 A 
HETATM   17  C   UNL     1       4.910   7.950  19.798  0.00  0.00     0.031 A 
HETATM   18  C   UNL     1       5.138   8.167  18.438  0.00  0.00     0.030 A 
HETATM   19  C   UNL     1       5.822   9.351  18.139  0.00  0.00     0.031 A 
HETATM   20  C   UNL     1       6.170  10.309  19.129  0.00  0.00     0.032 A 
BRANCH  18  21
HETATM   21  N   UNL     1       4.726   7.255  17.490  0.00  0.00    -0.377 N 
HETATM   22  C   UNL     1       4.207   7.618  16.161  0.00  0.00     0.149 C 
HETATM   23  C   UNL     1       2.757   7.129  16.003  0.00  0.00     0.187 C 
HETATM   24  O   UNL     1       2.645   5.716  16.249  0.00  0.00    -0.388 OA
HETATM   25  C   UNL     1       3.088   5.407  17.581  0.00  0.00     0.187 C 
HETATM   26  C   UNL     1       4.554   5.821  17.804  0.00  0.00     0.149 C 
ENDBRANCH  18  21
ENDBRANCH  12  15
ENDBRANCH   1  11
BRANCH   2  27
HETATM   27  O   UNL     1       5.077  11.607  24.661  0.00  0.00    -0.360 OA
HETATM   28  H   UNL     1       4.325  12.232  24.560  0.00  0.00     0.217 HD
ENDBRANCH   2  27
BRANCH   7  29
HETATM   29  C   UNL     1      11.080  14.606  24.636  0.00  0.00     0.275 C 
HETATM   30  O   UNL     1      11.306  15.089  23.525  0.00  0.00    -0.266 OA
HETATM   31  N   UNL     1      12.119  13.991  25.386  0.00  0.00    -0.344 N 
HETATM   32  C   UNL     1      13.456  14.005  24.784  0.00  0.00     0.158 C 
HETATM   33  C   UNL     1      11.864  12.863  26.285  0.00  0.00     0.126 C 
HETATM   34  C   UNL     1      14.617  13.766  25.779  0.00  0.00     0.139 C 
HETATM   35  C   UNL     1      14.324  12.582  26.705  0.00  0.00     0.035 C 
HETATM   36  C   UNL     1      12.947  12.710  27.347  0.00  0.00     0.022 C 
BRANCH  34  37
HETATM   37  O   UNL     1      14.883  14.902  26.614  0.00  0.00    -0.389 OA
HETATM   38  C   UNL     1      15.183  16.087  25.888  0.00  0.00     0.202 C 
ENDBRANCH  34  37
ENDBRANCH   7  29
TORSDOF 6
ENDMDL
MODEL 4
REMARK VINA RESULT:    -8.051      2.452      5.482
REMARK INTER + INTRA:         -11.937
REMARK INTER:                 -11.126
REMARK INTRA:                  -0.811
REMARK UNBOUND:                -1.297
REMARK  6 active torsions:
REMARK  status: ('A' for Active; 'I' for Inactive)
REMARK    1  A    between atoms: N_6  and  C_7 
REMARK    2  A    between atoms: C_12  and  N_13 
REMARK       I    between atoms: N_13  and  C_15 
REMARK    3  A    between atoms: C_15  and  C_17 
REMARK    4  A    between atoms: C_18  and  O_20 
REMARK    5  A    between atoms: C_24  and  C_28 
REMARK       I    between atoms: C_28  and  N_30 
REMARK    6  A    between atoms: C_32  and  O_33 
ROOT
HETATM    1  C   UNL     1       6.939  12.003  21.041  0.00  0.00     0.066 C 
HETATM    2  C   UNL     1       8.308  12.228  21.302  0.00  0.00     0.083 C 
HETATM    3  C   UNL     1       8.747  13.143  22.271  0.00  0.00     0.069 C 
HETATM    4  C   UNL     1       5.997  12.686  21.836  0.00  0.00     0.036 C 
HETATM    5  C   UNL     1       6.413  13.724  22.707  0.00  0.00     0.029 C 
HETATM    6  C   UNL     1       7.773  13.888  22.928  0.00  0.00     0.065 C 
HETATM    7  C   UNL     1       5.788  14.801  23.422  0.00  0.00     0.157 C 
HETATM    8  N   UNL     1       6.699  15.453  24.181  0.00  0.00    -0.168 NA
HETATM    9  N   UNL     1       7.865  14.874  23.874  0.00  0.00    -0.277 N 
HETATM   10  H   UNL     1       8.707  15.223  24.318  0.00  0.00     0.189 HD
ENDROOT
BRANCH   1  11
HETATM   11  C   UNL     1       6.561  11.054  19.915  0.00  0.00     0.260 C 
HETATM   12  N   UNL     1       5.785   9.886  20.153  0.00  0.00    -0.318 N 
HETATM   13  C   UNL     1       5.278   9.590  21.496  0.00  0.00     0.159 C 
HETATM   14  O   UNL     1       6.929  11.441  18.801  0.00  0.00    -0.267 OA
BRANCH  12  15
HETATM   15  C   UNL     1       5.328   8.989  19.090  0.00  0.00     0.037 A 
HETATM   16  C   UNL     1       5.757   7.653  19.049  0.00  0.00     0.032 A 
HETATM   17  C   UNL     1       5.212   6.703  18.165  0.00  0.00     0.031 A 
HETATM   18  C   UNL     1       4.233   7.030  17.224  0.00  0.00     0.030 A 
HETATM   19  C   UNL     1       3.888   8.386  17.182  0.00  0.00     0.031 A 
HETATM   20  C   UNL     1       4.417   9.343  18.090  0.00  0.00     0.032 A 
BRANCH  18  21
HETATM   21  N   UNL     1       3.683   6.069  16.403  0.00  0.00    -0.377 N 
HETATM   22  C   UNL     1       3.128   6.340  15.067  0.00  0.00     0.149 C 
HETATM   23  C   UNL     1       1.631   5.987  15.029  0.00  0.00     0.187 C 
HETATM   24  O   UNL     1       1.397   4.628  15.435  0.00  0.00    -0.388 OA
HETATM   25  C   UNL     1       1.881   4.418  16.772  0.00  0.00     0.187 C 
HETATM   26  C   UNL     1       3.391   4.702  16.882  0.00  0.00     0.149 C 
ENDBRANCH  18  21
ENDBRANCH  12  15
ENDBRANCH   1  11
BRANCH   2  27
HETATM   27  O   UNL     1       9.316  11.583  20.629  0.00  0.00    -0.360 OA
HETATM   28  H   UNL     1       9.714  10.929  21.245  0.00  0.00     0.217 HD
ENDBRANCH   2  27
BRANCH   7  29
HETATM   29  C   UNL     1       4.362  15.205  23.345  0.00  0.00     0.275 C 
HETATM   30  O   UNL     1       4.067  16.401  23.311  0.00  0.00    -0.266 OA
HETATM   31  N   UNL     1       3.350  14.208  23.373  0.00  0.00    -0.344 N 
HETATM   32  C   UNL     1       1.963  14.682  23.317  0.00  0.00     0.158 C 
HETATM   33  C   UNL     1       3.535  12.934  24.073  0.00  0.00     0.126 C 
HETATM   34  C   UNL     1       0.930  13.613  22.887  0.00  0.00     0.139 C 
HETATM   35  C   UNL     1       1.146  12.294  23.634  0.00  0.00     0.035 C 
HETATM   36  C   UNL     1       2.602  11.846  23.555  0.00  0.00     0.022 C 
BRANCH  34  37
HETATM   37  O   UNL     1       0.980  13.319  21.483  0.00  0.00    -0.389 OA
HETATM   38  C   UNL     1      -0.301  13.158  20.888  0.00  0.00     0.202 C 
ENDBRANCH  34  37
ENDBRANCH   7  29
TORSDOF 6
ENDMDL
MODEL 5
REMARK VINA RESULT:    -8.009      4.951      6.816
REMARK INTER + INTRA:         -11.881
REMARK INTER:                 -10.748
REMARK INTRA:                  -1.133
REMARK UNBOUND:                -1.297
REMARK  6 active torsions:
REMARK  status: ('A' for Active; 'I' for Inactive)
REMARK    1  A    between atoms: N_6  and  C_7 
REMARK    2  A    between atoms: C_12  and  N_13 
REMARK       I    between atoms: N_13  and  C_15 
REMARK    3  A    between atoms: C_15  and  C_17 
REMARK    4  A    between atoms: C_18  and  O_20 
REMARK    5  A    between atoms: C_24  and  C_28 
REMARK       I    between atoms: C_28  and  N_30 
REMARK    6  A    between atoms: C_32  and  O_33 
ROOT
HETATM    1  C   UNL     1       6.091  10.923  22.532  0.00  0.00     0.066 C 
HETATM    2  C   UNL     1       5.665  11.317  21.246  0.00  0.00     0.083 C 
HETATM    3  C   UNL     1       6.557  11.787  20.270  0.00  0.00     0.069 C 
HETATM    4  C   UNL     1       7.473  10.950  22.804  0.00  0.00     0.036 C 
HETATM    5  C   UNL     1       8.370  11.565  21.895  0.00  0.00     0.029 C 
HETATM    6  C   UNL     1       7.891  11.921  20.642  0.00  0.00     0.065 C 
HETATM    7  C   UNL     1       9.724  12.042  21.924  0.00  0.00     0.157 C 
HETATM    8  N   UNL     1      10.094  12.483  20.700  0.00  0.00    -0.168 NA
HETATM    9  N   UNL     1       8.984  12.383  19.960  0.00  0.00    -0.277 N 
HETATM   10  H   UNL     1       9.023  12.684  18.993  0.00  0.00     0.189 HD
ENDROOT
BRANCH   1  11
HETATM   11  C   UNL     1       5.040  10.507  23.550  0.00  0.00     0.260 C 
HETATM   12  N   UNL     1       4.556   9.172  23.619  0.00  0.00    -0.318 N 
HETATM   13  C   UNL     1       5.102   8.135  22.738  0.00  0.00     0.159 C 
HETATM   14  O   UNL     1       4.723  11.413  24.328  0.00  0.00    -0.267 OA
BRANCH  12  15
HETATM   15  C   UNL     1       3.608   8.707  24.633  0.00  0.00     0.037 A 
HETATM   16  C   UNL     1       4.065   8.112  25.820  0.00  0.00     0.032 A 
HETATM   17  C   UNL     1       3.214   7.815  26.901  0.00  0.00     0.031 A 
HETATM   18  C   UNL     1       1.838   8.046  26.857  0.00  0.00     0.030 A 
HETATM   19  C   UNL     1       1.362   8.529  25.633  0.00  0.00     0.031 A 
HETATM   20  C   UNL     1       2.220   8.855  24.549  0.00  0.00     0.032 A 
BRANCH  18  21
HETATM   21  N   UNL     1       1.036   7.790  27.949  0.00  0.00    -0.377 N 
HETATM   22  C   UNL     1       1.535   7.326  29.254  0.00  0.00     0.149 C 
HETATM   23  C   UNL     1       0.948   5.945  29.591  0.00  0.00     0.187 C 
HETATM   24  O   UNL     1      -0.490   5.956  29.546  0.00  0.00    -0.388 OA
HETATM   25  C   UNL     1      -0.943   6.338  28.237  0.00  0.00     0.187 C 
HETATM   26  C   UNL     1      -0.437   7.739  27.844  0.00  0.00     0.149 C 
ENDBRANCH  18  21
ENDBRANCH  12  15
ENDBRANCH   1  11
BRANCH   2  27
HETATM   27  O   UNL     1       4.351  11.285  20.848  0.00  0.00    -0.360 OA
HETATM   28  H   UNL     1       4.201  10.430  20.387  0.00  0.00     0.217 HD
ENDBRANCH   2  27
BRANCH   7  29
HETATM   29  C   UNL     1      10.617  12.099  23.109  0.00  0.00     0.275 C 
HETATM   30  O   UNL     1      11.051  11.054  23.598  0.00  0.00    -0.266 OA
HETATM   31  N   UNL     1      10.910  13.356  23.703  0.00  0.00    -0.344 N 
HETATM   32  C   UNL     1      11.779  13.334  24.884  0.00  0.00     0.158 C 
HETATM   33  C   UNL     1       9.967  14.475  23.658  0.00  0.00     0.126 C 
HETATM   34  C   UNL     1      12.449  14.687  25.223  0.00  0.00     0.139 C 
HETATM   35  C   UNL     1      11.440  15.838  25.168  0.00  0.00     0.035 C 
HETATM   36  C   UNL     1      10.652  15.821  23.863  0.00  0.00     0.022 C 
BRANCH  34  37
HETATM   37  O   UNL     1      13.521  15.021  24.330  0.00  0.00    -0.389 OA
HETATM   38  C   UNL     1      14.697  15.469  24.991  0.00  0.00     0.202 C 
ENDBRANCH  34  37
ENDBRANCH   7  29
TORSDOF 6
ENDMDL
MODEL 6
REMARK VINA RESULT:    -7.969      1.269      1.455
REMARK INTER + INTRA:         -11.829
REMARK INTER:                 -10.674
REMARK INTRA:                  -1.154
REMARK UNBOUND:                -1.297
REMARK  6 active torsions:
REMARK  status: ('A' for Active; 'I' for Inactive)
REMARK    1  A    between atoms: N_6  and  C_7 
REMARK    2  A    between atoms: C_12  and  N_13 
REMARK       I    between atoms: N_13  and  C_15 
REMARK    3  A    between atoms: C_15  and  C_17 
REMARK    4  A    between atoms: C_18  and  O_20 
REMARK    5  A    between atoms: C_24  and  C_28 
REMARK       I    between atoms: C_28  and  N_30 
REMARK    6  A    between atoms: C_32  and  O_33 
ROOT
HETATM    1  C   UNL     1       5.239  12.063  21.302  0.00  0.00     0.066 C 
HETATM    2  C   UNL     1       4.167  12.608  22.040  0.00  0.00     0.083 C 
HETATM    3  C   UNL     1       4.280  13.812  22.752  0.00  0.00     0.069 C 
HETATM    4  C   UNL     1       6.436  12.803  21.238  0.00  0.00     0.036 C 
HETATM    5  C   UNL     1       6.625  13.934  22.070  0.00  0.00     0.029 C 
HETATM    6  C   UNL     1       5.528  14.427  22.764  0.00  0.00     0.065 C 
HETATM    7  C   UNL     1       7.732  14.738  22.506  0.00  0.00     0.157 C 
HETATM    8  N   UNL     1       7.294  15.770  23.264  0.00  0.00    -0.168 NA
HETATM    9  N   UNL     1       5.978  15.561  23.385  0.00  0.00    -0.277 N 
HETATM   10  H   UNL     1       5.437  16.213  23.941  0.00  0.00     0.189 HD
ENDROOT
BRANCH   1  11
HETATM   11  C   UNL     1       5.047  10.711  20.631  0.00  0.00     0.260 C 
HETATM   12  N   UNL     1       5.643   9.530  21.151  0.00  0.00    -0.318 N 
HETATM   13  C   UNL     1       6.423   9.573  22.392  0.00  0.00     0.159 C 
HETATM   14  O   UNL     1       4.282  10.747  19.662  0.00  0.00    -0.267 OA
BRANCH  12  15
HETATM   15  C   UNL     1       5.420   8.197  20.589  0.00  0.00     0.037 A 
HETATM   16  C   UNL     1       4.770   7.203  21.339  0.00  0.00     0.032 A 
HETATM   17  C   UNL     1       4.369   5.972  20.788  0.00  0.00     0.031 A 
HETATM   18  C   UNL     1       4.631   5.623  19.462  0.00  0.00     0.030 A 
HETATM   19  C   UNL     1       5.383   6.561  18.745  0.00  0.00     0.031 A 
HETATM   20  C   UNL     1       5.767   7.816  19.289  0.00  0.00     0.032 A 
BRANCH  18  21
HETATM   21  N   UNL     1       4.184   4.429  18.937  0.00  0.00    -0.377 N 
HETATM   22  C   UNL     1       4.830   3.723  17.818  0.00  0.00     0.149 C 
HETATM   23  C   UNL     1       3.862   3.609  16.629  0.00  0.00     0.187 C 
HETATM   24  O   UNL     1       2.626   2.980  17.010  0.00  0.00    -0.388 OA
HETATM   25  C   UNL     1       1.984   3.737  18.050  0.00  0.00     0.187 C 
HETATM   26  C   UNL     1       2.873   3.853  19.302  0.00  0.00     0.149 C 
ENDBRANCH  18  21
ENDBRANCH  12  15
ENDBRANCH   1  11
BRANCH   2  27
HETATM   27  O   UNL     1       2.937  12.005  22.133  0.00  0.00    -0.360 OA
HETATM   28  H   UNL     1       2.325  12.484  21.532  0.00  0.00     0.217 HD
ENDBRANCH   2  27
BRANCH   7  29
HETATM   29  C   UNL     1       9.169  14.494  22.224  0.00  0.00     0.275 C 
HETATM   30  O   UNL     1       9.587  14.575  21.068  0.00  0.00    -0.266 OA
HETATM   31  N   UNL     1      10.033  14.108  23.284  0.00  0.00    -0.344 N 
HETATM   32  C   UNL     1      11.434  13.860  22.928  0.00  0.00     0.158 C 
HETATM   33  C   UNL     1       9.552  13.351  24.442  0.00  0.00     0.126 C 
HETATM   34  C   UNL     1      12.423  13.902  24.117  0.00  0.00     0.139 C 
HETATM   35  C   UNL     1      11.895  13.103  25.311  0.00  0.00     0.035 C 
HETATM   36  C   UNL     1      10.464  13.501  25.654  0.00  0.00     0.022 C 
BRANCH  34  37
HETATM   37  O   UNL     1      12.684  15.235  24.581  0.00  0.00    -0.389 OA
HETATM   38  C   UNL     1      13.811  15.329  25.443  0.00  0.00     0.202 C 
ENDBRANCH  34  37
ENDBRANCH   7  29
TORSDOF 6
ENDMDL
MODEL 7
REMARK VINA RESULT:    -7.812      2.739     10.043
REMARK INTER + INTRA:         -11.622
REMARK INTER:                 -10.295
REMARK INTRA:                  -1.326
REMARK UNBOUND:                -1.297
REMARK  6 active torsions:
REMARK  status: ('A' for Active; 'I' for Inactive)
REMARK    1  A    between atoms: N_6  and  C_7 
REMARK    2  A    between atoms: C_12  and  N_13 
REMARK       I    between atoms: N_13  and  C_15 
REMARK    3  A    between atoms: C_15  and  C_17 
REMARK    4  A    between atoms: C_18  and  O_20 
REMARK    5  A    between atoms: C_24  and  C_28 
REMARK       I    between atoms: C_28  and  N_30 
REMARK    6  A    between atoms: C_32  and  O_33 
ROOT
HETATM    1  C   UNL     1       5.223   9.926  18.781  0.00  0.00     0.066 C 
HETATM    2  C   UNL     1       4.388  10.362  17.730  0.00  0.00     0.083 C 
HETATM    3  C   UNL     1       3.606   9.475  16.974  0.00  0.00     0.069 C 
HETATM    4  C   UNL     1       5.208   8.555  19.107  0.00  0.00     0.036 C 
HETATM    5  C   UNL     1       4.552   7.624  18.263  0.00  0.00     0.029 C 
HETATM    6  C   UNL     1       3.737   8.118  17.253  0.00  0.00     0.065 C 
HETATM    7  C   UNL     1       4.548   6.200  18.080  0.00  0.00     0.157 C 
HETATM    8  N   UNL     1       3.638   5.849  17.143  0.00  0.00    -0.168 NA
HETATM    9  N   UNL     1       3.165   7.013  16.683  0.00  0.00    -0.277 N 
HETATM   10  H   UNL     1       2.471   6.992  15.945  0.00  0.00     0.189 HD
ENDROOT
BRANCH   1  11
HETATM   11  C   UNL     1       6.097  10.950  19.488  0.00  0.00     0.260 C 
HETATM   12  N   UNL     1       5.839  11.353  20.826  0.00  0.00    -0.318 N 
HETATM   13  C   UNL     1       4.744  10.746  21.589  0.00  0.00     0.159 C 
HETATM   14  O   UNL     1       7.064  11.321  18.814  0.00  0.00    -0.267 OA
BRANCH  12  15
HETATM   15  C   UNL     1       6.699  12.273  21.574  0.00  0.00     0.037 A 
HETATM   16  C   UNL     1       7.943  11.847  22.067  0.00  0.00     0.032 A 
HETATM   17  C   UNL     1       8.883  12.730  22.629  0.00  0.00     0.031 A 
HETATM   18  C   UNL     1       8.631  14.094  22.784  0.00  0.00     0.030 A 
HETATM   19  C   UNL     1       7.348  14.502  22.403  0.00  0.00     0.031 A 
HETATM   20  C   UNL     1       6.405  13.619  21.811  0.00  0.00     0.032 A 
BRANCH  18  21
HETATM   21  N   UNL     1       9.590  14.944  23.294  0.00  0.00    -0.377 N 
HETATM   22  C   UNL     1      10.598  15.642  22.479  0.00  0.00     0.149 C 
HETATM   23  C   UNL     1      12.014  15.203  22.891  0.00  0.00     0.187 C 
HETATM   24  O   UNL     1      12.241  15.398  24.297  0.00  0.00    -0.388 OA
HETATM   25  C   UNL     1      11.288  14.642  25.064  0.00  0.00     0.187 C 
HETATM   26  C   UNL     1       9.840  15.061  24.746  0.00  0.00     0.149 C 
ENDBRANCH  18  21
ENDBRANCH  12  15
ENDBRANCH   1  11
BRANCH   2  27
HETATM   27  O   UNL     1       4.279  11.678  17.356  0.00  0.00    -0.360 OA
HETATM   28  H   UNL     1       3.333  11.931  17.430  0.00  0.00     0.217 HD
ENDBRANCH   2  27
BRANCH   7  29
HETATM   29  C   UNL     1       5.424   5.218  18.767  0.00  0.00     0.275 C 
HETATM   30  O   UNL     1       6.147   4.475  18.101  0.00  0.00    -0.266 OA
HETATM   31  N   UNL     1       5.371   5.104  20.182  0.00  0.00    -0.344 N 
HETATM   32  C   UNL     1       6.246   4.096  20.789  0.00  0.00     0.158 C 
HETATM   33  C   UNL     1       4.151   5.393  20.939  0.00  0.00     0.126 C 
HETATM   34  C   UNL     1       6.520   4.300  22.299  0.00  0.00     0.139 C 
HETATM   35  C   UNL     1       5.228   4.600  23.065  0.00  0.00     0.035 C 
HETATM   36  C   UNL     1       4.438   5.721  22.399  0.00  0.00     0.022 C 
BRANCH  34  37
HETATM   37  O   UNL     1       7.429   5.378  22.563  0.00  0.00    -0.389 OA
HETATM   38  C   UNL     1       8.568   5.386  21.712  0.00  0.00     0.202 C 
ENDBRANCH  34  37
ENDBRANCH   7  29
TORSDOF 6
ENDMDL
MODEL 8
REMARK VINA RESULT:    -7.721      5.506      9.935
REMARK INTER + INTRA:         -11.500
REMARK INTER:                 -10.203
REMARK INTRA:                  -1.297
REMARK UNBOUND:                -1.297
REMARK  6 active torsions:
REMARK  status: ('A' for Active; 'I' for Inactive)
REMARK    1  A    between atoms: N_6  and  C_7 
REMARK    2  A    between atoms: C_12  and  N_13 
REMARK       I    between atoms: N_13  and  C_15 
REMARK    3  A    between atoms: C_15  and  C_17 
REMARK    4  A    between atoms: C_18  and  O_20 
REMARK    5  A    between atoms: C_24  and  C_28 
REMARK       I    between atoms: C_28  and  N_30 
REMARK    6  A    between atoms: C_32  and  O_33 
ROOT
HETATM    1  C   UNL     1       5.177  10.664  22.884  0.00  0.00     0.066 C 
HETATM    2  C   UNL     1       6.555  10.926  23.040  0.00  0.00     0.083 C 
HETATM    3  C   UNL     1       7.400  11.180  21.948  0.00  0.00     0.069 C 
HETATM    4  C   UNL     1       4.639  10.726  21.583  0.00  0.00     0.036 C 
HETATM    5  C   UNL     1       5.495  10.824  20.457  0.00  0.00     0.029 C 
HETATM    6  C   UNL     1       6.839  11.092  20.678  0.00  0.00     0.065 C 
HETATM    7  C   UNL     1       5.383  10.628  19.039  0.00  0.00     0.157 C 
HETATM    8  N   UNL     1       6.546  10.949  18.427  0.00  0.00    -0.168 NA
HETATM    9  N   UNL     1       7.384  11.234  19.431  0.00  0.00    -0.277 N 
HETATM   10  H   UNL     1       8.339  11.486  19.202  0.00  0.00     0.189 HD
ENDROOT
BRANCH   1  11
HETATM   11  C   UNL     1       4.359  10.318  24.118  0.00  0.00     0.260 C 
HETATM   12  N   UNL     1       4.007   8.976  24.427  0.00  0.00    -0.318 N 
HETATM   13  C   UNL     1       4.473   7.870  23.585  0.00  0.00     0.159 C 
HETATM   14  O   UNL     1       4.109  11.294  24.833  0.00  0.00    -0.267 OA
BRANCH  12  15
HETATM   15  C   UNL     1       3.292   8.587  25.644  0.00  0.00     0.037 A 
HETATM   16  C   UNL     1       1.904   8.373  25.622  0.00  0.00     0.032 A 
HETATM   17  C   UNL     1       1.199   7.825  26.709  0.00  0.00     0.031 A 
HETATM   18  C   UNL     1       1.819   7.495  27.915  0.00  0.00     0.030 A 
HETATM   19  C   UNL     1       3.180   7.817  27.984  0.00  0.00     0.031 A 
HETATM   20  C   UNL     1       3.901   8.346  26.879  0.00  0.00     0.032 A 
BRANCH  18  21
HETATM   21  N   UNL     1       1.112   6.916  28.947  0.00  0.00    -0.377 N 
HETATM   22  C   UNL     1       0.966   7.508  30.287  0.00  0.00     0.149 C 
HETATM   23  C   UNL     1       1.585   6.584  31.349  0.00  0.00     0.187 C 
HETATM   24  O   UNL     1       1.026   5.260  31.291  0.00  0.00    -0.388 OA
HETATM   25  C   UNL     1       1.254   4.682  29.994  0.00  0.00     0.187 C 
HETATM   26  C   UNL     1       0.617   5.525  28.874  0.00  0.00     0.149 C 
ENDBRANCH  18  21
ENDBRANCH  12  15
ENDBRANCH   1  11
BRANCH   2  27
HETATM   27  O   UNL     1       7.181  10.945  24.261  0.00  0.00    -0.360 OA
HETATM   28  H   UNL     1       7.145  11.867  24.600  0.00  0.00     0.217 HD
ENDBRANCH   2  27
BRANCH   7  29
HETATM   29  C   UNL     1       4.198  10.114  18.307  0.00  0.00     0.275 C 
HETATM   30  O   UNL     1       3.308  10.893  17.963  0.00  0.00    -0.266 OA
HETATM   31  N   UNL     1       4.077   8.719  18.067  0.00  0.00    -0.344 N 
HETATM   32  C   UNL     1       2.869   8.281  17.359  0.00  0.00     0.158 C 
HETATM   33  C   UNL     1       4.652   7.722  18.972  0.00  0.00     0.126 C 
HETATM   34  C   UNL     1       2.969   6.879  16.711  0.00  0.00     0.139 C 
HETATM   35  C   UNL     1       3.573   5.858  17.679  0.00  0.00     0.035 C 
HETATM   36  C   UNL     1       4.871   6.376  18.291  0.00  0.00     0.022 C 
BRANCH  34  37
HETATM   37  O   UNL     1       3.776   6.868  15.525  0.00  0.00    -0.389 OA
HETATM   38  C   UNL     1       3.479   5.793  14.642  0.00  0.00     0.202 C 
ENDBRANCH  34  37
ENDBRANCH   7  29
TORSDOF 6
ENDMDL
MODEL 9
REMARK VINA RESULT:    -7.556      4.581      6.608
REMARK INTER + INTRA:         -11.283
REMARK INTER:                 -10.585
REMARK INTRA:                  -0.698
REMARK UNBOUND:                -1.297
REMARK  6 active torsions:
REMARK  status: ('A' for Active; 'I' for Inactive)
REMARK    1  A    between atoms: N_6  and  C_7 
REMARK    2  A    between atoms: C_12  and  N_13 
REMARK       I    between atoms: N_13  and  C_15 
REMARK    3  A    between atoms: C_15  and  C_17 
REMARK    4  A    between atoms: C_18  and  O_20 
REMARK    5  A    between atoms: C_24  and  C_28 
REMARK       I    between atoms: C_28  and  N_30 
REMARK    6  A    between atoms: C_32  and  O_33 
ROOT
HETATM    1  C   UNL     1       7.030  11.009  22.501  0.00  0.00     0.066 C 
HETATM    2  C   UNL     1       6.929  11.147  21.101  0.00  0.00     0.083 C 
HETATM    3  C   UNL     1       7.731  12.041  20.374  0.00  0.00     0.069 C 
HETATM    4  C   UNL     1       8.022  11.758  23.166  0.00  0.00     0.036 C 
HETATM    5  C   UNL     1       8.732  12.775  22.481  0.00  0.00     0.029 C 
HETATM    6  C   UNL     1       8.596  12.853  21.101  0.00  0.00     0.065 C 
HETATM    7  C   UNL     1       9.556  13.896  22.836  0.00  0.00     0.157 C 
HETATM    8  N   UNL     1      10.042  14.494  21.724  0.00  0.00    -0.168 NA
HETATM    9  N   UNL     1       9.462  13.839  20.712  0.00  0.00    -0.277 N 
HETATM   10  H   UNL     1       9.669  14.137  19.766  0.00  0.00     0.189 HD
ENDROOT
BRANCH   1  11
HETATM   11  C   UNL     1       6.062  10.076  23.211  0.00  0.00     0.260 C 
HETATM   12  N   UNL     1       4.972  10.574  23.976  0.00  0.00    -0.318 N 
HETATM   13  C   UNL     1       4.717  12.016  24.058  0.00  0.00     0.159 C 
HETATM   14  O   UNL     1       6.281   8.880  22.993  0.00  0.00    -0.267 OA
BRANCH  12  15
HETATM   15  C   UNL     1       3.968   9.716  24.608  0.00  0.00     0.037 A 
HETATM   16  C   UNL     1       4.331   8.825  25.631  0.00  0.00     0.032 A 
HETATM   17  C   UNL     1       3.386   8.114  26.394  0.00  0.00     0.031 A 
HETATM   18  C   UNL     1       2.013   8.204  26.160  0.00  0.00     0.030 A 
HETATM   19  C   UNL     1       1.654   8.998  25.065  0.00  0.00     0.031 A 
HETATM   20  C   UNL     1       2.603   9.739  24.309  0.00  0.00     0.032 A 
BRANCH  18  21
HETATM   21  N   UNL     1       1.108   7.532  26.954  0.00  0.00    -0.377 N 
HETATM   22  C   UNL     1      -0.353   7.690  26.861  0.00  0.00     0.149 C 
HETATM   23  C   UNL     1      -0.916   8.236  28.184  0.00  0.00     0.187 C 
HETATM   24  O   UNL     1      -0.541   7.410  29.300  0.00  0.00    -0.388 OA
HETATM   25  C   UNL     1       0.891   7.340  29.408  0.00  0.00     0.187 C 
HETATM   26  C   UNL     1       1.530   6.752  28.136  0.00  0.00     0.149 C 
ENDBRANCH  18  21
ENDBRANCH  12  15
ENDBRANCH   1  11
BRANCH   2  27
HETATM   27  O   UNL     1       6.038  10.434  20.339  0.00  0.00    -0.360 OA
HETATM   28  H   UNL     1       5.409   9.992  20.952  0.00  0.00     0.217 HD
ENDBRANCH   2  27
BRANCH   7  29
HETATM   29  C   UNL     1       9.834  14.390  24.208  0.00  0.00     0.275 C 
HETATM   30  O   UNL     1       8.902  14.768  24.922  0.00  0.00    -0.266 OA
HETATM   31  N   UNL     1      11.178  14.479  24.661  0.00  0.00    -0.344 N 
HETATM   32  C   UNL     1      11.378  14.998  26.018  0.00  0.00     0.158 C 
HETATM   33  C   UNL     1      12.291  14.722  23.741  0.00  0.00     0.126 C 
HETATM   34  C   UNL     1      12.750  14.658  26.646  0.00  0.00     0.139 C 
HETATM   35  C   UNL     1      13.895  14.921  25.664  0.00  0.00     0.035 C 
HETATM   36  C   UNL     1      13.628  14.264  24.314  0.00  0.00     0.022 C 
BRANCH  34  37
HETATM   37  O   UNL     1      12.853  13.288  27.059  0.00  0.00    -0.389 OA
HETATM   38  C   UNL     1      14.032  13.001  27.799  0.00  0.00     0.202 C 
ENDBRANCH  34  37
ENDBRANCH   7  29
TORSDOF 6
ENDMDL
