MODEL 1
REMARK VINA RESULT:    -8.118      0.000      0.000
REMARK INTER + INTRA:          -9.255
REMARK INTER:                  -8.774
REMARK INTRA:                  -0.481
REMARK UNBOUND:                -0.424
REMARK  2 active torsions:
REMARK  status: ('A' for Active; 'I' for Inactive)
REMARK    1  A    between atoms: C_8  and  N_9 
REMARK    2  A    between atoms: C_11  and  C_12 
REMARK       I    between atoms: C_12  and  N_14 
ROOT
HETATM    1  C   UNL     1      -0.179   9.092  26.576  0.00  0.00     0.016 A 
HETATM    2  C   UNL     1       0.460   8.059  27.265  0.00  0.00     0.001 A 
HETATM    3  C   UNL     1      -0.079   7.605  28.458  0.00  0.00     0.002 A 
HETATM    4  C   UNL     1      -1.245   8.191  28.954  0.00  0.00     0.032 A 
HETATM    5  C   UNL     1      -1.897   9.221  28.285  0.00  0.00     0.072 A 
HETATM    6  C   UNL     1      -1.379   9.682  27.071  0.00  0.00     0.027 A 
HETATM    7  N   UNL     1      -2.993   9.731  28.855  0.00  0.00    -0.218 NA
HETATM    8  C   UNL     1      -3.628  10.713  28.224  0.00  0.00     0.200 A 
HETATM    9  N   UNL     1      -3.253  11.242  27.067  0.00  0.00    -0.212 NA
HETATM   10  C   UNL     1      -2.137  10.723  26.500  0.00  0.00     0.140 A 
ENDROOT
BRANCH  10  11
HETATM   11  C   UNL     1      -1.761  11.341  25.168  0.00  0.00     0.273 C 
HETATM   12  O   UNL     1      -2.257  10.901  24.131  0.00  0.00    -0.266 OA
HETATM   13  N   UNL     1      -0.845  12.390  25.130  0.00  0.00    -0.342 N 
HETATM   14  C   UNL     1      -0.454  13.035  23.876  0.00  0.00     0.139 C 
HETATM   15  C   UNL     1      -0.144  12.981  26.257  0.00  0.00     0.161 C 
HETATM   16  C   UNL     1       0.998  13.445  24.113  0.00  0.00     0.056 C 
HETATM   17  C   UNL     1       1.037  13.628  25.615  0.00  0.00    -0.056 C 
HETATM   18  C   UNL     1       1.568  14.645  23.400  0.00  0.00    -0.020 C 
HETATM   19  C   UNL     1       2.003  14.351  26.208  0.00  0.00    -0.018 C 
HETATM   20  C   UNL     1       3.034  15.079  25.385  0.00  0.00     0.054 C 
HETATM   21  C   UNL     1       2.546  15.368  23.984  0.00  0.00    -0.026 C 
ENDBRANCH  10  11
BRANCH   8  22
HETATM   22  N   UNL     1      -4.721  11.264  28.856  0.00  0.00    -0.271 NA
HETATM   23  H   UNL     1      -5.098  12.013  28.290  0.00  0.00     0.127 HD
HETATM   24  H   UNL     1      -5.361  10.543  29.156  0.00  0.00     0.127 HD
ENDBRANCH   8  22
TORSDOF 2
ENDMDL
MODEL 2
REMARK VINA RESULT:    -7.673      7.931     11.392
REMARK INTER + INTRA:          -8.770
REMARK INTER:                  -8.514
REMARK INTRA:                  -0.256
REMARK UNBOUND:                -0.424
REMARK  2 active torsions:
REMARK  status: ('A' for Active; 'I' for Inactive)
REMARK    1  A    between atoms: C_8  and  N_9 
REMARK    2  A    between atoms: C_11  and  C_12 
REMARK       I    between atoms: C_12  and  N_14 
ROOT
HETATM    1  C   UNL     1       9.472  11.636  22.691  0.00  0.00     0.016 A 
HETATM    2  C   UNL     1       9.738  10.473  21.965  0.00  0.00     0.001 A 
HETATM    3  C   UNL     1      10.315  10.575  20.709  0.00  0.00     0.002 A 
HETATM    4  C   UNL     1      10.611  11.836  20.188  0.00  0.00     0.032 A 
HETATM    5  C   UNL     1      10.354  13.006  20.893  0.00  0.00     0.072 A 
HETATM    6  C   UNL     1       9.788  12.924  22.168  0.00  0.00     0.027 A 
HETATM    7  N   UNL     1      10.652  14.164  20.296  0.00  0.00    -0.218 NA
HETATM    8  C   UNL     1      10.414  15.291  20.960  0.00  0.00     0.200 A 
HETATM    9  N   UNL     1       9.889  15.361  22.176  0.00  0.00    -0.212 NA
HETATM   10  C   UNL     1       9.583  14.182  22.770  0.00  0.00     0.140 A 
ENDROOT
BRANCH  10  11
HETATM   11  C   UNL     1       9.008  14.310  24.166  0.00  0.00     0.273 C 
HETATM   12  O   UNL     1       9.685  13.970  25.136  0.00  0.00    -0.266 OA
HETATM   13  N   UNL     1       7.714  14.797  24.337  0.00  0.00    -0.342 N 
HETATM   14  C   UNL     1       7.111  14.955  25.660  0.00  0.00     0.139 C 
HETATM   15  C   UNL     1       6.782  15.190  23.293  0.00  0.00     0.161 C 
HETATM   16  C   UNL     1       5.627  14.688  25.421  0.00  0.00     0.056 C 
HETATM   17  C   UNL     1       5.458  15.097  23.973  0.00  0.00    -0.056 C 
HETATM   18  C   UNL     1       4.592  15.344  26.299  0.00  0.00    -0.020 C 
HETATM   19  C   UNL     1       4.250  15.389  23.463  0.00  0.00    -0.018 C 
HETATM   20  C   UNL     1       3.026  15.403  24.344  0.00  0.00     0.054 C 
HETATM   21  C   UNL     1       3.372  15.629  25.798  0.00  0.00    -0.026 C 
ENDBRANCH  10  11
BRANCH   8  22
HETATM   22  N   UNL     1      10.674  16.475  20.306  0.00  0.00    -0.271 NA
HETATM   23  H   UNL     1      11.272  16.298  19.510  0.00  0.00     0.127 HD
HETATM   24  H   UNL     1       9.820  16.986  20.140  0.00  0.00     0.127 HD
ENDBRANCH   8  22
TORSDOF 2
ENDMDL
MODEL 3
REMARK VINA RESULT:    -7.651      7.261      8.479
REMARK INTER + INTRA:          -8.746
REMARK INTER:                  -8.399
REMARK INTRA:                  -0.348
REMARK UNBOUND:                -0.424
REMARK  2 active torsions:
REMARK  status: ('A' for Active; 'I' for Inactive)
REMARK    1  A    between atoms: C_8  and  N_9 
REMARK    2  A    between atoms: C_11  and  C_12 
REMARK       I    between atoms: C_12  and  N_14 
ROOT
HETATM    1  C   UNL     1       7.187   8.955  23.574  0.00  0.00     0.016 A 
HETATM    2  C   UNL     1       7.313   7.851  24.421  0.00  0.00     0.001 A 
HETATM    3  C   UNL     1       6.743   6.644  24.050  0.00  0.00     0.002 A 
HETATM    4  C   UNL     1       6.045   6.554  22.844  0.00  0.00     0.032 A 
HETATM    5  C   UNL     1       5.906   7.640  21.987  0.00  0.00     0.072 A 
HETATM    6  C   UNL     1       6.489   8.862  22.335  0.00  0.00     0.027 A 
HETATM    7  N   UNL     1       5.199   7.457  20.868  0.00  0.00    -0.218 NA
HETATM    8  C   UNL     1       5.062   8.487  20.038  0.00  0.00     0.200 A 
HETATM    9  N   UNL     1       5.566   9.697  20.237  0.00  0.00    -0.212 NA
HETATM   10  C   UNL     1       6.275   9.875  21.379  0.00  0.00     0.140 A 
ENDROOT
BRANCH  10  11
HETATM   11  C   UNL     1       6.851  11.266  21.552  0.00  0.00     0.273 C 
HETATM   12  O   UNL     1       8.049  11.459  21.343  0.00  0.00    -0.266 OA
HETATM   13  N   UNL     1       6.024  12.308  21.962  0.00  0.00    -0.342 N 
HETATM   14  C   UNL     1       6.520  13.673  22.134  0.00  0.00     0.139 C 
HETATM   15  C   UNL     1       4.610  12.226  22.292  0.00  0.00     0.161 C 
HETATM   16  C   UNL     1       5.673  14.230  23.276  0.00  0.00     0.056 C 
HETATM   17  C   UNL     1       4.394  13.430  23.145  0.00  0.00    -0.056 C 
HETATM   18  C   UNL     1       5.388  15.709  23.352  0.00  0.00    -0.020 C 
HETATM   19  C   UNL     1       3.243  13.853  23.695  0.00  0.00    -0.018 C 
HETATM   20  C   UNL     1       3.167  15.189  24.389  0.00  0.00     0.054 C 
HETATM   21  C   UNL     1       4.240  16.142  23.913  0.00  0.00    -0.026 C 
ENDBRANCH  10  11
BRANCH   8  22
HETATM   22  N   UNL     1       4.282   8.294  18.919  0.00  0.00    -0.271 NA
HETATM   23  H   UNL     1       3.306   8.384  19.167  0.00  0.00     0.127 HD
HETATM   24  H   UNL     1       4.618   8.853  18.149  0.00  0.00     0.127 HD
ENDBRANCH   8  22
TORSDOF 2
ENDMDL
MODEL 4
REMARK VINA RESULT:    -7.524      7.197     10.195
REMARK INTER + INTRA:          -8.608
REMARK INTER:                  -8.141
REMARK INTRA:                  -0.468
REMARK UNBOUND:                -0.424
REMARK  2 active torsions:
REMARK  status: ('A' for Active; 'I' for Inactive)
REMARK    1  A    between atoms: C_8  and  N_9 
REMARK    2  A    between atoms: C_11  and  C_12 
REMARK       I    between atoms: C_12  and  N_14 
ROOT
HETATM    1  C   UNL     1       7.935  11.976  20.463  0.00  0.00     0.016 A 
HETATM    2  C   UNL     1       8.686  12.441  19.381  0.00  0.00     0.001 A 
HETATM    3  C   UNL     1      10.066  12.323  19.414  0.00  0.00     0.002 A 
HETATM    4  C   UNL     1      10.683  11.751  20.528  0.00  0.00     0.032 A 
HETATM    5  C   UNL     1       9.955  11.283  21.616  0.00  0.00     0.072 A 
HETATM    6  C   UNL     1       8.561  11.377  21.596  0.00  0.00     0.027 A 
HETATM    7  N   UNL     1      10.640  10.775  22.645  0.00  0.00    -0.218 NA
HETATM    8  C   UNL     1       9.956  10.320  23.690  0.00  0.00     0.200 A 
HETATM    9  N   UNL     1       8.635  10.340  23.802  0.00  0.00    -0.212 NA
HETATM   10  C   UNL     1       7.949  10.865  22.758  0.00  0.00     0.140 A 
ENDROOT
BRANCH  10  11
HETATM   11  C   UNL     1       6.442  10.845  22.920  0.00  0.00     0.273 C 
HETATM   12  O   UNL     1       5.813   9.826  22.633  0.00  0.00    -0.266 OA
HETATM   13  N   UNL     1       5.783  11.983  23.376  0.00  0.00    -0.342 N 
HETATM   14  C   UNL     1       4.333  12.019  23.565  0.00  0.00     0.139 C 
HETATM   15  C   UNL     1       6.381  13.267  23.707  0.00  0.00     0.161 C 
HETATM   16  C   UNL     1       3.959  13.465  23.249  0.00  0.00     0.056 C 
HETATM   17  C   UNL     1       5.229  14.209  23.602  0.00  0.00    -0.056 C 
HETATM   18  C   UNL     1       2.756  14.093  23.907  0.00  0.00    -0.020 C 
HETATM   19  C   UNL     1       5.224  15.531  23.842  0.00  0.00    -0.018 C 
HETATM   20  C   UNL     1       3.931  16.306  23.854  0.00  0.00     0.054 C 
HETATM   21  C   UNL     1       2.739  15.422  24.141  0.00  0.00    -0.026 C 
ENDBRANCH  10  11
BRANCH   8  22
HETATM   22  N   UNL     1      10.683   9.854  24.763  0.00  0.00    -0.271 NA
HETATM   23  H   UNL     1      10.250  10.159  25.624  0.00  0.00     0.127 HD
HETATM   24  H   UNL     1      10.873   8.867  24.664  0.00  0.00     0.127 HD
ENDBRANCH   8  22
TORSDOF 2
ENDMDL
MODEL 5
REMARK VINA RESULT:    -7.419      1.786      6.413
REMARK INTER + INTRA:          -8.494
REMARK INTER:                  -8.077
REMARK INTRA:                  -0.417
REMARK UNBOUND:                -0.424
REMARK  2 active torsions:
REMARK  status: ('A' for Active; 'I' for Inactive)
REMARK    1  A    between atoms: C_8  and  N_9 
REMARK    2  A    between atoms: C_11  and  C_12 
REMARK       I    between atoms: C_12  and  N_14 
ROOT
HETATM    1  C   UNL     1       0.887  13.172  25.823  0.00  0.00     0.016 A 
HETATM    2  C   UNL     1       1.934  14.038  25.503  0.00  0.00     0.001 A 
HETATM    3  C   UNL     1       1.997  14.584  24.231  0.00  0.00     0.002 A 
HETATM    4  C   UNL     1       1.021  14.251  23.290  0.00  0.00     0.032 A 
HETATM    5  C   UNL     1      -0.030  13.390  23.587  0.00  0.00     0.072 A 
HETATM    6  C   UNL     1      -0.121  12.843  24.870  0.00  0.00     0.027 A 
HETATM    7  N   UNL     1      -0.899  13.117  22.610  0.00  0.00    -0.218 NA
HETATM    8  C   UNL     1      -1.911  12.298  22.882  0.00  0.00     0.200 A 
HETATM    9  N   UNL     1      -2.123  11.714  24.053  0.00  0.00    -0.212 NA
HETATM   10  C   UNL     1      -1.231  11.991  25.036  0.00  0.00     0.140 A 
ENDROOT
BRANCH  10  11
HETATM   11  C   UNL     1      -1.528  11.322  26.363  0.00  0.00     0.273 C 
HETATM   12  O   UNL     1      -2.106  11.953  27.247  0.00  0.00    -0.266 OA
HETATM   13  N   UNL     1      -1.129  10.004  26.575  0.00  0.00    -0.342 N 
HETATM   14  C   UNL     1      -1.399   9.302  27.829  0.00  0.00     0.139 C 
HETATM   15  C   UNL     1      -0.400   9.152  25.650  0.00  0.00     0.161 C 
HETATM   16  C   UNL     1      -0.207   8.360  27.985  0.00  0.00     0.056 C 
HETATM   17  C   UNL     1       0.205   8.124  26.547  0.00  0.00    -0.056 C 
HETATM   18  C   UNL     1      -0.368   7.059  28.728  0.00  0.00    -0.020 C 
HETATM   19  C   UNL     1       0.957   7.068  26.197  0.00  0.00    -0.018 C 
HETATM   20  C   UNL     1       1.346   6.029  27.218  0.00  0.00     0.054 C 
HETATM   21  C   UNL     1       0.393   5.996  28.391  0.00  0.00    -0.026 C 
ENDBRANCH  10  11
BRANCH   8  22
HETATM   22  N   UNL     1      -2.762  11.983  21.846  0.00  0.00    -0.271 NA
HETATM   23  H   UNL     1      -3.620  12.510  21.940  0.00  0.00     0.127 HD
HETATM   24  H   UNL     1      -2.281  12.036  20.960  0.00  0.00     0.127 HD
ENDBRANCH   8  22
TORSDOF 2
ENDMDL
MODEL 6
REMARK VINA RESULT:    -7.411      2.095      6.863
REMARK INTER + INTRA:          -8.485
REMARK INTER:                  -8.060
REMARK INTRA:                  -0.424
REMARK UNBOUND:                -0.424
REMARK  2 active torsions:
REMARK  status: ('A' for Active; 'I' for Inactive)
REMARK    1  A    between atoms: C_8  and  N_9 
REMARK    2  A    between atoms: C_11  and  C_12 
REMARK       I    between atoms: C_12  and  N_14 
ROOT
HETATM    1  C   UNL     1      -2.237  12.245  23.540  0.00  0.00     0.016 A 
HETATM    2  C   UNL     1      -2.740  12.415  22.248  0.00  0.00     0.001 A 
HETATM    3  C   UNL     1      -1.901  12.883  21.250  0.00  0.00     0.002 A 
HETATM    4  C   UNL     1      -0.573  13.187  21.554  0.00  0.00     0.032 A 
HETATM    5  C   UNL     1      -0.052  13.028  22.833  0.00  0.00     0.072 A 
HETATM    6  C   UNL     1      -0.877  12.540  23.850  0.00  0.00     0.027 A 
HETATM    7  N   UNL     1       1.226  13.370  23.026  0.00  0.00    -0.218 NA
HETATM    8  C   UNL     1       1.738  13.219  24.244  0.00  0.00     0.200 A 
HETATM    9  N   UNL     1       1.074  12.762  25.297  0.00  0.00    -0.212 NA
HETATM   10  C   UNL     1      -0.223  12.425  25.093  0.00  0.00     0.140 A 
ENDROOT
BRANCH  10  11
HETATM   11  C   UNL     1      -0.935  11.886  26.318  0.00  0.00     0.273 C 
HETATM   12  O   UNL     1      -1.385  12.669  27.154  0.00  0.00    -0.266 OA
HETATM   13  N   UNL     1      -1.058  10.510  26.493  0.00  0.00    -0.342 N 
HETATM   14  C   UNL     1      -1.745   9.932  27.647  0.00  0.00     0.139 C 
HETATM   15  C   UNL     1      -0.540   9.467  25.623  0.00  0.00     0.161 C 
HETATM   16  C   UNL     1      -0.997   8.626  27.903  0.00  0.00     0.056 C 
HETATM   17  C   UNL     1      -0.478   8.280  26.524  0.00  0.00    -0.056 C 
HETATM   18  C   UNL     1      -1.714   7.456  28.527  0.00  0.00    -0.020 C 
HETATM   19  C   UNL     1      -0.097   7.029  26.211  0.00  0.00    -0.018 C 
HETATM   20  C   UNL     1      -0.257   5.906  27.203  0.00  0.00     0.054 C 
HETATM   21  C   UNL     1      -1.329   6.197  28.227  0.00  0.00    -0.026 C 
ENDBRANCH  10  11
BRANCH   8  22
HETATM   22  N   UNL     1       3.038  13.631  24.436  0.00  0.00    -0.271 NA
HETATM   23  H   UNL     1       3.199  13.799  25.420  0.00  0.00     0.127 HD
HETATM   24  H   UNL     1       3.681  13.016  23.960  0.00  0.00     0.127 HD
ENDBRANCH   8  22
TORSDOF 2
ENDMDL
MODEL 7
REMARK VINA RESULT:    -7.369      2.464      3.389
REMARK INTER + INTRA:          -8.440
REMARK INTER:                  -8.289
REMARK INTRA:                  -0.151
REMARK UNBOUND:                -0.424
REMARK  2 active torsions:
REMARK  status: ('A' for Active; 'I' for Inactive)
REMARK    1  A    between atoms: C_8  and  N_9 
REMARK    2  A    between atoms: C_11  and  C_12 
REMARK       I    between atoms: C_12  and  N_14 
ROOT
HETATM    1  C   UNL     1      -1.018   9.495  27.611  0.00  0.00     0.016 A 
HETATM    2  C   UNL     1      -1.209   8.652  28.708  0.00  0.00     0.001 A 
HETATM    3  C   UNL     1      -0.991   7.292  28.564  0.00  0.00     0.002 A 
HETATM    4  C   UNL     1      -0.594   6.785  27.325  0.00  0.00     0.032 A 
HETATM    5  C   UNL     1      -0.399   7.606  26.219  0.00  0.00     0.072 A 
HETATM    6  C   UNL     1      -0.597   8.983  26.348  0.00  0.00     0.027 A 
HETATM    7  N   UNL     1      -0.041   7.021  25.072  0.00  0.00    -0.218 NA
HETATM    8  C   UNL     1       0.152   7.794  24.008  0.00  0.00     0.200 A 
HETATM    9  N   UNL     1       0.007   9.112  23.989  0.00  0.00    -0.212 NA
HETATM   10  C   UNL     1      -0.363   9.696  25.155  0.00  0.00     0.140 A 
ENDROOT
BRANCH  10  11
HETATM   11  C   UNL     1      -0.493  11.204  25.091  0.00  0.00     0.273 C 
HETATM   12  O   UNL     1      -1.606  11.723  25.176  0.00  0.00    -0.266 OA
HETATM   13  N   UNL     1       0.646  11.987  24.922  0.00  0.00    -0.342 N 
HETATM   14  C   UNL     1       0.584  13.448  24.867  0.00  0.00     0.139 C 
HETATM   15  C   UNL     1       2.013  11.520  24.759  0.00  0.00     0.161 C 
HETATM   16  C   UNL     1       1.718  13.826  23.917  0.00  0.00     0.056 C 
HETATM   17  C   UNL     1       2.686  12.677  24.100  0.00  0.00    -0.056 C 
HETATM   18  C   UNL     1       2.414  15.156  24.067  0.00  0.00    -0.020 C 
HETATM   19  C   UNL     1       3.980  12.787  23.753  0.00  0.00    -0.018 C 
HETATM   20  C   UNL     1       4.532  14.096  23.249  0.00  0.00     0.054 C 
HETATM   21  C   UNL     1       3.709  15.277  23.709  0.00  0.00    -0.026 C 
ENDBRANCH  10  11
BRANCH   8  22
HETATM   22  N   UNL     1       0.463   7.166  22.822  0.00  0.00    -0.271 NA
HETATM   23  H   UNL     1       1.393   7.435  22.530  0.00  0.00     0.127 HD
HETATM   24  H   UNL     1       0.262   6.179  22.878  0.00  0.00     0.127 HD
ENDBRANCH   8  22
TORSDOF 2
ENDMDL
MODEL 8
REMARK VINA RESULT:    -7.349      6.591     10.635
REMARK INTER + INTRA:          -8.417
REMARK INTER:                  -7.983
REMARK INTRA:                  -0.435
REMARK UNBOUND:                -0.424
REMARK  2 active torsions:
REMARK  status: ('A' for Active; 'I' for Inactive)
REMARK    1  A    between atoms: C_8  and  N_9 
REMARK    2  A    between atoms: C_11  and  C_12 
REMARK       I    between atoms: C_12  and  N_14 
ROOT
HETATM    1  C   UNL     1       9.089  14.758  24.207  0.00  0.00     0.016 A 
HETATM    2  C   UNL     1       9.980  15.747  24.629  0.00  0.00     0.001 A 
HETATM    3  C   UNL     1      10.604  16.545  23.684  0.00  0.00     0.002 A 
HETATM    4  C   UNL     1      10.340  16.342  22.329  0.00  0.00     0.032 A 
HETATM    5  C   UNL     1       9.458  15.363  21.886  0.00  0.00     0.072 A 
HETATM    6  C   UNL     1       8.805  14.558  22.824  0.00  0.00     0.027 A 
HETATM    7  N   UNL     1       9.291  15.233  20.567  0.00  0.00    -0.218 NA
HETATM    8  C   UNL     1       8.447  14.302  20.130  0.00  0.00     0.200 A 
HETATM    9  N   UNL     1       7.758  13.477  20.905  0.00  0.00    -0.212 NA
HETATM   10  C   UNL     1       7.939  13.611  22.242  0.00  0.00     0.140 A 
ENDROOT
BRANCH  10  11
HETATM   11  C   UNL     1       7.113  12.663  23.088  0.00  0.00     0.273 C 
HETATM   12  O   UNL     1       7.531  11.527  23.314  0.00  0.00    -0.266 OA
HETATM   13  N   UNL     1       5.883  13.080  23.589  0.00  0.00    -0.342 N 
HETATM   14  C   UNL     1       5.048  12.215  24.422  0.00  0.00     0.139 C 
HETATM   15  C   UNL     1       5.239  14.365  23.369  0.00  0.00     0.161 C 
HETATM   16  C   UNL     1       3.622  12.629  24.066  0.00  0.00     0.056 C 
HETATM   17  C   UNL     1       3.803  14.072  23.648  0.00  0.00    -0.056 C 
HETATM   18  C   UNL     1       2.521  12.489  25.086  0.00  0.00    -0.020 C 
HETATM   19  C   UNL     1       2.769  14.930  23.624  0.00  0.00    -0.018 C 
HETATM   20  C   UNL     1       1.404  14.503  24.099  0.00  0.00     0.054 C 
HETATM   21  C   UNL     1       1.473  13.339  25.061  0.00  0.00    -0.026 C 
ENDBRANCH  10  11
BRANCH   8  22
HETATM   22  N   UNL     1       8.334  14.146  18.766  0.00  0.00    -0.271 NA
HETATM   23  H   UNL     1       8.668  13.229  18.501  0.00  0.00     0.127 HD
HETATM   24  H   UNL     1       7.413  14.411  18.452  0.00  0.00     0.127 HD
ENDBRANCH   8  22
TORSDOF 2
ENDMDL
MODEL 9
REMARK VINA RESULT:    -7.299      6.349     10.161
REMARK INTER + INTRA:          -8.363
REMARK INTER:                  -8.025
REMARK INTRA:                  -0.338
REMARK UNBOUND:                -0.424
REMARK  2 active torsions:
REMARK  status: ('A' for Active; 'I' for Inactive)
REMARK    1  A    between atoms: C_8  and  N_9 
REMARK    2  A    between atoms: C_11  and  C_12 
REMARK       I    between atoms: C_12  and  N_14 
ROOT
HETATM    1  C   UNL     1       8.666  14.545  22.185  0.00  0.00     0.016 A 
HETATM    2  C   UNL     1       9.443  15.347  21.346  0.00  0.00     0.001 A 
HETATM    3  C   UNL     1      10.315  16.267  21.905  0.00  0.00     0.002 A 
HETATM    4  C   UNL     1      10.395  16.384  23.294  0.00  0.00     0.032 A 
HETATM    5  C   UNL     1       9.629  15.597  24.147  0.00  0.00     0.072 A 
HETATM    6  C   UNL     1       8.757  14.651  23.603  0.00  0.00     0.027 A 
HETATM    7  N   UNL     1       9.762  15.803  25.461  0.00  0.00    -0.218 NA
HETATM    8  C   UNL     1       9.038  15.055  26.288  0.00  0.00     0.200 A 
HETATM    9  N   UNL     1       8.178  14.119  25.912  0.00  0.00    -0.212 NA
HETATM   10  C   UNL     1       8.045  13.922  24.578  0.00  0.00     0.140 A 
ENDROOT
BRANCH  10  11
HETATM   11  C   UNL     1       7.070  12.827  24.196  0.00  0.00     0.273 C 
HETATM   12  O   UNL     1       7.498  11.735  23.820  0.00  0.00    -0.266 OA
HETATM   13  N   UNL     1       5.701  13.070  24.258  0.00  0.00    -0.342 N 
HETATM   14  C   UNL     1       4.712  12.048  23.915  0.00  0.00     0.139 C 
HETATM   15  C   UNL     1       5.050  14.315  24.634  0.00  0.00     0.161 C 
HETATM   16  C   UNL     1       3.550  12.845  23.327  0.00  0.00     0.056 C 
HETATM   17  C   UNL     1       3.695  14.182  24.022  0.00  0.00    -0.056 C 
HETATM   18  C   UNL     1       2.142  12.319  23.441  0.00  0.00    -0.020 C 
HETATM   19  C   UNL     1       2.672  15.049  24.095  0.00  0.00    -0.018 C 
HETATM   20  C   UNL     1       1.311  14.680  23.561  0.00  0.00     0.054 C 
HETATM   21  C   UNL     1       1.108  13.183  23.503  0.00  0.00    -0.026 C 
ENDBRANCH  10  11
BRANCH   8  22
HETATM   22  N   UNL     1       9.146  15.322  27.635  0.00  0.00    -0.271 NA
HETATM   23  H   UNL     1       8.788  16.248  27.827  0.00  0.00     0.127 HD
HETATM   24  H   UNL     1       8.773  14.560  28.181  0.00  0.00     0.127 HD
ENDBRANCH   8  22
TORSDOF 2
ENDMDL
