REMARK  2 active torsions:
REMARK  status: ('A' for Active; 'I' for Inactive)
REMARK    1  A    between atoms: C_8  and  N_9 
REMARK    2  A    between atoms: C_11  and  C_12 
REMARK       I    between atoms: C_12  and  N_14 
ROOT
HETATM    1  C   UNL     1      -1.100   1.406  -0.769  0.00  0.00     0.016 A 
HETATM    2  C   UNL     1      -2.187   0.633  -1.184  0.00  0.00     0.001 A 
HETATM    3  C   UNL     1      -2.105  -0.748  -1.107  0.00  0.00     0.002 A 
HETATM    4  C   UNL     1      -0.937  -1.343  -0.627  0.00  0.00     0.032 A 
HETATM    5  C   UNL     1       0.157  -0.593  -0.210  0.00  0.00     0.072 A 
HETATM    6  C   UNL     1       0.088   0.802  -0.263  0.00  0.00     0.027 A 
HETATM    7  N   UNL     1       1.237  -1.258   0.211  0.00  0.00    -0.218 NA
HETATM    8  C   UNL     1       2.289  -0.553   0.616  0.00  0.00     0.200 A 
HETATM    9  N   UNL     1       2.359   0.771   0.626  0.00  0.00    -0.212 NA
HETATM   10  C   UNL     1       1.262   1.437   0.190  0.00  0.00     0.140 A 
ENDROOT
BRANCH  10  11
HETATM   11  C   UNL     1       1.379   2.947   0.242  0.00  0.00     0.273 C 
HETATM   12  O   UNL     1       0.380   3.627   0.476  0.00  0.00    -0.266 OA
HETATM   13  N   UNL     1       2.612   3.551   0.009  0.00  0.00    -0.342 N 
HETATM   14  C   UNL     1       2.789   5.002   0.059  0.00  0.00     0.139 C 
HETATM   15  C   UNL     1       3.862   2.888  -0.325  0.00  0.00     0.161 C 
HETATM   16  C   UNL     1       3.879   5.274  -0.975  0.00  0.00     0.056 C 
HETATM   17  C   UNL     1       4.655   3.974  -0.971  0.00  0.00    -0.056 C 
HETATM   18  C   UNL     1       4.796   6.459  -0.809  0.00  0.00    -0.020 C 
HETATM   19  C   UNL     1       5.912   3.906  -1.441  0.00  0.00    -0.018 C 
HETATM   20  C   UNL     1       6.626   5.148  -1.910  0.00  0.00     0.054 C 
HETATM   21  C   UNL     1       6.056   6.403  -1.289  0.00  0.00    -0.026 C 
ENDBRANCH  10  11
BRANCH   8  22
HETATM   22  N   UNL     1       3.412  -1.257   0.991  0.00  0.00    -0.271 NA
HETATM   23  H   UNL     1       3.388  -2.179   0.577  0.00  0.00     0.127 HD
HETATM   24  H   UNL     1       4.244  -0.705   0.845  0.00  0.00     0.127 HD
ENDBRANCH   8  22
TORSDOF 2
