REMARK  4 active torsions:
REMARK  status: ('A' for Active; 'I' for Inactive)
REMARK    1  A    between atoms: O_1  and  C_2 
REMARK    2  A    between atoms: C_4  and  O_5 
REMARK    3  A    between atoms: C_6  and  C_9 
REMARK    4  A    between atoms: N_15  and  C_16 
ROOT
HETATM    1  C   UNL     1       6.690   0.054  -0.465  0.00  0.00     0.171 A 
HETATM    2  N   UNL     1       7.428   1.136  -0.481  0.00  0.00    -0.151 NA
HETATM    3  N   UNL     1       8.648   0.729  -0.916  0.00  0.00    -0.226 N 
HETATM    4  H   UNL     1       9.383   1.377  -1.162  0.00  0.00     0.194 HD
HETATM    5  C   UNL     1       8.638  -0.624  -1.221  0.00  0.00     0.349 A 
HETATM    6  O   UNL     1       9.562  -1.215  -1.763  0.00  0.00    -0.245 OA
HETATM    7  N   UNL     1       7.389  -1.080  -0.839  0.00  0.00    -0.244 N 
ENDROOT
BRANCH   1   8
HETATM    8  C   UNL     1       5.248   0.102  -0.059  0.00  0.00     0.045 C 
HETATM    9  C   UNL     1       4.476   1.254  -0.310  0.00  0.00     0.082 C 
HETATM   10  C   UNL     1       3.094   1.270  -0.088  0.00  0.00     0.074 C 
HETATM   11  C   UNL     1       2.471   0.125   0.385  0.00  0.00     0.068 C 
HETATM   12  C   UNL     1       3.219  -0.992   0.731  0.00  0.00     0.037 C 
HETATM   13  C   UNL     1       4.608  -0.985   0.552  0.00  0.00     0.021 C 
BRANCH   9  14
HETATM   14  O   UNL     1       5.041   2.392  -0.820  0.00  0.00    -0.360 OA
HETATM   15  H   UNL     1       4.521   3.164  -0.540  0.00  0.00     0.217 HD
ENDBRANCH   9  14
BRANCH  11  16
HETATM   16  O   UNL     1       1.117   0.055   0.520  0.00  0.00    -0.361 OA
HETATM   17  H   UNL     1       0.718   0.848   0.123  0.00  0.00     0.217 HD
ENDBRANCH  11  16
ENDBRANCH   1   8
BRANCH   7  18
HETATM   18  C   UNL     1       6.983  -2.430  -0.961  0.00  0.00     0.051 A 
HETATM   19  C   UNL     1       7.739  -3.484  -0.390  0.00  0.00    -0.035 A 
HETATM   20  C   UNL     1       9.094  -3.307   0.244  0.00  0.00     0.050 C 
HETATM   21  C   UNL     1       7.215  -4.791  -0.412  0.00  0.00     0.009 A 
HETATM   22  C   UNL     1       5.973  -5.061  -0.981  0.00  0.00     0.001 A 
HETATM   23  C   UNL     1       5.259  -4.037  -1.592  0.00  0.00     0.002 A 
HETATM   24  C   UNL     1       5.769  -2.738  -1.598  0.00  0.00     0.031 A 
ENDBRANCH   7  18
TORSDOF 4
