MODEL 1
REMARK VINA RESULT:    -7.112      0.000      0.000
REMARK INTER + INTRA:         -10.474
REMARK INTER:                  -9.444
REMARK INTRA:                  -1.031
REMARK UNBOUND:                -1.076
REMARK  6 active torsions:
REMARK  status: ('A' for Active; 'I' for Inactive)
REMARK    1  A    between atoms: C_2  and  C_3 
REMARK    2  A    between atoms: C_3  and  C_5 
REMARK    3  A    between atoms: C_12  and  C_16 
REMARK    4  A    between atoms: C_13  and  O_15 
REMARK       I    between atoms: C_16  and  N_18 
REMARK    5  A    between atoms: N_18  and  C_20 
REMARK    6  A    between atoms: C_23  and  N_26 
ROOT
HETATM    1  C   UNL     1       2.164   6.349  17.861  0.00  0.00     0.071 A 
HETATM    2  N   UNL     1       2.806   5.995  16.735  0.00  0.00    -0.178 NA
HETATM    3  N   UNL     1       4.100   6.002  17.084  0.00  0.00    -0.277 N 
HETATM    4  H   UNL     1       4.784   5.783  16.370  0.00  0.00     0.189 HD
HETATM    5  C   UNL     1       3.078   6.536  18.946  0.00  0.00     0.020 A 
HETATM    6  C   UNL     1       4.330   6.325  18.392  0.00  0.00     0.065 A 
HETATM    7  C   UNL     1       3.000   6.846  20.321  0.00  0.00     0.035 C 
HETATM    8  C   UNL     1       4.176   6.969  21.106  0.00  0.00     0.066 C 
HETATM    9  C   UNL     1       5.410   6.870  20.458  0.00  0.00     0.083 C 
HETATM   10  C   UNL     1       5.516   6.480  19.114  0.00  0.00     0.069 C 
ENDROOT
BRANCH   8  11
HETATM   11  C   UNL     1       3.945   7.303  22.549  0.00  0.00     0.260 C 
HETATM   12  O   UNL     1       4.195   8.481  22.830  0.00  0.00    -0.267 OA
HETATM   13  N   UNL     1       3.465   6.371  23.501  0.00  0.00    -0.318 N 
HETATM   14  C   UNL     1       3.340   4.930  23.276  0.00  0.00     0.159 C 
BRANCH  13  15
HETATM   15  C   UNL     1       3.067   6.836  24.813  0.00  0.00     0.037 A 
HETATM   16  C   UNL     1       1.818   7.421  25.021  0.00  0.00     0.032 A 
HETATM   17  C   UNL     1       1.435   7.903  26.283  0.00  0.00     0.031 A 
HETATM   18  C   UNL     1       2.280   7.839  27.398  0.00  0.00     0.030 A 
HETATM   19  C   UNL     1       3.505   7.189  27.195  0.00  0.00     0.031 A 
HETATM   20  C   UNL     1       3.892   6.689  25.934  0.00  0.00     0.032 A 
BRANCH  18  21
HETATM   21  N   UNL     1       1.949   8.432  28.598  0.00  0.00    -0.377 N 
HETATM   22  C   UNL     1       0.588   8.868  28.951  0.00  0.00     0.149 C 
HETATM   23  C   UNL     1       0.273   8.451  30.398  0.00  0.00     0.187 C 
HETATM   24  O   UNL     1       1.256   8.949  31.323  0.00  0.00    -0.388 OA
HETATM   25  C   UNL     1       2.558   8.449  30.976  0.00  0.00     0.187 C 
HETATM   26  C   UNL     1       2.972   8.882  29.560  0.00  0.00     0.149 C 
ENDBRANCH  18  21
ENDBRANCH  13  15
ENDBRANCH   8  11
BRANCH   9  27
HETATM   27  O   UNL     1       6.601   7.222  21.035  0.00  0.00    -0.360 OA
HETATM   28  H   UNL     1       6.622   6.816  21.921  0.00  0.00     0.217 HD
ENDBRANCH   9  27
BRANCH   1  29
HETATM   29  C   UNL     1       0.657   6.474  17.877  0.00  0.00     0.036 C 
HETATM   30  C   UNL     1       0.037   6.272  16.479  0.00  0.00     0.016 C 
BRANCH  29  31
HETATM   31  C   UNL     1      -0.005   5.488  18.860  0.00  0.00     0.006 C 
HETATM   32  C   UNL     1      -0.448   4.177  18.223  0.00  0.00     0.006 C 
ENDBRANCH  29  31
ENDBRANCH   1  29
TORSDOF 6
ENDMDL
MODEL 2
REMARK VINA RESULT:    -6.738      1.192      1.525
REMARK INTER + INTRA:          -9.980
REMARK INTER:                  -9.047
REMARK INTRA:                  -0.934
REMARK UNBOUND:                -1.076
REMARK  6 active torsions:
REMARK  status: ('A' for Active; 'I' for Inactive)
REMARK    1  A    between atoms: C_2  and  C_3 
REMARK    2  A    between atoms: C_3  and  C_5 
REMARK    3  A    between atoms: C_12  and  C_16 
REMARK    4  A    between atoms: C_13  and  O_15 
REMARK       I    between atoms: C_16  and  N_18 
REMARK    5  A    between atoms: N_18  and  C_20 
REMARK    6  A    between atoms: C_23  and  N_26 
ROOT
HETATM    1  C   UNL     1       2.399   6.293  17.997  0.00  0.00     0.071 A 
HETATM    2  N   UNL     1       3.190   6.117  16.926  0.00  0.00    -0.178 NA
HETATM    3  N   UNL     1       4.418   5.990  17.446  0.00  0.00    -0.277 N 
HETATM    4  H   UNL     1       5.194   5.869  16.807  0.00  0.00     0.189 HD
HETATM    5  C   UNL     1       3.147   6.227  19.214  0.00  0.00     0.020 A 
HETATM    6  C   UNL     1       4.461   6.054  18.811  0.00  0.00     0.065 A 
HETATM    7  C   UNL     1       2.875   6.283  20.599  0.00  0.00     0.035 C 
HETATM    8  C   UNL     1       3.925   6.196  21.549  0.00  0.00     0.066 C 
HETATM    9  C   UNL     1       5.239   6.151  21.073  0.00  0.00     0.083 C 
HETATM   10  C   UNL     1       5.531   6.009  19.708  0.00  0.00     0.069 C 
ENDROOT
BRANCH   8  11
HETATM   11  C   UNL     1       3.493   6.272  22.983  0.00  0.00     0.260 C 
HETATM   12  O   UNL     1       3.062   5.202  23.426  0.00  0.00    -0.267 OA
HETATM   13  N   UNL     1       3.589   7.447  23.768  0.00  0.00    -0.318 N 
HETATM   14  C   UNL     1       3.903   8.780  23.249  0.00  0.00     0.159 C 
BRANCH  13  15
HETATM   15  C   UNL     1       3.354   7.370  25.194  0.00  0.00     0.037 A 
HETATM   16  C   UNL     1       2.151   7.809  25.750  0.00  0.00     0.032 A 
HETATM   17  C   UNL     1       1.926   7.765  27.135  0.00  0.00     0.031 A 
HETATM   18  C   UNL     1       2.888   7.296  28.038  0.00  0.00     0.030 A 
HETATM   19  C   UNL     1       4.064   6.794  27.464  0.00  0.00     0.031 A 
HETATM   20  C   UNL     1       4.294   6.820  26.072  0.00  0.00     0.032 A 
BRANCH  18  21
HETATM   21  N   UNL     1       2.710   7.381  29.402  0.00  0.00    -0.377 N 
HETATM   22  C   UNL     1       3.138   8.529  30.217  0.00  0.00     0.149 C 
HETATM   23  C   UNL     1       2.027   8.895  31.216  0.00  0.00     0.187 C 
HETATM   24  O   UNL     1       1.646   7.770  32.027  0.00  0.00    -0.388 OA
HETATM   25  C   UNL     1       1.177   6.696  31.194  0.00  0.00     0.187 C 
HETATM   26  C   UNL     1       2.261   6.230  30.208  0.00  0.00     0.149 C 
ENDBRANCH  18  21
ENDBRANCH  13  15
ENDBRANCH   8  11
BRANCH   9  27
HETATM   27  O   UNL     1       6.340   6.326  21.867  0.00  0.00    -0.360 OA
HETATM   28  H   UNL     1       6.100   6.972  22.556  0.00  0.00     0.217 HD
ENDBRANCH   9  27
BRANCH   1  29
HETATM   29  C   UNL     1       0.909   6.494  17.825  0.00  0.00     0.036 C 
HETATM   30  C   UNL     1       0.470   6.394  16.349  0.00  0.00     0.016 C 
BRANCH  29  31
HETATM   31  C   UNL     1       0.080   5.496  18.657  0.00  0.00     0.006 C 
HETATM   32  C   UNL     1       0.096   4.072  18.119  0.00  0.00     0.006 C 
ENDBRANCH  29  31
ENDBRANCH   1  29
TORSDOF 6
ENDMDL
MODEL 3
REMARK VINA RESULT:    -6.633      5.278     11.049
REMARK INTER + INTRA:          -9.842
REMARK INTER:                  -9.325
REMARK INTRA:                  -0.517
REMARK UNBOUND:                -1.076
REMARK  6 active torsions:
REMARK  status: ('A' for Active; 'I' for Inactive)
REMARK    1  A    between atoms: C_2  and  C_3 
REMARK    2  A    between atoms: C_3  and  C_5 
REMARK    3  A    between atoms: C_12  and  C_16 
REMARK    4  A    between atoms: C_13  and  O_15 
REMARK       I    between atoms: C_16  and  N_18 
REMARK    5  A    between atoms: N_18  and  C_20 
REMARK    6  A    between atoms: C_23  and  N_26 
ROOT
HETATM    1  C   UNL     1       4.261   6.617  21.150  0.00  0.00     0.071 A 
HETATM    2  N   UNL     1       4.933   7.714  21.538  0.00  0.00    -0.178 NA
HETATM    3  N   UNL     1       4.511   8.667  20.697  0.00  0.00    -0.277 N 
HETATM    4  H   UNL     1       4.911   9.593  20.791  0.00  0.00     0.189 HD
HETATM    5  C   UNL     1       3.368   6.907  20.071  0.00  0.00     0.020 A 
HETATM    6  C   UNL     1       3.579   8.247  19.790  0.00  0.00     0.065 A 
HETATM    7  C   UNL     1       2.406   6.209  19.310  0.00  0.00     0.035 C 
HETATM    8  C   UNL     1       1.698   6.856  18.264  0.00  0.00     0.066 C 
HETATM    9  C   UNL     1       2.051   8.171  17.948  0.00  0.00     0.083 C 
HETATM   10  C   UNL     1       2.940   8.913  18.741  0.00  0.00     0.069 C 
ENDROOT
BRANCH   8  11
HETATM   11  C   UNL     1       0.709   5.994  17.537  0.00  0.00     0.260 C 
HETATM   12  O   UNL     1      -0.431   6.470  17.506  0.00  0.00    -0.267 OA
HETATM   13  N   UNL     1       1.047   4.763  16.923  0.00  0.00    -0.318 N 
HETATM   14  C   UNL     1       2.320   4.061  17.093  0.00  0.00     0.159 C 
BRANCH  13  15
HETATM   15  C   UNL     1       0.082   4.111  16.063  0.00  0.00     0.037 A 
HETATM   16  C   UNL     1      -0.164   4.580  14.772  0.00  0.00     0.032 A 
HETATM   17  C   UNL     1      -1.119   3.972  13.941  0.00  0.00     0.031 A 
HETATM   18  C   UNL     1      -1.887   2.877  14.357  0.00  0.00     0.030 A 
HETATM   19  C   UNL     1      -1.585   2.372  15.629  0.00  0.00     0.031 A 
HETATM   20  C   UNL     1      -0.616   2.967  16.464  0.00  0.00     0.032 A 
BRANCH  18  21
HETATM   21  N   UNL     1      -2.912   2.373  13.586  0.00  0.00    -0.377 N 
HETATM   22  C   UNL     1      -2.828   1.115  12.826  0.00  0.00     0.149 C 
HETATM   23  C   UNL     1      -4.126   0.311  13.014  0.00  0.00     0.187 C 
HETATM   24  O   UNL     1      -5.287   1.081  12.656  0.00  0.00    -0.388 OA
HETATM   25  C   UNL     1      -5.362   2.267  13.464  0.00  0.00     0.187 C 
HETATM   26  C   UNL     1      -4.123   3.157  13.279  0.00  0.00     0.149 C 
ENDBRANCH  18  21
ENDBRANCH  13  15
ENDBRANCH   8  11
BRANCH   9  27
HETATM   27  O   UNL     1       1.640   8.816  16.813  0.00  0.00    -0.360 OA
HETATM   28  H   UNL     1       0.665   8.798  16.808  0.00  0.00     0.217 HD
ENDBRANCH   9  27
BRANCH   1  29
HETATM   29  C   UNL     1       4.476   5.297  21.857  0.00  0.00     0.036 C 
HETATM   30  C   UNL     1       4.963   4.191  20.898  0.00  0.00     0.016 C 
BRANCH  29  31
HETATM   31  C   UNL     1       5.471   5.411  23.028  0.00  0.00     0.006 C 
HETATM   32  C   UNL     1       5.590   4.146  23.869  0.00  0.00     0.006 C 
ENDBRANCH  29  31
ENDBRANCH   1  29
TORSDOF 6
ENDMDL
MODEL 4
REMARK VINA RESULT:    -6.557      3.549      9.099
REMARK INTER + INTRA:          -9.742
REMARK INTER:                  -8.618
REMARK INTRA:                  -1.124
REMARK UNBOUND:                -1.076
REMARK  6 active torsions:
REMARK  status: ('A' for Active; 'I' for Inactive)
REMARK    1  A    between atoms: C_2  and  C_3 
REMARK    2  A    between atoms: C_3  and  C_5 
REMARK    3  A    between atoms: C_12  and  C_16 
REMARK    4  A    between atoms: C_13  and  O_15 
REMARK       I    between atoms: C_16  and  N_18 
REMARK    5  A    between atoms: N_18  and  C_20 
REMARK    6  A    between atoms: C_23  and  N_26 
ROOT
HETATM    1  C   UNL     1      -0.632  11.865  26.125  0.00  0.00     0.071 A 
HETATM    2  N   UNL     1      -1.136  12.430  27.235  0.00  0.00    -0.178 NA
HETATM    3  N   UNL     1      -1.183  11.425  28.118  0.00  0.00    -0.277 N 
HETATM    4  H   UNL     1      -1.559  11.619  29.038  0.00  0.00     0.189 HD
HETATM    5  C   UNL     1      -0.317  10.486  26.339  0.00  0.00     0.020 A 
HETATM    6  C   UNL     1      -0.713  10.232  27.642  0.00  0.00     0.065 A 
HETATM    7  C   UNL     1       0.261   9.432  25.599  0.00  0.00     0.035 C 
HETATM    8  C   UNL     1       0.400   8.138  26.166  0.00  0.00     0.066 C 
HETATM    9  C   UNL     1      -0.137   7.918  27.438  0.00  0.00     0.083 C 
HETATM   10  C   UNL     1      -0.637   8.965  28.226  0.00  0.00     0.069 C 
ENDROOT
BRANCH   8  11
HETATM   11  C   UNL     1       1.027   7.115  25.268  0.00  0.00     0.260 C 
HETATM   12  O   UNL     1       0.236   6.612  24.463  0.00  0.00    -0.267 OA
HETATM   13  N   UNL     1       2.400   6.767  25.316  0.00  0.00    -0.318 N 
HETATM   14  C   UNL     1       3.334   7.178  26.366  0.00  0.00     0.159 C 
BRANCH  13  15
HETATM   15  C   UNL     1       2.959   5.934  24.272  0.00  0.00     0.037 A 
HETATM   16  C   UNL     1       3.440   6.491  23.087  0.00  0.00     0.032 A 
HETATM   17  C   UNL     1       3.956   5.689  22.057  0.00  0.00     0.031 A 
HETATM   18  C   UNL     1       4.007   4.293  22.148  0.00  0.00     0.030 A 
HETATM   19  C   UNL     1       3.584   3.748  23.368  0.00  0.00     0.031 A 
HETATM   20  C   UNL     1       3.079   4.548  24.414  0.00  0.00     0.032 A 
BRANCH  18  21
HETATM   21  N   UNL     1       4.391   3.507  21.082  0.00  0.00    -0.377 N 
HETATM   22  C   UNL     1       4.380   2.036  21.099  0.00  0.00     0.149 C 
HETATM   23  C   UNL     1       3.788   1.509  19.780  0.00  0.00     0.187 C 
HETATM   24  O   UNL     1       4.486   2.030  18.635  0.00  0.00    -0.388 OA
HETATM   25  C   UNL     1       4.418   3.466  18.627  0.00  0.00     0.187 C 
HETATM   26  C   UNL     1       5.052   4.070  19.890  0.00  0.00     0.149 C 
ENDBRANCH  18  21
ENDBRANCH  13  15
ENDBRANCH   8  11
BRANCH   9  27
HETATM   27  O   UNL     1      -0.301   6.675  27.987  0.00  0.00    -0.360 OA
HETATM   28  H   UNL     1       0.044   6.028  27.345  0.00  0.00     0.217 HD
ENDBRANCH   9  27
BRANCH   1  29
HETATM   29  C   UNL     1      -0.435  12.685  24.869  0.00  0.00     0.036 C 
HETATM   30  C   UNL     1       1.056  12.924  24.553  0.00  0.00     0.016 C 
BRANCH  29  31
HETATM   31  C   UNL     1      -1.107  12.048  23.638  0.00  0.00     0.006 C 
HETATM   32  C   UNL     1      -2.604  11.815  23.796  0.00  0.00     0.006 C 
ENDBRANCH  29  31
ENDBRANCH   1  29
TORSDOF 6
ENDMDL
MODEL 5
REMARK VINA RESULT:    -6.509      4.376     10.502
REMARK INTER + INTRA:          -9.678
REMARK INTER:                  -8.602
REMARK INTRA:                  -1.076
REMARK UNBOUND:                -1.076
REMARK  6 active torsions:
REMARK  status: ('A' for Active; 'I' for Inactive)
REMARK    1  A    between atoms: C_2  and  C_3 
REMARK    2  A    between atoms: C_3  and  C_5 
REMARK    3  A    between atoms: C_12  and  C_16 
REMARK    4  A    between atoms: C_13  and  O_15 
REMARK       I    between atoms: C_16  and  N_18 
REMARK    5  A    between atoms: N_18  and  C_20 
REMARK    6  A    between atoms: C_23  and  N_26 
ROOT
HETATM    1  C   UNL     1       4.563   6.027  22.566  0.00  0.00     0.071 A 
HETATM    2  N   UNL     1       5.747   6.601  22.838  0.00  0.00    -0.178 NA
HETATM    3  N   UNL     1       6.244   6.904  21.631  0.00  0.00    -0.277 N 
HETATM    4  H   UNL     1       7.160   7.334  21.591  0.00  0.00     0.189 HD
HETATM    5  C   UNL     1       4.300   6.013  21.160  0.00  0.00     0.020 A 
HETATM    6  C   UNL     1       5.430   6.572  20.585  0.00  0.00     0.065 A 
HETATM    7  C   UNL     1       3.248   5.610  20.309  0.00  0.00     0.035 C 
HETATM    8  C   UNL     1       3.361   5.744  18.901  0.00  0.00     0.066 C 
HETATM    9  C   UNL     1       4.577   6.195  18.380  0.00  0.00     0.083 C 
HETATM   10  C   UNL     1       5.604   6.681  19.203  0.00  0.00     0.069 C 
ENDROOT
BRANCH   8  11
HETATM   11  C   UNL     1       2.170   5.274  18.120  0.00  0.00     0.260 C 
HETATM   12  O   UNL     1       1.285   6.130  18.006  0.00  0.00    -0.267 OA
HETATM   13  N   UNL     1       2.071   3.983  17.546  0.00  0.00    -0.318 N 
HETATM   14  C   UNL     1       2.989   2.874  17.811  0.00  0.00     0.159 C 
BRANCH  13  15
HETATM   15  C   UNL     1       0.987   3.694  16.630  0.00  0.00     0.037 A 
HETATM   16  C   UNL     1       0.998   4.185  15.324  0.00  0.00     0.032 A 
HETATM   17  C   UNL     1      -0.062   3.935  14.439  0.00  0.00     0.031 A 
HETATM   18  C   UNL     1      -1.192   3.197  14.811  0.00  0.00     0.030 A 
HETATM   19  C   UNL     1      -1.162   2.652  16.102  0.00  0.00     0.031 A 
HETATM   20  C   UNL     1      -0.094   2.885  16.993  0.00  0.00     0.032 A 
BRANCH  18  21
HETATM   21  N   UNL     1      -2.285   3.070  13.981  0.00  0.00    -0.377 N 
HETATM   22  C   UNL     1      -3.269   1.980  14.078  0.00  0.00     0.149 C 
HETATM   23  C   UNL     1      -4.690   2.555  13.942  0.00  0.00     0.187 C 
HETATM   24  O   UNL     1      -4.845   3.315  12.731  0.00  0.00    -0.388 OA
HETATM   25  C   UNL     1      -3.906   4.403  12.707  0.00  0.00     0.187 C 
HETATM   26  C   UNL     1      -2.455   3.901  12.774  0.00  0.00     0.149 C 
ENDBRANCH  18  21
ENDBRANCH  13  15
ENDBRANCH   8  11
BRANCH   9  27
HETATM   27  O   UNL     1       4.907   6.125  17.054  0.00  0.00    -0.360 OA
HETATM   28  H   UNL     1       4.182   5.657  16.600  0.00  0.00     0.217 HD
ENDBRANCH   9  27
BRANCH   1  29
HETATM   29  C   UNL     1       3.682   5.520  23.687  0.00  0.00     0.036 C 
HETATM   30  C   UNL     1       2.358   6.305  23.793  0.00  0.00     0.016 C 
BRANCH  29  31
HETATM   31  C   UNL     1       3.359   4.019  23.549  0.00  0.00     0.006 C 
HETATM   32  C   UNL     1       4.586   3.130  23.400  0.00  0.00     0.006 C 
ENDBRANCH  29  31
ENDBRANCH   1  29
TORSDOF 6
ENDMDL
MODEL 6
REMARK VINA RESULT:    -6.455      2.422     10.163
REMARK INTER + INTRA:          -9.607
REMARK INTER:                  -9.258
REMARK INTRA:                  -0.348
REMARK UNBOUND:                -1.076
REMARK  6 active torsions:
REMARK  status: ('A' for Active; 'I' for Inactive)
REMARK    1  A    between atoms: C_2  and  C_3 
REMARK    2  A    between atoms: C_3  and  C_5 
REMARK    3  A    between atoms: C_12  and  C_16 
REMARK    4  A    between atoms: C_13  and  O_15 
REMARK       I    between atoms: C_16  and  N_18 
REMARK    5  A    between atoms: N_18  and  C_20 
REMARK    6  A    between atoms: C_23  and  N_26 
ROOT
HETATM    1  C   UNL     1       2.052   7.350  30.903  0.00  0.00     0.071 A 
HETATM    2  N   UNL     1       1.328   7.849  31.919  0.00  0.00    -0.178 NA
HETATM    3  N   UNL     1       0.396   8.599  31.315  0.00  0.00    -0.277 N 
HETATM    4  H   UNL     1      -0.261   9.100  31.900  0.00  0.00     0.189 HD
HETATM    5  C   UNL     1       1.530   7.764  29.637  0.00  0.00     0.020 A 
HETATM    6  C   UNL     1       0.467   8.596  29.950  0.00  0.00     0.065 A 
HETATM    7  C   UNL     1       1.817   7.531  28.275  0.00  0.00     0.035 C 
HETATM    8  C   UNL     1       1.056   8.158  27.255  0.00  0.00     0.066 C 
HETATM    9  C   UNL     1       0.082   9.085  27.638  0.00  0.00     0.083 C 
HETATM   10  C   UNL     1      -0.280   9.270  28.981  0.00  0.00     0.069 C 
ENDROOT
BRANCH   8  11
HETATM   11  C   UNL     1       1.472   7.823  25.854  0.00  0.00     0.260 C 
HETATM   12  O   UNL     1       0.569   7.966  25.022  0.00  0.00    -0.267 OA
HETATM   13  N   UNL     1       2.780   7.403  25.505  0.00  0.00    -0.318 N 
HETATM   14  C   UNL     1       3.824   7.029  26.460  0.00  0.00     0.159 C 
BRANCH  13  15
HETATM   15  C   UNL     1       3.147   7.312  24.107  0.00  0.00     0.037 A 
HETATM   16  C   UNL     1       3.712   8.400  23.440  0.00  0.00     0.032 A 
HETATM   17  C   UNL     1       4.044   8.331  22.077  0.00  0.00     0.031 A 
HETATM   18  C   UNL     1       3.819   7.183  21.308  0.00  0.00     0.030 A 
HETATM   19  C   UNL     1       3.315   6.076  22.003  0.00  0.00     0.031 A 
HETATM   20  C   UNL     1       2.993   6.131  23.375  0.00  0.00     0.032 A 
BRANCH  18  21
HETATM   21  N   UNL     1       4.024   7.169  19.945  0.00  0.00    -0.377 N 
HETATM   22  C   UNL     1       5.045   6.347  19.275  0.00  0.00     0.149 C 
HETATM   23  C   UNL     1       4.438   5.691  18.022  0.00  0.00     0.187 C 
HETATM   24  O   UNL     1       3.864   6.666  17.135  0.00  0.00    -0.388 OA
HETATM   25  C   UNL     1       2.832   7.403  17.811  0.00  0.00     0.187 C 
HETATM   26  C   UNL     1       3.378   8.142  19.044  0.00  0.00     0.149 C 
ENDBRANCH  18  21
ENDBRANCH  13  15
ENDBRANCH   8  11
BRANCH   9  27
HETATM   27  O   UNL     1      -0.535   9.941  26.767  0.00  0.00    -0.360 OA
HETATM   28  H   UNL     1      -0.006  10.760  26.744  0.00  0.00     0.217 HD
ENDBRANCH   9  27
BRANCH   1  29
HETATM   29  C   UNL     1       3.234   6.447  31.177  0.00  0.00     0.036 C 
HETATM   30  C   UNL     1       2.986   4.998  30.710  0.00  0.00     0.016 C 
BRANCH  29  31
HETATM   31  C   UNL     1       4.532   6.963  30.524  0.00  0.00     0.006 C 
HETATM   32  C   UNL     1       5.342   5.886  29.814  0.00  0.00     0.006 C 
ENDBRANCH  29  31
ENDBRANCH   1  29
TORSDOF 6
ENDMDL
MODEL 7
REMARK VINA RESULT:    -6.444      3.195      5.380
REMARK INTER + INTRA:          -9.592
REMARK INTER:                  -8.435
REMARK INTRA:                  -1.157
REMARK UNBOUND:                -1.076
REMARK  6 active torsions:
REMARK  status: ('A' for Active; 'I' for Inactive)
REMARK    1  A    between atoms: C_2  and  C_3 
REMARK    2  A    between atoms: C_3  and  C_5 
REMARK    3  A    between atoms: C_12  and  C_16 
REMARK    4  A    between atoms: C_13  and  O_15 
REMARK       I    between atoms: C_16  and  N_18 
REMARK    5  A    between atoms: N_18  and  C_20 
REMARK    6  A    between atoms: C_23  and  N_26 
ROOT
HETATM    1  C   UNL     1       1.228   2.756  14.729  0.00  0.00     0.071 A 
HETATM    2  N   UNL     1       0.870   3.065  13.471  0.00  0.00    -0.178 NA
HETATM    3  N   UNL     1       0.774   4.401  13.480  0.00  0.00    -0.277 N 
HETATM    4  H   UNL     1       0.489   4.861  12.624  0.00  0.00     0.189 HD
HETATM    5  C   UNL     1       1.401   3.931  15.526  0.00  0.00     0.020 A 
HETATM    6  C   UNL     1       1.072   4.980  14.682  0.00  0.00     0.065 A 
HETATM    7  C   UNL     1       1.803   4.236  16.844  0.00  0.00     0.035 C 
HETATM    8  C   UNL     1       1.837   5.579  17.301  0.00  0.00     0.066 C 
HETATM    9  C   UNL     1       1.371   6.577  16.440  0.00  0.00     0.083 C 
HETATM   10  C   UNL     1       1.048   6.313  15.100  0.00  0.00     0.069 C 
ENDROOT
BRANCH   8  11
HETATM   11  C   UNL     1       2.280   5.757  18.722  0.00  0.00     0.260 C 
HETATM   12  O   UNL     1       1.366   5.630  19.544  0.00  0.00    -0.267 OA
HETATM   13  N   UNL     1       3.621   6.021  19.096  0.00  0.00    -0.318 N 
HETATM   14  C   UNL     1       4.697   6.373  18.169  0.00  0.00     0.159 C 
BRANCH  13  15
HETATM   15  C   UNL     1       3.993   5.961  20.495  0.00  0.00     0.037 A 
HETATM   16  C   UNL     1       4.406   4.762  21.078  0.00  0.00     0.032 A 
HETATM   17  C   UNL     1       4.740   4.687  22.439  0.00  0.00     0.031 A 
HETATM   18  C   UNL     1       4.667   5.796  23.291  0.00  0.00     0.030 A 
HETATM   19  C   UNL     1       4.317   7.008  22.682  0.00  0.00     0.031 A 
HETATM   20  C   UNL     1       3.994   7.096  21.311  0.00  0.00     0.032 A 
BRANCH  18  21
HETATM   21  N   UNL     1       4.868   5.683  24.651  0.00  0.00    -0.377 N 
HETATM   22  C   UNL     1       4.716   6.798  25.599  0.00  0.00     0.149 C 
HETATM   23  C   UNL     1       3.951   6.316  26.844  0.00  0.00     0.187 C 
HETATM   24  O   UNL     1       4.583   5.175  27.450  0.00  0.00    -0.388 OA
HETATM   25  C   UNL     1       4.656   4.091  26.508  0.00  0.00     0.187 C 
HETATM   26  C   UNL     1       5.464   4.480  25.259  0.00  0.00     0.149 C 
ENDBRANCH  18  21
ENDBRANCH  13  15
ENDBRANCH   8  11
BRANCH   9  27
HETATM   27  O   UNL     1       1.108   7.860  16.837  0.00  0.00    -0.360 OA
HETATM   28  H   UNL     1       0.510   8.251  16.173  0.00  0.00     0.217 HD
ENDBRANCH   9  27
BRANCH   1  29
HETATM   29  C   UNL     1       1.426   1.313  15.137  0.00  0.00     0.036 C 
HETATM   30  C   UNL     1       2.861   1.034  15.630  0.00  0.00     0.016 C 
BRANCH  29  31
HETATM   31  C   UNL     1       0.432   0.868  16.228  0.00  0.00     0.006 C 
HETATM   32  C   UNL     1       1.068   0.635  17.592  0.00  0.00     0.006 C 
ENDBRANCH  29  31
ENDBRANCH   1  29
TORSDOF 6
ENDMDL
MODEL 8
REMARK VINA RESULT:    -6.424      2.351      9.485
REMARK INTER + INTRA:          -9.565
REMARK INTER:                  -9.303
REMARK INTRA:                  -0.263
REMARK UNBOUND:                -1.076
REMARK  6 active torsions:
REMARK  status: ('A' for Active; 'I' for Inactive)
REMARK    1  A    between atoms: C_2  and  C_3 
REMARK    2  A    between atoms: C_3  and  C_5 
REMARK    3  A    between atoms: C_12  and  C_16 
REMARK    4  A    between atoms: C_13  and  O_15 
REMARK       I    between atoms: C_16  and  N_18 
REMARK    5  A    between atoms: N_18  and  C_20 
REMARK    6  A    between atoms: C_23  and  N_26 
ROOT
HETATM    1  C   UNL     1       0.955   8.720  27.855  0.00  0.00     0.071 A 
HETATM    2  N   UNL     1       1.385   8.946  29.107  0.00  0.00    -0.178 NA
HETATM    3  N   UNL     1       2.578   8.338  29.155  0.00  0.00    -0.277 N 
HETATM    4  H   UNL     1       3.086   8.360  30.030  0.00  0.00     0.189 HD
HETATM    5  C   UNL     1       1.923   7.994  27.093  0.00  0.00     0.020 A 
HETATM    6  C   UNL     1       2.956   7.743  27.984  0.00  0.00     0.065 A 
HETATM    7  C   UNL     1       2.058   7.529  25.767  0.00  0.00     0.035 C 
HETATM    8  C   UNL     1       3.207   6.797  25.367  0.00  0.00     0.066 C 
HETATM    9  C   UNL     1       4.149   6.469  26.346  0.00  0.00     0.083 C 
HETATM   10  C   UNL     1       4.082   6.988  27.648  0.00  0.00     0.069 C 
ENDROOT
BRANCH   8  11
HETATM   11  C   UNL     1       3.217   6.364  23.932  0.00  0.00     0.260 C 
HETATM   12  O   UNL     1       2.901   5.180  23.771  0.00  0.00    -0.267 OA
HETATM   13  N   UNL     1       3.534   7.229  22.856  0.00  0.00    -0.318 N 
HETATM   14  C   UNL     1       4.099   8.572  22.997  0.00  0.00     0.159 C 
BRANCH  13  15
HETATM   15  C   UNL     1       3.307   6.785  21.497  0.00  0.00     0.037 A 
HETATM   16  C   UNL     1       3.631   7.599  20.410  0.00  0.00     0.032 A 
HETATM   17  C   UNL     1       3.386   7.188  19.090  0.00  0.00     0.031 A 
HETATM   18  C   UNL     1       2.796   5.956  18.784  0.00  0.00     0.030 A 
HETATM   19  C   UNL     1       2.537   5.120  19.878  0.00  0.00     0.031 A 
HETATM   20  C   UNL     1       2.793   5.517  21.207  0.00  0.00     0.032 A 
BRANCH  18  21
HETATM   21  N   UNL     1       2.439   5.620  17.496  0.00  0.00    -0.377 N 
HETATM   22  C   UNL     1       2.148   4.246  17.055  0.00  0.00     0.149 C 
HETATM   23  C   UNL     1       0.891   4.244  16.168  0.00  0.00     0.187 C 
HETATM   24  O   UNL     1       1.019   5.151  15.059  0.00  0.00    -0.388 OA
HETATM   25  C   UNL     1       1.241   6.488  15.536  0.00  0.00     0.187 C 
HETATM   26  C   UNL     1       2.521   6.582  16.382  0.00  0.00     0.149 C 
ENDBRANCH  18  21
ENDBRANCH  13  15
ENDBRANCH   8  11
BRANCH   9  27
HETATM   27  O   UNL     1       5.155   5.561  26.156  0.00  0.00    -0.360 OA
HETATM   28  H   UNL     1       5.618   5.461  27.009  0.00  0.00     0.217 HD
ENDBRANCH   9  27
BRANCH   1  29
HETATM   29  C   UNL     1      -0.391   9.242  27.401  0.00  0.00     0.036 C 
HETATM   30  C   UNL     1      -1.163   9.941  28.539  0.00  0.00     0.016 C 
BRANCH  29  31
HETATM   31  C   UNL     1      -0.274  10.215  26.211  0.00  0.00     0.006 C 
HETATM   32  C   UNL     1      -0.898   9.698  24.922  0.00  0.00     0.006 C 
ENDBRANCH  29  31
ENDBRANCH   1  29
TORSDOF 6
ENDMDL
