MODEL 1
REMARK VINA RESULT:   -10.775      0.000      0.000
REMARK INTER + INTRA:         -14.590
REMARK INTER:                 -13.379
REMARK INTRA:                  -1.211
REMARK UNBOUND:                -0.351
REMARK  6 active torsions:
REMARK  status: ('A' for Active; 'I' for Inactive)
REMARK    1  A    between atoms: C_7  and  C_8 
REMARK    2  A    between atoms: C_8  and  N_9 
REMARK       I    between atoms: N_9  and  C_11 
REMARK    3  A    between atoms: C_11  and  C_13 
REMARK    4  A    between atoms: C_15  and  O_16 
REMARK    5  A    between atoms: C_23  and  C_24 
REMARK    6  A    between atoms: C_24  and  C_25 
ROOT
HETATM    1  C   UNL     1       4.587   9.213  23.008  0.00  0.00     0.066 C 
HETATM    2  C   UNL     1       5.066  10.012  24.087  0.00  0.00     0.035 C 
HETATM    3  C   UNL     1       5.221   9.395  21.774  0.00  0.00     0.083 C 
HETATM    4  C   UNL     1       6.392  10.157  21.616  0.00  0.00     0.069 C 
HETATM    5  C   UNL     1       6.831  10.893  22.715  0.00  0.00     0.065 A 
HETATM    6  C   UNL     1       6.167  10.892  23.932  0.00  0.00     0.020 A 
HETATM    7  N   UNL     1       7.873  11.766  22.863  0.00  0.00    -0.277 N 
HETATM    8  H   UNL     1       8.588  11.996  22.184  0.00  0.00     0.189 HD
HETATM    9  N   UNL     1       7.854  12.440  24.012  0.00  0.00    -0.178 NA
HETATM   10  C   UNL     1       6.809  11.929  24.685  0.00  0.00     0.071 A 
ENDROOT
BRANCH   1  11
HETATM   11  C   UNL     1       3.363   8.369  23.325  0.00  0.00     0.256 C 
HETATM   12  N   UNL     1       2.117   8.847  23.779  0.00  0.00    -0.348 N 
HETATM   13  C   UNL     1       1.828  10.199  24.216  0.00  0.00     0.153 C 
HETATM   14  O   UNL     1       3.499   7.158  23.114  0.00  0.00    -0.267 OA
BRANCH  12  15
HETATM   15  C   UNL     1       1.069   7.864  24.095  0.00  0.00     0.164 C 
BRANCH  15  16
HETATM   16  C   UNL     1       0.860   7.573  25.575  0.00  0.00    -0.040 A 
HETATM   17  C   UNL     1      -0.378   7.845  26.188  0.00  0.00     0.010 A 
HETATM   18  C   UNL     1      -0.519   7.788  27.581  0.00  0.00     0.024 A 
HETATM   19  C   UNL     1       0.579   7.462  28.373  0.00  0.00     0.034 A 
HETATM   20 CL   UNL     1       0.438   7.502  30.089  0.00  0.00    -0.084 Cl
HETATM   21  C   UNL     1       1.798   7.139  27.781  0.00  0.00     0.024 A 
HETATM   22  C   UNL     1       1.937   7.194  26.390  0.00  0.00     0.010 A 
ENDBRANCH  15  16
ENDBRANCH  12  15
ENDBRANCH   1  11
BRANCH   3  23
HETATM   23  O   UNL     1       4.692   8.958  20.594  0.00  0.00    -0.360 OA
HETATM   24  H   UNL     1       5.083   8.079  20.433  0.00  0.00     0.217 HD
ENDBRANCH   3  23
BRANCH  10  25
HETATM   25  C   UNL     1       6.346  12.588  25.943  0.00  0.00     0.100 C 
BRANCH  25  26
HETATM   26  C   UNL     1       5.372  13.682  25.592  0.00  0.00    -0.052 A 
HETATM   27  C   UNL     1       5.768  15.028  25.592  0.00  0.00     0.007 A 
HETATM   28  C   UNL     1       4.896  16.024  25.149  0.00  0.00     0.001 A 
HETATM   29  C   UNL     1       3.609  15.689  24.727  0.00  0.00     0.007 A 
HETATM   30  C   UNL     1       3.179  14.359  24.764  0.00  0.00    -0.061 A 
HETATM   31  C   UNL     1       4.068  13.361  25.187  0.00  0.00     0.014 A 
HETATM   32  C   UNL     1       1.781  13.981  24.379  0.00  0.00     0.048 C 
ENDBRANCH  25  26
ENDBRANCH  10  25
TORSDOF 6
ENDMDL
MODEL 2
REMARK VINA RESULT:   -10.740      3.312      5.267
REMARK INTER + INTRA:         -14.544
REMARK INTER:                 -13.781
REMARK INTRA:                  -0.763
REMARK UNBOUND:                -0.351
REMARK  6 active torsions:
REMARK  status: ('A' for Active; 'I' for Inactive)
REMARK    1  A    between atoms: C_7  and  C_8 
REMARK    2  A    between atoms: C_8  and  N_9 
REMARK       I    between atoms: N_9  and  C_11 
REMARK    3  A    between atoms: C_11  and  C_13 
REMARK    4  A    between atoms: C_15  and  O_16 
REMARK    5  A    between atoms: C_23  and  C_24 
REMARK    6  A    between atoms: C_24  and  C_25 
ROOT
HETATM    1  C   UNL     1      -0.801  10.914  25.620  0.00  0.00     0.066 C 
HETATM    2  C   UNL     1       0.395  11.681  25.496  0.00  0.00     0.035 C 
HETATM    3  C   UNL     1      -1.768  11.110  24.627  0.00  0.00     0.083 C 
HETATM    4  C   UNL     1      -1.528  11.851  23.457  0.00  0.00     0.069 C 
HETATM    5  C   UNL     1      -0.328  12.555  23.378  0.00  0.00     0.065 A 
HETATM    6  C   UNL     1       0.618  12.542  24.392  0.00  0.00     0.020 A 
HETATM    7  N   UNL     1       0.164  13.404  22.425  0.00  0.00    -0.277 N 
HETATM    8  H   UNL     1      -0.249  13.635  21.530  0.00  0.00     0.189 HD
HETATM    9  N   UNL     1       1.265  14.055  22.798  0.00  0.00    -0.178 NA
HETATM   10  C   UNL     1       1.561  13.550  24.008  0.00  0.00     0.071 A 
ENDROOT
BRANCH   1  11
HETATM   11  C   UNL     1      -0.908  10.088  26.891  0.00  0.00     0.256 C 
HETATM   12  N   UNL     1      -0.606   8.716  27.021  0.00  0.00    -0.348 N 
HETATM   13  C   UNL     1      -0.327   7.797  25.935  0.00  0.00     0.153 C 
HETATM   14  O   UNL     1      -1.259  10.720  27.894  0.00  0.00    -0.267 OA
BRANCH  12  15
HETATM   15  C   UNL     1      -0.835   8.074  28.324  0.00  0.00     0.164 C 
BRANCH  15  16
HETATM   16  C   UNL     1       0.417   7.709  29.111  0.00  0.00    -0.040 A 
HETATM   17  C   UNL     1       1.654   7.566  28.455  0.00  0.00     0.010 A 
HETATM   18  C   UNL     1       2.762   7.024  29.121  0.00  0.00     0.024 A 
HETATM   19  C   UNL     1       2.639   6.618  30.448  0.00  0.00     0.034 A 
HETATM   20 CL   UNL     1       3.965   5.848  31.233  0.00  0.00    -0.084 Cl
HETATM   21  C   UNL     1       1.438   6.801  31.127  0.00  0.00     0.024 A 
HETATM   22  C   UNL     1       0.332   7.344  30.462  0.00  0.00     0.010 A 
ENDBRANCH  15  16
ENDBRANCH  12  15
ENDBRANCH   1  11
BRANCH   3  23
HETATM   23  O   UNL     1      -3.065  10.708  24.762  0.00  0.00    -0.360 OA
HETATM   24  H   UNL     1      -3.063  10.020  25.454  0.00  0.00     0.217 HD
ENDBRANCH   3  23
BRANCH  10  25
HETATM   25  C   UNL     1       2.626  14.192  24.837  0.00  0.00     0.100 C 
BRANCH  25  26
HETATM   26  C   UNL     1       3.970  13.692  24.376  0.00  0.00    -0.052 A 
HETATM   27  C   UNL     1       5.120  14.484  24.514  0.00  0.00     0.007 A 
HETATM   28  C   UNL     1       6.378  13.969  24.198  0.00  0.00     0.001 A 
HETATM   29  C   UNL     1       6.498  12.666  23.713  0.00  0.00     0.007 A 
HETATM   30  C   UNL     1       5.359  11.877  23.522  0.00  0.00    -0.061 A 
HETATM   31  C   UNL     1       4.102  12.393  23.865  0.00  0.00     0.014 A 
HETATM   32  C   UNL     1       5.455  10.500  22.940  0.00  0.00     0.048 C 
ENDBRANCH  25  26
ENDBRANCH  10  25
TORSDOF 6
ENDMDL
MODEL 3
REMARK VINA RESULT:   -10.555      3.385      4.979
REMARK INTER + INTRA:         -14.299
REMARK INTER:                 -13.191
REMARK INTRA:                  -1.109
REMARK UNBOUND:                -0.351
REMARK  6 active torsions:
REMARK  status: ('A' for Active; 'I' for Inactive)
REMARK    1  A    between atoms: C_7  and  C_8 
REMARK    2  A    between atoms: C_8  and  N_9 
REMARK       I    between atoms: N_9  and  C_11 
REMARK    3  A    between atoms: C_11  and  C_13 
REMARK    4  A    between atoms: C_15  and  O_16 
REMARK    5  A    between atoms: C_23  and  C_24 
REMARK    6  A    between atoms: C_24  and  C_25 
ROOT
HETATM    1  C   UNL     1      -0.482   9.971  25.751  0.00  0.00     0.066 C 
HETATM    2  C   UNL     1       0.782  10.110  25.105  0.00  0.00     0.035 C 
HETATM    3  C   UNL     1      -1.464  10.903  25.397  0.00  0.00     0.083 C 
HETATM    4  C   UNL     1      -1.317  11.806  24.329  0.00  0.00     0.069 C 
HETATM    5  C   UNL     1      -0.068  11.876  23.715  0.00  0.00     0.065 A 
HETATM    6  C   UNL     1       1.007  11.096  24.112  0.00  0.00     0.020 A 
HETATM    7  N   UNL     1       0.406  12.681  22.717  0.00  0.00    -0.277 N 
HETATM    8  H   UNL     1      -0.110  13.361  22.172  0.00  0.00     0.189 HD
HETATM    9  N   UNL     1       1.724  12.598  22.536  0.00  0.00    -0.178 NA
HETATM   10  C   UNL     1       2.120  11.637  23.389  0.00  0.00     0.071 A 
ENDROOT
BRANCH   1  11
HETATM   11  C   UNL     1      -0.540   8.904  26.832  0.00  0.00     0.256 C 
HETATM   12  N   UNL     1      -0.339   7.520  26.648  0.00  0.00    -0.348 N 
HETATM   13  C   UNL     1      -0.236   6.834  25.375  0.00  0.00     0.153 C 
HETATM   14  O   UNL     1      -0.745   9.332  27.973  0.00  0.00    -0.267 OA
BRANCH  12  15
HETATM   15  C   UNL     1      -0.500   6.634  27.810  0.00  0.00     0.164 C 
BRANCH  15  16
HETATM   16  C   UNL     1       0.739   6.449  28.677  0.00  0.00    -0.040 A 
HETATM   17  C   UNL     1       0.671   6.644  30.070  0.00  0.00     0.010 A 
HETATM   18  C   UNL     1       1.836   6.690  30.848  0.00  0.00     0.024 A 
HETATM   19  C   UNL     1       3.079   6.545  30.237  0.00  0.00     0.034 A 
HETATM   20 CL   UNL     1       4.516   6.714  31.172  0.00  0.00    -0.084 Cl
HETATM   21  C   UNL     1       3.162   6.299  28.869  0.00  0.00     0.024 A 
HETATM   22  C   UNL     1       1.999   6.251  28.093  0.00  0.00     0.010 A 
ENDBRANCH  15  16
ENDBRANCH  12  15
ENDBRANCH   1  11
BRANCH   3  23
HETATM   23  O   UNL     1      -2.596  11.108  26.133  0.00  0.00    -0.360 OA
HETATM   24  H   UNL     1      -2.414  10.732  27.015  0.00  0.00     0.217 HD
ENDBRANCH   3  23
BRANCH  10  25
HETATM   25  C   UNL     1       3.579  11.408  23.619  0.00  0.00     0.100 C 
BRANCH  25  26
HETATM   26  C   UNL     1       4.067  12.378  24.662  0.00  0.00    -0.052 A 
HETATM   27  C   UNL     1       4.488  11.929  25.923  0.00  0.00     0.007 A 
HETATM   28  C   UNL     1       5.052  12.818  26.841  0.00  0.00     0.001 A 
HETATM   29  C   UNL     1       5.177  14.169  26.518  0.00  0.00     0.007 A 
HETATM   30  C   UNL     1       4.720  14.645  25.285  0.00  0.00    -0.061 A 
HETATM   31  C   UNL     1       4.177  13.743  24.360  0.00  0.00     0.014 A 
HETATM   32  C   UNL     1       4.782  16.102  24.942  0.00  0.00     0.048 C 
ENDBRANCH  25  26
ENDBRANCH  10  25
TORSDOF 6
ENDMDL
MODEL 4
REMARK VINA RESULT:   -10.515      0.892      1.197
REMARK INTER + INTRA:         -14.246
REMARK INTER:                 -13.091
REMARK INTRA:                  -1.155
REMARK UNBOUND:                -0.351
REMARK  6 active torsions:
REMARK  status: ('A' for Active; 'I' for Inactive)
REMARK    1  A    between atoms: C_7  and  C_8 
REMARK    2  A    between atoms: C_8  and  N_9 
REMARK       I    between atoms: N_9  and  C_11 
REMARK    3  A    between atoms: C_11  and  C_13 
REMARK    4  A    between atoms: C_15  and  O_16 
REMARK    5  A    between atoms: C_23  and  C_24 
REMARK    6  A    between atoms: C_24  and  C_25 
ROOT
HETATM    1  C   UNL     1       4.550   9.332  22.972  0.00  0.00     0.066 C 
HETATM    2  C   UNL     1       5.047  10.110  24.060  0.00  0.00     0.035 C 
HETATM    3  C   UNL     1       5.210   9.488  21.748  0.00  0.00     0.083 C 
HETATM    4  C   UNL     1       6.416  10.199  21.610  0.00  0.00     0.069 C 
HETATM    5  C   UNL     1       6.868  10.915  22.716  0.00  0.00     0.065 A 
HETATM    6  C   UNL     1       6.186  10.942  23.923  0.00  0.00     0.020 A 
HETATM    7  N   UNL     1       7.945  11.742  22.880  0.00  0.00    -0.277 N 
HETATM    8  H   UNL     1       8.679  11.943  22.213  0.00  0.00     0.189 HD
HETATM    9  N   UNL     1       7.936  12.417  24.030  0.00  0.00    -0.178 NA
HETATM   10  C   UNL     1       6.860  11.951  24.686  0.00  0.00     0.071 A 
ENDROOT
BRANCH   1  11
HETATM   11  C   UNL     1       3.287   8.541  23.269  0.00  0.00     0.256 C 
HETATM   12  N   UNL     1       3.186   7.137  23.360  0.00  0.00    -0.348 N 
HETATM   13  C   UNL     1       4.213   6.181  22.995  0.00  0.00     0.153 C 
HETATM   14  O   UNL     1       2.282   9.228  23.486  0.00  0.00    -0.267 OA
BRANCH  12  15
HETATM   15  C   UNL     1       1.858   6.550  23.592  0.00  0.00     0.164 C 
BRANCH  15  16
HETATM   16  C   UNL     1       1.329   6.656  25.017  0.00  0.00    -0.040 A 
HETATM   17  C   UNL     1       0.015   7.098  25.258  0.00  0.00     0.010 A 
HETATM   18  C   UNL     1      -0.414   7.406  26.557  0.00  0.00     0.024 A 
HETATM   19  C   UNL     1       0.472   7.276  27.624  0.00  0.00     0.034 A 
HETATM   20 CL   UNL     1      -0.015   7.761  29.203  0.00  0.00    -0.084 Cl
HETATM   21  C   UNL     1       1.759   6.790  27.410  0.00  0.00     0.024 A 
HETATM   22  C   UNL     1       2.185   6.481  26.114  0.00  0.00     0.010 A 
ENDBRANCH  15  16
ENDBRANCH  12  15
ENDBRANCH   1  11
BRANCH   3  23
HETATM   23  O   UNL     1       4.682   9.074  20.560  0.00  0.00    -0.360 OA
HETATM   24  H   UNL     1       4.102   8.318  20.772  0.00  0.00     0.217 HD
ENDBRANCH   3  23
BRANCH  10  25
HETATM   25  C   UNL     1       6.406  12.629  25.938  0.00  0.00     0.100 C 
BRANCH  25  26
HETATM   26  C   UNL     1       5.434  13.721  25.577  0.00  0.00    -0.052 A 
HETATM   27  C   UNL     1       5.830  15.067  25.575  0.00  0.00     0.007 A 
HETATM   28  C   UNL     1       4.961  16.062  25.123  0.00  0.00     0.001 A 
HETATM   29  C   UNL     1       3.677  15.725  24.694  0.00  0.00     0.007 A 
HETATM   30  C   UNL     1       3.247  14.396  24.732  0.00  0.00    -0.061 A 
HETATM   31  C   UNL     1       4.133  13.400  25.165  0.00  0.00     0.014 A 
HETATM   32  C   UNL     1       1.851  14.017  24.340  0.00  0.00     0.048 C 
ENDBRANCH  25  26
ENDBRANCH  10  25
TORSDOF 6
ENDMDL
MODEL 5
REMARK VINA RESULT:   -10.438      2.669      3.517
REMARK INTER + INTRA:         -14.145
REMARK INTER:                 -13.022
REMARK INTRA:                  -1.123
REMARK UNBOUND:                -0.351
REMARK  6 active torsions:
REMARK  status: ('A' for Active; 'I' for Inactive)
REMARK    1  A    between atoms: C_7  and  C_8 
REMARK    2  A    between atoms: C_8  and  N_9 
REMARK       I    between atoms: N_9  and  C_11 
REMARK    3  A    between atoms: C_11  and  C_13 
REMARK    4  A    between atoms: C_15  and  O_16 
REMARK    5  A    between atoms: C_23  and  C_24 
REMARK    6  A    between atoms: C_24  and  C_25 
ROOT
HETATM    1  C   UNL     1       4.483   8.595  25.124  0.00  0.00     0.066 C 
HETATM    2  C   UNL     1       5.111   9.827  24.776  0.00  0.00     0.035 C 
HETATM    3  C   UNL     1       5.181   7.429  24.791  0.00  0.00     0.083 C 
HETATM    4  C   UNL     1       6.509   7.433  24.330  0.00  0.00     0.069 C 
HETATM    5  C   UNL     1       7.082   8.669  24.036  0.00  0.00     0.065 A 
HETATM    6  C   UNL     1       6.401   9.866  24.188  0.00  0.00     0.020 A 
HETATM    7  N   UNL     1       8.303   9.001  23.518  0.00  0.00    -0.277 N 
HETATM    8  H   UNL     1       9.074   8.380  23.304  0.00  0.00     0.189 HD
HETATM    9  N   UNL     1       8.416  10.285  23.180  0.00  0.00    -0.178 NA
HETATM   10  C   UNL     1       7.255  10.838  23.573  0.00  0.00     0.071 A 
ENDROOT
BRANCH   1  11
HETATM   11  C   UNL     1       3.079   8.725  25.691  0.00  0.00     0.256 C 
HETATM   12  N   UNL     1       1.889   8.278  25.079  0.00  0.00    -0.348 N 
HETATM   13  C   UNL     1       1.758   7.792  23.720  0.00  0.00     0.153 C 
HETATM   14  O   UNL     1       3.017   9.240  26.813  0.00  0.00    -0.267 OA
BRANCH  12  15
HETATM   15  C   UNL     1       0.614   8.553  25.757  0.00  0.00     0.164 C 
BRANCH  15  16
HETATM   16  C   UNL     1      -0.123   9.804  25.295  0.00  0.00    -0.040 A 
HETATM   17  C   UNL     1      -1.506   9.940  25.518  0.00  0.00     0.010 A 
HETATM   18  C   UNL     1      -2.234  10.975  24.915  0.00  0.00     0.024 A 
HETATM   19  C   UNL     1      -1.583  11.880  24.080  0.00  0.00     0.034 A 
HETATM   20 CL   UNL     1      -2.493  13.083  23.248  0.00  0.00    -0.084 Cl
HETATM   21  C   UNL     1      -0.206  11.792  23.890  0.00  0.00     0.024 A 
HETATM   22  C   UNL     1       0.520  10.760  24.495  0.00  0.00     0.010 A 
ENDBRANCH  15  16
ENDBRANCH  12  15
ENDBRANCH   1  11
BRANCH   3  23
HETATM   23  O   UNL     1       4.598   6.194  24.763  0.00  0.00    -0.360 OA
HETATM   24  H   UNL     1       5.327   5.555  24.656  0.00  0.00     0.217 HD
ENDBRANCH   3  23
BRANCH  10  25
HETATM   25  C   UNL     1       6.931  12.240  23.168  0.00  0.00     0.100 C 
BRANCH  25  26
HETATM   26  C   UNL     1       6.044  12.858  24.217  0.00  0.00    -0.052 A 
HETATM   27  C   UNL     1       6.498  13.033  25.533  0.00  0.00     0.007 A 
HETATM   28  C   UNL     1       5.717  13.716  26.468  0.00  0.00     0.001 A 
HETATM   29  C   UNL     1       4.463  14.206  26.106  0.00  0.00     0.007 A 
HETATM   30  C   UNL     1       3.972  14.001  24.812  0.00  0.00    -0.061 A 
HETATM   31  C   UNL     1       4.772  13.336  23.873  0.00  0.00     0.014 A 
HETATM   32  C   UNL     1       2.601  14.459  24.417  0.00  0.00     0.048 C 
ENDBRANCH  25  26
ENDBRANCH  10  25
TORSDOF 6
ENDMDL
MODEL 6
REMARK VINA RESULT:   -10.371      2.943      6.818
REMARK INTER + INTRA:         -14.056
REMARK INTER:                 -12.634
REMARK INTRA:                  -1.422
REMARK UNBOUND:                -0.351
REMARK  6 active torsions:
REMARK  status: ('A' for Active; 'I' for Inactive)
REMARK    1  A    between atoms: C_7  and  C_8 
REMARK    2  A    between atoms: C_8  and  N_9 
REMARK       I    between atoms: N_9  and  C_11 
REMARK    3  A    between atoms: C_11  and  C_13 
REMARK    4  A    between atoms: C_15  and  O_16 
REMARK    5  A    between atoms: C_23  and  C_24 
REMARK    6  A    between atoms: C_24  and  C_25 
ROOT
HETATM    1  C   UNL     1       3.234   7.902  23.460  0.00  0.00     0.066 C 
HETATM    2  C   UNL     1       2.164   8.571  24.124  0.00  0.00     0.035 C 
HETATM    3  C   UNL     1       3.201   6.503  23.488  0.00  0.00     0.083 C 
HETATM    4  C   UNL     1       2.095   5.769  23.952  0.00  0.00     0.069 C 
HETATM    5  C   UNL     1       1.064   6.481  24.564  0.00  0.00     0.065 A 
HETATM    6  C   UNL     1       1.093   7.858  24.719  0.00  0.00     0.020 A 
HETATM    7  N   UNL     1      -0.090   6.064  25.167  0.00  0.00    -0.277 N 
HETATM    8  H   UNL     1      -0.454   5.121  25.222  0.00  0.00     0.189 HD
HETATM    9  N   UNL     1      -0.733   7.027  25.827  0.00  0.00    -0.178 NA
HETATM   10  C   UNL     1      -0.021   8.139  25.577  0.00  0.00     0.071 A 
ENDROOT
BRANCH   1  11
HETATM   11  C   UNL     1       4.331   8.809  22.928  0.00  0.00     0.256 C 
HETATM   12  N   UNL     1       5.535   9.134  23.586  0.00  0.00    -0.348 N 
HETATM   13  C   UNL     1       5.866   8.826  24.964  0.00  0.00     0.153 C 
HETATM   14  O   UNL     1       4.131   9.255  21.792  0.00  0.00    -0.267 OA
BRANCH  12  15
HETATM   15  C   UNL     1       6.448  10.085  22.935  0.00  0.00     0.164 C 
BRANCH  15  16
HETATM   16  C   UNL     1       6.214  11.555  23.262  0.00  0.00    -0.040 A 
HETATM   17  C   UNL     1       7.303  12.428  23.440  0.00  0.00     0.010 A 
HETATM   18  C   UNL     1       7.113  13.720  23.949  0.00  0.00     0.024 A 
HETATM   19  C   UNL     1       5.831  14.147  24.287  0.00  0.00     0.034 A 
HETATM   20 CL   UNL     1       5.609  15.690  25.019  0.00  0.00    -0.084 Cl
HETATM   21  C   UNL     1       4.736  13.315  24.069  0.00  0.00     0.024 A 
HETATM   22  C   UNL     1       4.926  12.026  23.558  0.00  0.00     0.010 A 
ENDBRANCH  15  16
ENDBRANCH  12  15
ENDBRANCH   1  11
BRANCH   3  23
HETATM   23  O   UNL     1       4.283   5.727  23.187  0.00  0.00    -0.360 OA
HETATM   24  H   UNL     1       4.399   5.123  23.944  0.00  0.00     0.217 HD
ENDBRANCH   3  23
BRANCH  10  25
HETATM   25  C   UNL     1      -0.324   9.396  26.327  0.00  0.00     0.100 C 
BRANCH  25  26
HETATM   26  C   UNL     1      -0.628  10.492  25.340  0.00  0.00    -0.052 A 
HETATM   27  C   UNL     1      -1.905  10.620  24.775  0.00  0.00     0.007 A 
HETATM   28  C   UNL     1      -2.213  11.708  23.956  0.00  0.00     0.001 A 
HETATM   29  C   UNL     1      -1.239  12.666  23.671  0.00  0.00     0.007 A 
HETATM   30  C   UNL     1       0.054  12.531  24.186  0.00  0.00    -0.061 A 
HETATM   31  C   UNL     1       0.348  11.449  25.026  0.00  0.00     0.014 A 
HETATM   32  C   UNL     1       1.136  13.509  23.840  0.00  0.00     0.048 C 
ENDBRANCH  25  26
ENDBRANCH  10  25
TORSDOF 6
ENDMDL
MODEL 7
REMARK VINA RESULT:   -10.297      3.623      6.211
REMARK INTER + INTRA:         -13.958
REMARK INTER:                 -12.321
REMARK INTRA:                  -1.637
REMARK UNBOUND:                -0.351
REMARK  6 active torsions:
REMARK  status: ('A' for Active; 'I' for Inactive)
REMARK    1  A    between atoms: C_7  and  C_8 
REMARK    2  A    between atoms: C_8  and  N_9 
REMARK       I    between atoms: N_9  and  C_11 
REMARK    3  A    between atoms: C_11  and  C_13 
REMARK    4  A    between atoms: C_15  and  O_16 
REMARK    5  A    between atoms: C_23  and  C_24 
REMARK    6  A    between atoms: C_24  and  C_25 
ROOT
HETATM    1  C   UNL     1       0.519   9.493  25.834  0.00  0.00     0.066 C 
HETATM    2  C   UNL     1       0.658  10.262  24.641  0.00  0.00     0.035 C 
HETATM    3  C   UNL     1      -0.644   9.712  26.580  0.00  0.00     0.083 C 
HETATM    4  C   UNL     1      -1.725  10.481  26.111  0.00  0.00     0.069 C 
HETATM    5  C   UNL     1      -1.542  11.186  24.923  0.00  0.00     0.065 A 
HETATM    6  C   UNL     1      -0.358  11.148  24.203  0.00  0.00     0.020 A 
HETATM    7  N   UNL     1      -2.355  12.057  24.252  0.00  0.00    -0.277 N 
HETATM    8  H   UNL     1      -3.310  12.309  24.476  0.00  0.00     0.189 HD
HETATM    9  N   UNL     1      -1.752  12.698  23.252  0.00  0.00    -0.178 NA
HETATM   10  C   UNL     1      -0.519  12.165  23.206  0.00  0.00     0.071 A 
ENDROOT
BRANCH   1  11
HETATM   11  C   UNL     1       1.723   8.637  26.193  0.00  0.00     0.256 C 
HETATM   12  N   UNL     1       2.287   7.618  25.398  0.00  0.00    -0.348 N 
HETATM   13  C   UNL     1       1.715   7.064  24.187  0.00  0.00     0.153 C 
HETATM   14  O   UNL     1       2.255   8.916  27.274  0.00  0.00    -0.267 OA
BRANCH  12  15
HETATM   15  C   UNL     1       3.416   6.853  25.947  0.00  0.00     0.164 C 
BRANCH  15  16
HETATM   16  C   UNL     1       4.799   7.284  25.476  0.00  0.00    -0.040 A 
HETATM   17  C   UNL     1       5.028   8.608  25.055  0.00  0.00     0.010 A 
HETATM   18  C   UNL     1       6.226   8.963  24.420  0.00  0.00     0.024 A 
HETATM   19  C   UNL     1       7.202   7.995  24.197  0.00  0.00     0.034 A 
HETATM   20 CL   UNL     1       8.625   8.403  23.316  0.00  0.00    -0.084 Cl
HETATM   21  C   UNL     1       7.014   6.693  24.652  0.00  0.00     0.024 A 
HETATM   22  C   UNL     1       5.819   6.340  25.289  0.00  0.00     0.010 A 
ENDBRANCH  15  16
ENDBRANCH  12  15
ENDBRANCH   1  11
BRANCH   3  23
HETATM   23  O   UNL     1      -0.785   9.308  27.876  0.00  0.00    -0.360 OA
HETATM   24  H   UNL     1       0.045   8.849  28.106  0.00  0.00     0.217 HD
ENDBRANCH   3  23
BRANCH  10  25
HETATM   25  C   UNL     1       0.523  12.787  22.333  0.00  0.00     0.100 C 
BRANCH  25  26
HETATM   26  C   UNL     1       1.665  13.256  23.195  0.00  0.00    -0.052 A 
HETATM   27  C   UNL     1       1.497  14.313  24.103  0.00  0.00     0.007 A 
HETATM   28  C   UNL     1       2.523  14.662  24.983  0.00  0.00     0.001 A 
HETATM   29  C   UNL     1       3.737  13.977  24.948  0.00  0.00     0.007 A 
HETATM   30  C   UNL     1       3.942  12.953  24.019  0.00  0.00    -0.061 A 
HETATM   31  C   UNL     1       2.899  12.592  23.155  0.00  0.00     0.014 A 
HETATM   32  C   UNL     1       5.260  12.247  23.916  0.00  0.00     0.048 C 
ENDBRANCH  25  26
ENDBRANCH  10  25
TORSDOF 6
ENDMDL
MODEL 8
REMARK VINA RESULT:   -10.157      2.627      4.525
REMARK INTER + INTRA:         -13.773
REMARK INTER:                 -12.415
REMARK INTRA:                  -1.358
REMARK UNBOUND:                -0.351
REMARK  6 active torsions:
REMARK  status: ('A' for Active; 'I' for Inactive)
REMARK    1  A    between atoms: C_7  and  C_8 
REMARK    2  A    between atoms: C_8  and  N_9 
REMARK       I    between atoms: N_9  and  C_11 
REMARK    3  A    between atoms: C_11  and  C_13 
REMARK    4  A    between atoms: C_15  and  O_16 
REMARK    5  A    between atoms: C_23  and  C_24 
REMARK    6  A    between atoms: C_24  and  C_25 
ROOT
HETATM    1  C   UNL     1       0.338  10.572  24.577  0.00  0.00     0.066 C 
HETATM    2  C   UNL     1       1.617  11.166  24.793  0.00  0.00     0.035 C 
HETATM    3  C   UNL     1      -0.678  11.431  24.142  0.00  0.00     0.083 C 
HETATM    4  C   UNL     1      -0.442  12.756  23.737  0.00  0.00     0.069 C 
HETATM    5  C   UNL     1       0.835  13.273  23.943  0.00  0.00     0.065 A 
HETATM    6  C   UNL     1       1.859  12.535  24.517  0.00  0.00     0.020 A 
HETATM    7  N   UNL     1       1.354  14.519  23.726  0.00  0.00    -0.277 N 
HETATM    8  H   UNL     1       0.898  15.313  23.293  0.00  0.00     0.189 HD
HETATM    9  N   UNL     1       2.569  14.697  24.244  0.00  0.00    -0.178 NA
HETATM   10  C   UNL     1       2.899  13.494  24.745  0.00  0.00     0.071 A 
ENDROOT
BRANCH   1  11
HETATM   11  C   UNL     1       0.231   9.110  24.978  0.00  0.00     0.256 C 
HETATM   12  N   UNL     1      -0.357   8.611  26.159  0.00  0.00    -0.348 N 
HETATM   13  C   UNL     1      -0.788   9.399  27.297  0.00  0.00     0.153 C 
HETATM   14  O   UNL     1       0.675   8.310  24.147  0.00  0.00    -0.267 OA
BRANCH  12  15
HETATM   15  C   UNL     1      -0.307   7.162  26.401  0.00  0.00     0.164 C 
BRANCH  15  16
HETATM   16  C   UNL     1       0.623   6.710  27.520  0.00  0.00    -0.040 A 
HETATM   17  C   UNL     1       0.104   6.350  28.777  0.00  0.00     0.010 A 
HETATM   18  C   UNL     1       0.952   6.142  29.873  0.00  0.00     0.024 A 
HETATM   19  C   UNL     1       2.328   6.298  29.720  0.00  0.00     0.034 A 
HETATM   20 CL   UNL     1       3.362   6.156  31.090  0.00  0.00    -0.084 Cl
HETATM   21  C   UNL     1       2.863   6.603  28.471  0.00  0.00     0.024 A 
HETATM   22  C   UNL     1       2.015   6.808  27.377  0.00  0.00     0.010 A 
ENDBRANCH  15  16
ENDBRANCH  12  15
ENDBRANCH   1  11
BRANCH   3  23
HETATM   23  O   UNL     1      -2.002  11.103  24.192  0.00  0.00    -0.360 OA
HETATM   24  H   UNL     1      -2.383  11.394  23.343  0.00  0.00     0.217 HD
ENDBRANCH   3  23
BRANCH  10  25
HETATM   25  C   UNL     1       4.120  13.358  25.597  0.00  0.00     0.100 C 
BRANCH  25  26
HETATM   26  C   UNL     1       5.188  12.646  24.809  0.00  0.00    -0.052 A 
HETATM   27  C   UNL     1       6.112  13.364  24.034  0.00  0.00     0.007 A 
HETATM   28  C   UNL     1       7.172  12.707  23.405  0.00  0.00     0.001 A 
HETATM   29  C   UNL     1       7.303  11.324  23.520  0.00  0.00     0.007 A 
HETATM   30  C   UNL     1       6.366  10.584  24.248  0.00  0.00    -0.061 A 
HETATM   31  C   UNL     1       5.319  11.253  24.897  0.00  0.00     0.014 A 
HETATM   32  C   UNL     1       6.447   9.090  24.331  0.00  0.00     0.048 C 
ENDBRANCH  25  26
ENDBRANCH  10  25
TORSDOF 6
ENDMDL
MODEL 9
REMARK VINA RESULT:    -9.929      3.261      7.826
REMARK INTER + INTRA:         -13.472
REMARK INTER:                 -13.121
REMARK INTRA:                  -0.351
REMARK UNBOUND:                -0.351
REMARK  6 active torsions:
REMARK  status: ('A' for Active; 'I' for Inactive)
REMARK    1  A    between atoms: C_7  and  C_8 
REMARK    2  A    between atoms: C_8  and  N_9 
REMARK       I    between atoms: N_9  and  C_11 
REMARK    3  A    between atoms: C_11  and  C_13 
REMARK    4  A    between atoms: C_15  and  O_16 
REMARK    5  A    between atoms: C_23  and  C_24 
REMARK    6  A    between atoms: C_24  and  C_25 
ROOT
HETATM    1  C   UNL     1       1.305  12.475  23.675  0.00  0.00     0.066 C 
HETATM    2  C   UNL     1       0.902  11.817  24.874  0.00  0.00     0.035 C 
HETATM    3  C   UNL     1       0.302  12.699  22.725  0.00  0.00     0.083 C 
HETATM    4  C   UNL     1      -1.064  12.487  22.985  0.00  0.00     0.069 C 
HETATM    5  C   UNL     1      -1.400  11.868  24.188  0.00  0.00     0.065 A 
HETATM    6  C   UNL     1      -0.451  11.470  25.117  0.00  0.00     0.020 A 
HETATM    7  N   UNL     1      -2.606  11.471  24.696  0.00  0.00    -0.277 N 
HETATM    8  H   UNL     1      -3.525  11.621  24.298  0.00  0.00     0.189 HD
HETATM    9  N   UNL     1      -2.508  10.720  25.792  0.00  0.00    -0.178 NA
HETATM   10  C   UNL     1      -1.193  10.695  26.067  0.00  0.00     0.071 A 
ENDROOT
BRANCH   1  11
HETATM   11  C   UNL     1       2.798  12.723  23.546  0.00  0.00     0.256 C 
HETATM   12  N   UNL     1       3.575  13.572  24.361  0.00  0.00    -0.348 N 
HETATM   13  C   UNL     1       3.069  14.513  25.341  0.00  0.00     0.153 C 
HETATM   14  O   UNL     1       3.358  12.071  22.657  0.00  0.00    -0.267 OA
BRANCH  12  15
HETATM   15  C   UNL     1       5.001  13.732  24.038  0.00  0.00     0.164 C 
BRANCH  15  16
HETATM   16  C   UNL     1       5.837  12.460  24.091  0.00  0.00    -0.040 A 
HETATM   17  C   UNL     1       6.927  12.286  23.216  0.00  0.00     0.010 A 
HETATM   18  C   UNL     1       7.567  11.045  23.103  0.00  0.00     0.024 A 
HETATM   19  C   UNL     1       7.119   9.966  23.862  0.00  0.00     0.034 A 
HETATM   20 CL   UNL     1       7.830   8.412  23.642  0.00  0.00    -0.084 Cl
HETATM   21  C   UNL     1       6.077  10.133  24.770  0.00  0.00     0.024 A 
HETATM   22  C   UNL     1       5.440  11.374  24.884  0.00  0.00     0.010 A 
ENDBRANCH  15  16
ENDBRANCH  12  15
ENDBRANCH   1  11
BRANCH   3  23
HETATM   23  O   UNL     1       0.566  13.019  21.425  0.00  0.00    -0.360 OA
HETATM   24  H   UNL     1       1.136  13.810  21.454  0.00  0.00     0.217 HD
ENDBRANCH   3  23
BRANCH  10  25
HETATM   25  C   UNL     1      -0.675   9.770  27.121  0.00  0.00     0.100 C 
BRANCH  25  26
HETATM   26  C   UNL     1      -0.368   8.437  26.491  0.00  0.00    -0.052 A 
HETATM   27  C   UNL     1       0.289   8.357  25.255  0.00  0.00     0.007 A 
HETATM   28  C   UNL     1       0.678   7.120  24.736  0.00  0.00     0.001 A 
HETATM   29  C   UNL     1       0.390   5.948  25.435  0.00  0.00     0.007 A 
HETATM   30  C   UNL     1      -0.307   6.003  26.646  0.00  0.00    -0.061 A 
HETATM   31  C   UNL     1      -0.672   7.249  27.172  0.00  0.00     0.014 A 
HETATM   32  C   UNL     1      -0.688   4.754  27.382  0.00  0.00     0.048 C 
ENDBRANCH  25  26
ENDBRANCH  10  25
TORSDOF 6
ENDMDL
