MODEL 1
REMARK VINA RESULT:    -6.161      0.000      0.000
REMARK INTER + INTRA:          -8.840
REMARK INTER:                  -7.932
REMARK INTRA:                  -0.908
REMARK UNBOUND:                -0.879
REMARK  5 active torsions:
REMARK  status: ('A' for Active; 'I' for Inactive)
REMARK    1  A    between atoms: N8_1  and  C24_2 
REMARK    2  A    between atoms: N8_1  and  C7_8 
REMARK    3  A    between atoms: C2_13  and  N1_14 
REMARK    4  A    between atoms: N1_14  and  C17_15 
REMARK    5  A    between atoms: C14_16  and  C13_19 
ROOT
ATOM      1  C17 FTA A   1      -4.704  14.107  23.551  1.00  0.00     0.142 C 
ATOM      2  C14 FTA A   1      -5.485  14.988  24.207  1.00  0.00     0.158 C 
ATOM      3  C18 FTA A   1      -5.830  16.252  23.592  1.00  0.00     0.069 C 
ATOM      4  N21 FTA A   1      -5.978  17.253  22.999  1.00  0.00    -0.197 NA
ENDROOT
BRANCH   2   5
ATOM      5  C13 FTA A   1      -5.999  14.646  25.553  1.00  0.00     0.197 A 
ATOM      6  N15 FTA A   1      -7.281  14.189  25.852  1.00  0.00    -0.093 NA
ATOM      7  N19 FTA A   1      -7.358  14.034  27.230  1.00  0.00    -0.231 N 
ATOM      8  N20 FTA A   1      -6.144  14.391  27.797  1.00  0.00    -0.017 NA
ATOM      9  H15 FTA A   1      -8.186  13.707  27.749  1.00  0.00     0.200 HD
ATOM     10  N16 FTA A   1      -5.296  14.760  26.758  1.00  0.00    -0.090 NA
ENDBRANCH   2   5
BRANCH   1  11
ATOM     11  N1  FTA A   1      -3.607  13.626  24.166  1.00  0.00    -0.389 N 
ATOM     12  H11 FTA A   1      -3.478  13.859  25.162  1.00  0.00     0.159 HD
BRANCH  11  13
ATOM     13  C2  FTA A   1      -2.612  12.821  23.547  1.00  0.00     0.028 A 
ATOM     14  C4  FTA A   1      -1.634  12.155  24.282  1.00  0.00     0.031 A 
ATOM     15  C6  FTA A   1      -0.554  11.572  23.605  1.00  0.00     0.031 A 
ATOM     16  C7  FTA A   1      -0.426  11.638  22.220  1.00  0.00     0.032 A 
ATOM     17  C5  FTA A   1      -1.419  12.281  21.502  1.00  0.00     0.031 A 
ATOM     18  C3  FTA A   1      -2.490  12.877  22.156  1.00  0.00     0.031 A 
BRANCH  16  19
ATOM     19  N8  FTA A   1       0.752  11.243  21.536  1.00  0.00    -0.356 N 
ATOM     20  H1  FTA A   1       1.308  11.985  21.085  1.00  0.00     0.166 HD
BRANCH  19  21
ATOM     21  C24 FTA A   1       1.232   9.903  21.422  1.00  0.00     0.032 A 
ATOM     22  C26 FTA A   1       0.371   8.834  21.346  1.00  0.00     0.029 A 
ATOM     23  C28 FTA A   1       0.894   7.557  21.412  1.00  0.00     0.002 A 
ATOM     24  C30 FTA A   1       2.253   7.315  21.519  1.00  0.00     0.000 A 
ATOM     25  C29 FTA A   1       3.124   8.372  21.557  1.00  0.00     0.002 A 
ATOM     26  C27 FTA A   1       2.597   9.666  21.495  1.00  0.00     0.029 A 
ENDBRANCH  19  21
ENDBRANCH  16  19
ENDBRANCH  11  13
ENDBRANCH   1  11
TORSDOF 5
ENDMDL
MODEL 2
REMARK VINA RESULT:    -5.723     10.178     11.984
REMARK INTER + INTRA:          -8.275
REMARK INTER:                  -7.281
REMARK INTRA:                  -0.994
REMARK UNBOUND:                -0.879
REMARK  5 active torsions:
REMARK  status: ('A' for Active; 'I' for Inactive)
REMARK    1  A    between atoms: N8_1  and  C24_2 
REMARK    2  A    between atoms: N8_1  and  C7_8 
REMARK    3  A    between atoms: C2_13  and  N1_14 
REMARK    4  A    between atoms: N1_14  and  C17_15 
REMARK    5  A    between atoms: C14_16  and  C13_19 
ROOT
ATOM      1  C17 FTA A   1      -0.601  16.200  14.703  1.00  0.00     0.142 C 
ATOM      2  C14 FTA A   1       0.680  16.618  14.685  1.00  0.00     0.158 C 
ATOM      3  C18 FTA A   1       1.055  17.842  15.360  1.00  0.00     0.069 C 
ATOM      4  N21 FTA A   1       1.202  18.874  15.896  1.00  0.00    -0.197 NA
ENDROOT
BRANCH   2   5
ATOM      5  C13 FTA A   1       1.701  15.806  13.984  1.00  0.00     0.197 A 
ATOM      6  N15 FTA A   1       1.473  14.622  13.286  1.00  0.00    -0.093 NA
ATOM      7  N19 FTA A   1       2.701  14.166  12.824  1.00  0.00    -0.231 N 
ATOM      8  N20 FTA A   1       3.694  15.048  13.225  1.00  0.00    -0.017 NA
ATOM      9  H15 FTA A   1       2.851  13.310  12.271  1.00  0.00     0.200 HD
ATOM     10  N16 FTA A   1       3.074  16.071  13.935  1.00  0.00    -0.090 NA
ENDBRANCH   2   5
BRANCH   1  11
ATOM     11  N1  FTA A   1      -1.210  15.915  13.536  1.00  0.00    -0.389 N 
ATOM     12  H11 FTA A   1      -0.687  16.104  12.668  1.00  0.00     0.159 HD
BRANCH  11  13
ATOM     13  C2  FTA A   1      -2.519  15.375  13.409  1.00  0.00     0.028 A 
ATOM     14  C4  FTA A   1      -3.629  15.976  13.997  1.00  0.00     0.031 A 
ATOM     15  C6  FTA A   1      -4.843  15.276  14.031  1.00  0.00     0.031 A 
ATOM     16  C7  FTA A   1      -4.974  13.996  13.497  1.00  0.00     0.032 A 
ATOM     17  C5  FTA A   1      -3.869  13.423  12.895  1.00  0.00     0.031 A 
ATOM     18  C3  FTA A   1      -2.653  14.095  12.863  1.00  0.00     0.031 A 
BRANCH  16  19
ATOM     19  N8  FTA A   1      -6.124  13.191  13.704  1.00  0.00    -0.356 N 
ATOM     20  H1  FTA A   1      -7.043  13.638  13.573  1.00  0.00     0.166 HD
BRANCH  19  21
ATOM     21  C24 FTA A   1      -6.111  11.813  14.077  1.00  0.00     0.032 A 
ATOM     22  C26 FTA A   1      -5.606  11.399  15.287  1.00  0.00     0.029 A 
ATOM     23  C28 FTA A   1      -5.464  10.044  15.516  1.00  0.00     0.002 A 
ATOM     24  C30 FTA A   1      -5.840   9.089  14.587  1.00  0.00     0.000 A 
ATOM     25  C29 FTA A   1      -6.380   9.488  13.393  1.00  0.00     0.002 A 
ATOM     26  C27 FTA A   1      -6.522  10.860  13.156  1.00  0.00     0.029 A 
ENDBRANCH  19  21
ENDBRANCH  16  19
ENDBRANCH  11  13
ENDBRANCH   1  11
TORSDOF 5
ENDMDL
MODEL 3
REMARK VINA RESULT:    -5.618      9.913     11.223
REMARK INTER + INTRA:          -8.139
REMARK INTER:                  -7.068
REMARK INTRA:                  -1.071
REMARK UNBOUND:                -0.879
REMARK  5 active torsions:
REMARK  status: ('A' for Active; 'I' for Inactive)
REMARK    1  A    between atoms: N8_1  and  C24_2 
REMARK    2  A    between atoms: N8_1  and  C7_8 
REMARK    3  A    between atoms: C2_13  and  N1_14 
REMARK    4  A    between atoms: N1_14  and  C17_15 
REMARK    5  A    between atoms: C14_16  and  C13_19 
ROOT
ATOM      1  C17 FTA A   1      -3.803  15.852  13.896  1.00  0.00     0.142 C 
ATOM      2  C14 FTA A   1      -4.989  15.216  13.834  1.00  0.00     0.158 C 
ATOM      3  C18 FTA A   1      -6.188  15.861  14.325  1.00  0.00     0.069 C 
ATOM      4  N21 FTA A   1      -7.058  16.479  14.810  1.00  0.00    -0.197 NA
ENDROOT
BRANCH   2   5
ATOM      5  C13 FTA A   1      -5.057  13.859  13.244  1.00  0.00     0.197 A 
ATOM      6  N15 FTA A   1      -4.181  13.327  12.301  1.00  0.00    -0.093 NA
ATOM      7  N19 FTA A   1      -4.630  12.051  11.986  1.00  0.00    -0.231 N 
ATOM      8  N20 FTA A   1      -5.777  11.778  12.718  1.00  0.00    -0.017 NA
ATOM      9  H15 FTA A   1      -4.183  11.409  11.315  1.00  0.00     0.200 HD
ATOM     10  N16 FTA A   1      -6.037  12.894  13.507  1.00  0.00    -0.090 NA
ENDBRANCH   2   5
BRANCH   1  11
ATOM     11  N1  FTA A   1      -2.760  15.230  14.480  1.00  0.00    -0.389 N 
ATOM     12  H11 FTA A   1      -2.912  14.821  15.413  1.00  0.00     0.159 HD
BRANCH  11  13
ATOM     13  C2  FTA A   1      -1.466  15.096  13.907  1.00  0.00     0.028 A 
ATOM     14  C4  FTA A   1      -0.355  14.729  14.662  1.00  0.00     0.031 A 
ATOM     15  C6  FTA A   1       0.920  14.839  14.093  1.00  0.00     0.031 A 
ATOM     16  C7  FTA A   1       1.114  15.305  12.795  1.00  0.00     0.032 A 
ATOM     17  C5  FTA A   1      -0.001  15.642  12.049  1.00  0.00     0.031 A 
ATOM     18  C3  FTA A   1      -1.274  15.553  12.600  1.00  0.00     0.031 A 
BRANCH  16  19
ATOM     19  N8  FTA A   1       2.395  15.622  12.274  1.00  0.00    -0.356 N 
ATOM     20  H1  FTA A   1       2.432  16.266  11.471  1.00  0.00     0.166 HD
BRANCH  19  21
ATOM     21  C24 FTA A   1       3.636  15.121  12.771  1.00  0.00     0.032 A 
ATOM     22  C26 FTA A   1       4.466  15.895  13.548  1.00  0.00     0.029 A 
ATOM     23  C28 FTA A   1       5.726  15.415  13.852  1.00  0.00     0.002 A 
ATOM     24  C30 FTA A   1       6.170  14.174  13.429  1.00  0.00     0.000 A 
ATOM     25  C29 FTA A   1       5.339  13.378  12.687  1.00  0.00     0.002 A 
ATOM     26  C27 FTA A   1       4.064  13.862  12.374  1.00  0.00     0.029 A 
ENDBRANCH  19  21
ENDBRANCH  16  19
ENDBRANCH  11  13
ENDBRANCH   1  11
TORSDOF 5
ENDMDL
MODEL 4
REMARK VINA RESULT:    -5.589     10.144     11.603
REMARK INTER + INTRA:          -8.101
REMARK INTER:                  -7.167
REMARK INTRA:                  -0.934
REMARK UNBOUND:                -0.879
REMARK  5 active torsions:
REMARK  status: ('A' for Active; 'I' for Inactive)
REMARK    1  A    between atoms: N8_1  and  C24_2 
REMARK    2  A    between atoms: N8_1  and  C7_8 
REMARK    3  A    between atoms: C2_13  and  N1_14 
REMARK    4  A    between atoms: N1_14  and  C17_15 
REMARK    5  A    between atoms: C14_16  and  C13_19 
ROOT
ATOM      1  C17 FTA A   1       6.219  18.369  19.920  1.00  0.00     0.142 C 
ATOM      2  C14 FTA A   1       6.376  18.475  21.254  1.00  0.00     0.158 C 
ATOM      3  C18 FTA A   1       7.701  18.446  21.835  1.00  0.00     0.069 C 
ATOM      4  N21 FTA A   1       8.822  18.349  22.167  1.00  0.00    -0.197 NA
ENDROOT
BRANCH   2   5
ATOM      5  C13 FTA A   1       5.184  18.636  22.118  1.00  0.00     0.197 A 
ATOM      6  N15 FTA A   1       5.153  18.526  23.506  1.00  0.00    -0.093 NA
ATOM      7  N19 FTA A   1       3.836  18.702  23.910  1.00  0.00    -0.231 N 
ATOM      8  N20 FTA A   1       3.042  18.916  22.793  1.00  0.00    -0.017 NA
ATOM      9  H15 FTA A   1       3.502  18.676  24.884  1.00  0.00     0.200 HD
ATOM     10  N16 FTA A   1       3.878  18.887  21.681  1.00  0.00    -0.090 NA
ENDBRANCH   2   5
BRANCH   1  11
ATOM     11  N1  FTA A   1       5.382  17.432  19.434  1.00  0.00    -0.389 N 
ATOM     12  H11 FTA A   1       4.699  17.021  20.087  1.00  0.00     0.159 HD
BRANCH  11  13
ATOM     13  C2  FTA A   1       5.368  16.968  18.091  1.00  0.00     0.028 A 
ATOM     14  C4  FTA A   1       6.516  16.498  17.458  1.00  0.00     0.031 A 
ATOM     15  C6  FTA A   1       6.487  16.275  16.075  1.00  0.00     0.031 A 
ATOM     16  C7  FTA A   1       5.347  16.511  15.311  1.00  0.00     0.032 A 
ATOM     17  C5  FTA A   1       4.207  16.954  15.959  1.00  0.00     0.031 A 
ATOM     18  C3  FTA A   1       4.220  17.194  17.327  1.00  0.00     0.031 A 
BRANCH  16  19
ATOM     19  N8  FTA A   1       5.353  16.494  13.893  1.00  0.00    -0.356 N 
ATOM     20  H1  FTA A   1       5.378  17.404  13.410  1.00  0.00     0.166 HD
BRANCH  19  21
ATOM     21  C24 FTA A   1       5.329  15.321  13.080  1.00  0.00     0.032 A 
ATOM     22  C26 FTA A   1       4.148  14.703  12.742  1.00  0.00     0.029 A 
ATOM     23  C28 FTA A   1       4.201  13.479  12.101  1.00  0.00     0.002 A 
ATOM     24  C30 FTA A   1       5.397  12.870  11.760  1.00  0.00     0.000 A 
ATOM     25  C29 FTA A   1       6.579  13.494  12.057  1.00  0.00     0.002 A 
ATOM     26  C27 FTA A   1       6.529  14.731  12.709  1.00  0.00     0.029 A 
ENDBRANCH  19  21
ENDBRANCH  16  19
ENDBRANCH  11  13
ENDBRANCH   1  11
TORSDOF 5
ENDMDL
MODEL 5
REMARK VINA RESULT:    -5.505      9.845     11.990
REMARK INTER + INTRA:          -7.992
REMARK INTER:                  -7.095
REMARK INTRA:                  -0.897
REMARK UNBOUND:                -0.879
REMARK  5 active torsions:
REMARK  status: ('A' for Active; 'I' for Inactive)
REMARK    1  A    between atoms: N8_1  and  C24_2 
REMARK    2  A    between atoms: N8_1  and  C7_8 
REMARK    3  A    between atoms: C2_13  and  N1_14 
REMARK    4  A    between atoms: N1_14  and  C17_15 
REMARK    5  A    between atoms: C14_16  and  C13_19 
ROOT
ATOM      1  C17 FTA A   1       5.413  17.543  20.714  1.00  0.00     0.142 C 
ATOM      2  C14 FTA A   1       5.434  18.283  21.840  1.00  0.00     0.158 C 
ATOM      3  C18 FTA A   1       4.196  18.642  22.498  1.00  0.00     0.069 C 
ATOM      4  N21 FTA A   1       3.121  18.904  22.887  1.00  0.00    -0.197 NA
ENDROOT
BRANCH   2   5
ATOM      5  C13 FTA A   1       6.734  18.710  22.406  1.00  0.00     0.197 A 
ATOM      6  N15 FTA A   1       6.917  19.541  23.510  1.00  0.00    -0.093 NA
ATOM      7  N19 FTA A   1       8.284  19.724  23.672  1.00  0.00    -0.231 N 
ATOM      8  N20 FTA A   1       8.958  19.022  22.684  1.00  0.00    -0.017 NA
ATOM      9  H15 FTA A   1       8.727  20.292  24.409  1.00  0.00     0.200 HD
ATOM     10  N16 FTA A   1       7.999  18.384  21.904  1.00  0.00    -0.090 NA
ENDBRANCH   2   5
BRANCH   1  11
ATOM     11  N1  FTA A   1       6.068  17.993  19.627  1.00  0.00    -0.389 N 
ATOM     12  H11 FTA A   1       6.632  18.849  19.731  1.00  0.00     0.159 HD
BRANCH  11  13
ATOM     13  C2  FTA A   1       6.041  17.377  18.346  1.00  0.00     0.028 A 
ATOM     14  C4  FTA A   1       7.203  16.984  17.688  1.00  0.00     0.031 A 
ATOM     15  C6  FTA A   1       7.126  16.598  16.342  1.00  0.00     0.031 A 
ATOM     16  C7  FTA A   1       5.923  16.598  15.641  1.00  0.00     0.032 A 
ATOM     17  C5  FTA A   1       4.773  16.967  16.316  1.00  0.00     0.031 A 
ATOM     18  C3  FTA A   1       4.831  17.365  17.645  1.00  0.00     0.031 A 
BRANCH  16  19
ATOM     19  N8  FTA A   1       5.852  16.416  14.236  1.00  0.00    -0.356 N 
ATOM     20  H1  FTA A   1       6.193  17.186  13.642  1.00  0.00     0.166 HD
BRANCH  19  21
ATOM     21  C24 FTA A   1       5.347  15.255  13.577  1.00  0.00     0.032 A 
ATOM     22  C26 FTA A   1       6.164  14.197  13.254  1.00  0.00     0.029 A 
ATOM     23  C28 FTA A   1       5.654  13.182  12.467  1.00  0.00     0.002 A 
ATOM     24  C30 FTA A   1       4.344  13.177  12.019  1.00  0.00     0.000 A 
ATOM     25  C29 FTA A   1       3.509  14.206  12.366  1.00  0.00     0.002 A 
ATOM     26  C27 FTA A   1       4.024  15.237  13.160  1.00  0.00     0.029 A 
ENDBRANCH  19  21
ENDBRANCH  16  19
ENDBRANCH  11  13
ENDBRANCH   1  11
TORSDOF 5
ENDMDL
MODEL 6
REMARK VINA RESULT:    -5.455      9.544     10.837
REMARK INTER + INTRA:          -7.929
REMARK INTER:                  -6.868
REMARK INTRA:                  -1.061
REMARK UNBOUND:                -0.879
REMARK  5 active torsions:
REMARK  status: ('A' for Active; 'I' for Inactive)
REMARK    1  A    between atoms: N8_1  and  C24_2 
REMARK    2  A    between atoms: N8_1  and  C7_8 
REMARK    3  A    between atoms: C2_13  and  N1_14 
REMARK    4  A    between atoms: N1_14  and  C17_15 
REMARK    5  A    between atoms: C14_16  and  C13_19 
ROOT
ATOM      1  C17 FTA A   1       5.714  19.451  20.971  1.00  0.00     0.142 C 
ATOM      2  C14 FTA A   1       5.626  19.710  22.291  1.00  0.00     0.158 C 
ATOM      3  C18 FTA A   1       6.690  20.424  22.964  1.00  0.00     0.069 C 
ATOM      4  N21 FTA A   1       7.646  20.957  23.385  1.00  0.00    -0.197 NA
ENDROOT
BRANCH   2   5
ATOM      5  C13 FTA A   1       4.427  19.272  23.041  1.00  0.00     0.197 A 
ATOM      6  N15 FTA A   1       4.290  19.241  24.427  1.00  0.00    -0.093 NA
ATOM      7  N19 FTA A   1       3.032  18.724  24.711  1.00  0.00    -0.231 N 
ATOM      8  N20 FTA A   1       2.383  18.429  23.522  1.00  0.00    -0.017 NA
ATOM      9  H15 FTA A   1       2.644  18.582  25.655  1.00  0.00     0.200 HD
ATOM     10  N16 FTA A   1       3.241  18.778  22.484  1.00  0.00    -0.090 NA
ENDBRANCH   2   5
BRANCH   1  11
ATOM     11  N1  FTA A   1       5.553  18.184  20.544  1.00  0.00    -0.389 N 
ATOM     12  H11 FTA A   1       5.911  17.429  21.147  1.00  0.00     0.159 HD
BRANCH  11  13
ATOM     13  C2  FTA A   1       4.925  17.809  19.325  1.00  0.00     0.028 A 
ATOM     14  C4  FTA A   1       5.486  16.873  18.460  1.00  0.00     0.031 A 
ATOM     15  C6  FTA A   1       4.941  16.719  17.178  1.00  0.00     0.031 A 
ATOM     16  C7  FTA A   1       3.856  17.474  16.740  1.00  0.00     0.032 A 
ATOM     17  C5  FTA A   1       3.294  18.382  17.620  1.00  0.00     0.031 A 
ATOM     18  C3  FTA A   1       3.828  18.558  18.890  1.00  0.00     0.031 A 
BRANCH  16  19
ATOM     19  N8  FTA A   1       3.423  17.487  15.389  1.00  0.00    -0.356 N 
ATOM     20  H1  FTA A   1       3.679  18.306  14.819  1.00  0.00     0.166 HD
BRANCH  19  21
ATOM     21  C24 FTA A   1       2.662  16.459  14.755  1.00  0.00     0.032 A 
ATOM     22  C26 FTA A   1       3.029  15.937  13.538  1.00  0.00     0.029 A 
ATOM     23  C28 FTA A   1       2.161  15.072  12.899  1.00  0.00     0.002 A 
ATOM     24  C30 FTA A   1       0.952  14.689  13.454  1.00  0.00     0.000 A 
ATOM     25  C29 FTA A   1       0.592  15.172  14.683  1.00  0.00     0.002 A 
ATOM     26  C27 FTA A   1       1.467  16.051  15.331  1.00  0.00     0.029 A 
ENDBRANCH  19  21
ENDBRANCH  16  19
ENDBRANCH  11  13
ENDBRANCH   1  11
TORSDOF 5
ENDMDL
MODEL 7
REMARK VINA RESULT:    -5.407      8.998     10.418
REMARK INTER + INTRA:          -7.866
REMARK INTER:                  -6.987
REMARK INTRA:                  -0.879
REMARK UNBOUND:                -0.879
REMARK  5 active torsions:
REMARK  status: ('A' for Active; 'I' for Inactive)
REMARK    1  A    between atoms: N8_1  and  C24_2 
REMARK    2  A    between atoms: N8_1  and  C7_8 
REMARK    3  A    between atoms: C2_13  and  N1_14 
REMARK    4  A    between atoms: N1_14  and  C17_15 
REMARK    5  A    between atoms: C14_16  and  C13_19 
ROOT
ATOM      1  C17 FTA A   1       4.593  19.239  20.805  1.00  0.00     0.142 C 
ATOM      2  C14 FTA A   1       4.584  18.662  22.023  1.00  0.00     0.158 C 
ATOM      3  C18 FTA A   1       5.643  17.754  22.406  1.00  0.00     0.069 C 
ATOM      4  N21 FTA A   1       6.529  17.001  22.557  1.00  0.00    -0.197 NA
ENDROOT
BRANCH   2   5
ATOM      5  C13 FTA A   1       3.489  18.977  22.969  1.00  0.00     0.197 A 
ATOM      6  N15 FTA A   1       3.418  20.092  23.801  1.00  0.00    -0.093 NA
ATOM      7  N19 FTA A   1       2.257  19.978  24.555  1.00  0.00    -0.231 N 
ATOM      8  N20 FTA A   1       1.602  18.805  24.207  1.00  0.00    -0.017 NA
ATOM      9  H15 FTA A   1       1.932  20.655  25.260  1.00  0.00     0.200 HD
ATOM     10  N16 FTA A   1       2.360  18.188  23.216  1.00  0.00    -0.090 NA
ENDBRANCH   2   5
BRANCH   1  11
ATOM     11  N1  FTA A   1       3.499  19.135  20.026  1.00  0.00    -0.389 N 
ATOM     12  H11 FTA A   1       2.594  19.404  20.439  1.00  0.00     0.159 HD
BRANCH  11  13
ATOM     13  C2  FTA A   1       3.497  18.684  18.678  1.00  0.00     0.028 A 
ATOM     14  C4  FTA A   1       2.469  18.997  17.793  1.00  0.00     0.031 A 
ATOM     15  C6  FTA A   1       2.410  18.337  16.558  1.00  0.00     0.031 A 
ATOM     16  C7  FTA A   1       3.346  17.375  16.188  1.00  0.00     0.032 A 
ATOM     17  C5  FTA A   1       4.376  17.093  17.068  1.00  0.00     0.031 A 
ATOM     18  C3  FTA A   1       4.444  17.727  18.302  1.00  0.00     0.031 A 
BRANCH  16  19
ATOM     19  N8  FTA A   1       3.190  16.549  15.045  1.00  0.00    -0.356 N 
ATOM     20  H1  FTA A   1       4.047  16.254  14.555  1.00  0.00     0.166 HD
BRANCH  19  21
ATOM     21  C24 FTA A   1       1.944  16.093  14.518  1.00  0.00     0.032 A 
ATOM     22  C26 FTA A   1       1.195  15.138  15.164  1.00  0.00     0.029 A 
ATOM     23  C28 FTA A   1       0.090  14.616  14.519  1.00  0.00     0.002 A 
ATOM     24  C30 FTA A   1      -0.308  15.041  13.263  1.00  0.00     0.000 A 
ATOM     25  C29 FTA A   1       0.407  16.020  12.626  1.00  0.00     0.002 A 
ATOM     26  C27 FTA A   1       1.529  16.548  13.275  1.00  0.00     0.029 A 
ENDBRANCH  19  21
ENDBRANCH  16  19
ENDBRANCH  11  13
ENDBRANCH   1  11
TORSDOF 5
ENDMDL
MODEL 8
REMARK VINA RESULT:    -5.375      9.686     10.783
REMARK INTER + INTRA:          -7.824
REMARK INTER:                  -6.872
REMARK INTRA:                  -0.952
REMARK UNBOUND:                -0.879
REMARK  5 active torsions:
REMARK  status: ('A' for Active; 'I' for Inactive)
REMARK    1  A    between atoms: N8_1  and  C24_2 
REMARK    2  A    between atoms: N8_1  and  C7_8 
REMARK    3  A    between atoms: C2_13  and  N1_14 
REMARK    4  A    between atoms: N1_14  and  C17_15 
REMARK    5  A    between atoms: C14_16  and  C13_19 
ROOT
ATOM      1  C17 FTA A   1      -3.553  15.636  13.848  1.00  0.00     0.142 C 
ATOM      2  C14 FTA A   1      -4.754  15.026  13.879  1.00  0.00     0.158 C 
ATOM      3  C18 FTA A   1      -5.864  15.638  14.577  1.00  0.00     0.069 C 
ATOM      4  N21 FTA A   1      -6.650  16.219  15.224  1.00  0.00    -0.197 NA
ENDROOT
BRANCH   2   5
ATOM      5  C13 FTA A   1      -4.931  13.732  13.180  1.00  0.00     0.197 A 
ATOM      6  N15 FTA A   1      -4.113  13.222  12.175  1.00  0.00    -0.093 NA
ATOM      7  N19 FTA A   1      -4.659  12.013  11.765  1.00  0.00    -0.231 N 
ATOM      8  N20 FTA A   1      -5.809  11.761  12.499  1.00  0.00    -0.017 NA
ATOM      9  H15 FTA A   1      -4.272  11.400  11.033  1.00  0.00     0.200 HD
ATOM     10  N16 FTA A   1      -5.974  12.821  13.385  1.00  0.00    -0.090 NA
ENDBRANCH   2   5
BRANCH   1  11
ATOM     11  N1  FTA A   1      -2.461  14.947  14.234  1.00  0.00    -0.389 N 
ATOM     12  H11 FTA A   1      -2.516  13.918  14.212  1.00  0.00     0.159 HD
BRANCH  11  13
ATOM     13  C2  FTA A   1      -1.240  15.531  14.669  1.00  0.00     0.028 A 
ATOM     14  C4  FTA A   1      -1.152  16.868  15.048  1.00  0.00     0.031 A 
ATOM     15  C6  FTA A   1       0.114  17.437  15.243  1.00  0.00     0.031 A 
ATOM     16  C7  FTA A   1       1.288  16.708  15.067  1.00  0.00     0.032 A 
ATOM     17  C5  FTA A   1       1.182  15.375  14.715  1.00  0.00     0.031 A 
ATOM     18  C3  FTA A   1      -0.063  14.795  14.504  1.00  0.00     0.031 A 
BRANCH  16  19
ATOM     19  N8  FTA A   1       2.572  17.310  15.053  1.00  0.00    -0.356 N 
ATOM     20  H1  FTA A   1       2.745  18.038  14.345  1.00  0.00     0.166 HD
BRANCH  19  21
ATOM     21  C24 FTA A   1       3.645  16.991  15.940  1.00  0.00     0.032 A 
ATOM     22  C26 FTA A   1       3.479  17.005  17.305  1.00  0.00     0.029 A 
ATOM     23  C28 FTA A   1       4.594  16.857  18.109  1.00  0.00     0.002 A 
ATOM     24  C30 FTA A   1       5.863  16.664  17.590  1.00  0.00     0.000 A 
ATOM     25  C29 FTA A   1       6.035  16.610  16.233  1.00  0.00     0.002 A 
ATOM     26  C27 FTA A   1       4.909  16.763  15.416  1.00  0.00     0.029 A 
ENDBRANCH  19  21
ENDBRANCH  16  19
ENDBRANCH  11  13
ENDBRANCH   1  11
TORSDOF 5
ENDMDL
MODEL 9
REMARK VINA RESULT:    -5.361      6.349      9.075
REMARK INTER + INTRA:          -7.806
REMARK INTER:                  -6.694
REMARK INTRA:                  -1.112
REMARK UNBOUND:                -0.879
REMARK  5 active torsions:
REMARK  status: ('A' for Active; 'I' for Inactive)
REMARK    1  A    between atoms: N8_1  and  C24_2 
REMARK    2  A    between atoms: N8_1  and  C7_8 
REMARK    3  A    between atoms: C2_13  and  N1_14 
REMARK    4  A    between atoms: N1_14  and  C17_15 
REMARK    5  A    between atoms: C14_16  and  C13_19 
ROOT
ATOM      1  C17 FTA A   1       0.163  20.067  26.454  1.00  0.00     0.142 C 
ATOM      2  C14 FTA A   1       1.040  19.046  26.379  1.00  0.00     0.158 C 
ATOM      3  C18 FTA A   1       1.644  18.698  25.111  1.00  0.00     0.069 C 
ATOM      4  N21 FTA A   1       2.008  18.494  24.016  1.00  0.00    -0.197 NA
ENDROOT
BRANCH   2   5
ATOM      5  C13 FTA A   1       1.390  18.295  27.607  1.00  0.00     0.197 A 
ATOM      6  N15 FTA A   1       1.845  16.980  27.664  1.00  0.00    -0.093 NA
ATOM      7  N19 FTA A   1       2.008  16.652  29.004  1.00  0.00    -0.231 N 
ATOM      8  N20 FTA A   1       1.658  17.744  29.785  1.00  0.00    -0.017 NA
ATOM      9  H15 FTA A   1       2.337  15.744  29.361  1.00  0.00     0.200 HD
ATOM     10  N16 FTA A   1       1.285  18.768  28.920  1.00  0.00    -0.090 NA
ENDBRANCH   2   5
BRANCH   1  11
ATOM     11  N1  FTA A   1      -1.042  19.851  27.015  1.00  0.00    -0.389 N 
ATOM     12  H11 FTA A   1      -1.199  20.221  27.963  1.00  0.00     0.159 HD
BRANCH  11  13
ATOM     13  C2  FTA A   1      -2.115  19.152  26.397  1.00  0.00     0.028 A 
ATOM     14  C4  FTA A   1      -2.742  19.624  25.246  1.00  0.00     0.031 A 
ATOM     15  C6  FTA A   1      -3.932  19.016  24.823  1.00  0.00     0.031 A 
ATOM     16  C7  FTA A   1      -4.510  17.956  25.517  1.00  0.00     0.032 A 
ATOM     17  C5  FTA A   1      -3.861  17.483  26.644  1.00  0.00     0.031 A 
ATOM     18  C3  FTA A   1      -2.688  18.080  27.088  1.00  0.00     0.031 A 
BRANCH  16  19
ATOM     19  N8  FTA A   1      -5.810  17.467  25.232  1.00  0.00    -0.356 N 
ATOM     20  H1  FTA A   1      -6.590  18.138  25.285  1.00  0.00     0.166 HD
BRANCH  19  21
ATOM     21  C24 FTA A   1      -6.127  16.121  24.876  1.00  0.00     0.032 A 
ATOM     22  C26 FTA A   1      -5.797  15.605  23.645  1.00  0.00     0.029 A 
ATOM     23  C28 FTA A   1      -6.282  14.358  23.298  1.00  0.00     0.002 A 
ATOM     24  C30 FTA A   1      -7.060  13.599  24.156  1.00  0.00     0.000 A 
ATOM     25  C29 FTA A   1      -7.363  14.086  25.400  1.00  0.00     0.002 A 
ATOM     26  C27 FTA A   1      -6.876  15.350  25.752  1.00  0.00     0.029 A 
ENDBRANCH  19  21
ENDBRANCH  16  19
ENDBRANCH  11  13
ENDBRANCH   1  11
TORSDOF 5
ENDMDL
