MODEL 1
REMARK VINA RESULT:    -5.797      0.000      0.000
REMARK INTER + INTRA:          -8.687
REMARK INTER:                  -7.720
REMARK INTRA:                  -0.967
REMARK UNBOUND:                -1.196
REMARK  5 active torsions:
REMARK  status: ('A' for Active; 'I' for Inactive)
REMARK    1  A    between atoms: N8_1  and  C24_2 
REMARK    2  A    between atoms: N8_1  and  C7_8 
REMARK    3  A    between atoms: C2_13  and  N1_14 
REMARK    4  A    between atoms: N1_14  and  C17_15 
REMARK    5  A    between atoms: C14_16  and  C13_19 
ROOT
ATOM      1  C17 FTA A   1       7.752  18.178  19.491  1.00  0.00     0.142 C 
ATOM      2  C14 FTA A   1       6.657  18.044  18.716  1.00  0.00     0.158 C 
ATOM      3  C18 FTA A   1       6.469  18.906  17.569  1.00  0.00     0.069 C 
ATOM      4  N21 FTA A   1       6.420  19.705  16.712  1.00  0.00    -0.197 NA
ENDROOT
BRANCH   2   5
ATOM      5  C13 FTA A   1       5.659  17.000  19.041  1.00  0.00     0.197 A 
ATOM      6  N15 FTA A   1       5.330  15.902  18.248  1.00  0.00    -0.093 NA
ATOM      7  N19 FTA A   1       4.321  15.204  18.898  1.00  0.00    -0.231 N 
ATOM      8  N20 FTA A   1       4.013  15.851  20.086  1.00  0.00    -0.017 NA
ATOM      9  H15 FTA A   1       3.873  14.343  18.554  1.00  0.00     0.200 HD
ATOM     10  N16 FTA A   1       4.849  16.959  20.181  1.00  0.00    -0.090 NA
ENDBRANCH   2   5
BRANCH   1  11
ATOM     11  N1  FTA A   1       7.595  18.331  20.820  1.00  0.00    -0.389 N 
ATOM     12  H11 FTA A   1       6.632  18.343  21.187  1.00  0.00     0.159 HD
BRANCH  11  13
ATOM     13  C2  FTA A   1       8.656  18.476  21.755  1.00  0.00     0.028 A 
ATOM     14  C4  FTA A   1       8.947  17.497  22.702  1.00  0.00     0.031 A 
ATOM     15  C6  FTA A   1       9.846  17.797  23.735  1.00  0.00     0.031 A 
ATOM     16  C7  FTA A   1      10.456  19.044  23.847  1.00  0.00     0.032 A 
ATOM     17  C5  FTA A   1      10.175  19.996  22.883  1.00  0.00     0.031 A 
ATOM     18  C3  FTA A   1       9.277  19.723  21.859  1.00  0.00     0.031 A 
BRANCH  16  19
ATOM     19  N8  FTA A   1      11.199  19.438  24.989  1.00  0.00    -0.356 N 
ATOM     20  H1  FTA A   1      12.199  19.647  24.853  1.00  0.00     0.166 HD
BRANCH  19  21
ATOM     21  C24 FTA A   1      10.676  19.567  26.311  1.00  0.00     0.032 A 
ATOM     22  C26 FTA A   1      11.241  18.908  27.377  1.00  0.00     0.029 A 
ATOM     23  C28 FTA A   1      10.588  18.936  28.594  1.00  0.00     0.002 A 
ATOM     24  C30 FTA A   1       9.405  19.629  28.787  1.00  0.00     0.000 A 
ATOM     25  C29 FTA A   1       8.852  20.322  27.742  1.00  0.00     0.002 A 
ATOM     26  C27 FTA A   1       9.509  20.292  26.507  1.00  0.00     0.029 A 
ENDBRANCH  19  21
ENDBRANCH  16  19
ENDBRANCH  11  13
ENDBRANCH   1  11
TORSDOF 5
ENDMDL
MODEL 2
REMARK VINA RESULT:    -5.768      1.411      1.888
REMARK INTER + INTRA:          -8.650
REMARK INTER:                  -7.608
REMARK INTRA:                  -1.042
REMARK UNBOUND:                -1.196
REMARK  5 active torsions:
REMARK  status: ('A' for Active; 'I' for Inactive)
REMARK    1  A    between atoms: N8_1  and  C24_2 
REMARK    2  A    between atoms: N8_1  and  C7_8 
REMARK    3  A    between atoms: C2_13  and  N1_14 
REMARK    4  A    between atoms: N1_14  and  C17_15 
REMARK    5  A    between atoms: C14_16  and  C13_19 
ROOT
ATOM      1  C17 FTA A   1       6.203  18.799  20.460  1.00  0.00     0.142 C 
ATOM      2  C14 FTA A   1       5.550  18.253  19.415  1.00  0.00     0.158 C 
ATOM      3  C18 FTA A   1       4.152  18.554  19.194  1.00  0.00     0.069 C 
ATOM      4  N21 FTA A   1       3.015  18.840  19.171  1.00  0.00    -0.197 NA
ENDROOT
BRANCH   2   5
ATOM      5  C13 FTA A   1       6.279  17.356  18.489  1.00  0.00     0.197 A 
ATOM      6  N15 FTA A   1       5.705  16.479  17.572  1.00  0.00    -0.093 NA
ATOM      7  N19 FTA A   1       6.738  15.799  16.941  1.00  0.00    -0.231 N 
ATOM      8  N20 FTA A   1       7.951  16.236  17.454  1.00  0.00    -0.017 NA
ATOM      9  H15 FTA A   1       6.623  15.082  16.210  1.00  0.00     0.200 HD
ATOM     10  N16 FTA A   1       7.669  17.210  18.406  1.00  0.00    -0.090 NA
ENDBRANCH   2   5
BRANCH   1  11
ATOM     11  N1  FTA A   1       6.871  17.990  21.306  1.00  0.00    -0.389 N 
ATOM     12  H11 FTA A   1       6.516  17.030  21.426  1.00  0.00     0.159 HD
BRANCH  11  13
ATOM     13  C2  FTA A   1       8.027  18.360  22.045  1.00  0.00     0.028 A 
ATOM     14  C4  FTA A   1       8.778  17.431  22.760  1.00  0.00     0.031 A 
ATOM     15  C6  FTA A   1       9.761  17.890  23.648  1.00  0.00     0.031 A 
ATOM     16  C7  FTA A   1      10.011  19.246  23.839  1.00  0.00     0.032 A 
ATOM     17  C5  FTA A   1       9.274  20.156  23.102  1.00  0.00     0.031 A 
ATOM     18  C3  FTA A   1       8.285  19.722  22.228  1.00  0.00     0.031 A 
BRANCH  16  19
ATOM     19  N8  FTA A   1      10.846  19.736  24.876  1.00  0.00    -0.356 N 
ATOM     20  H1  FTA A   1      11.744  20.158  24.599  1.00  0.00     0.166 HD
BRANCH  19  21
ATOM     21  C24 FTA A   1      10.544  19.693  26.270  1.00  0.00     0.032 A 
ATOM     22  C26 FTA A   1      11.299  18.951  27.148  1.00  0.00     0.029 A 
ATOM     23  C28 FTA A   1      10.855  18.813  28.450  1.00  0.00     0.002 A 
ATOM     24  C30 FTA A   1       9.698  19.419  28.908  1.00  0.00     0.000 A 
ATOM     25  C29 FTA A   1       8.958  20.192  28.054  1.00  0.00     0.002 A 
ATOM     26  C27 FTA A   1       9.403  20.331  26.734  1.00  0.00     0.029 A 
ENDBRANCH  19  21
ENDBRANCH  16  19
ENDBRANCH  11  13
ENDBRANCH   1  11
TORSDOF 5
ENDMDL
MODEL 3
REMARK VINA RESULT:    -5.661      2.149      3.686
REMARK INTER + INTRA:          -8.511
REMARK INTER:                  -7.552
REMARK INTRA:                  -0.959
REMARK UNBOUND:                -1.196
REMARK  5 active torsions:
REMARK  status: ('A' for Active; 'I' for Inactive)
REMARK    1  A    between atoms: N8_1  and  C24_2 
REMARK    2  A    between atoms: N8_1  and  C7_8 
REMARK    3  A    between atoms: C2_13  and  N1_14 
REMARK    4  A    between atoms: N1_14  and  C17_15 
REMARK    5  A    between atoms: C14_16  and  C13_19 
ROOT
ATOM      1  C17 FTA A   1       9.604  18.601  22.150  1.00  0.00     0.142 C 
ATOM      2  C14 FTA A   1       8.872  18.542  21.020  1.00  0.00     0.158 C 
ATOM      3  C18 FTA A   1       9.527  18.422  19.735  1.00  0.00     0.069 C 
ATOM      4  N21 FTA A   1      10.190  18.385  18.769  1.00  0.00    -0.197 NA
ENDROOT
BRANCH   2   5
ATOM      5  C13 FTA A   1       7.394  18.584  21.106  1.00  0.00     0.197 A 
ATOM      6  N15 FTA A   1       6.647  19.162  22.130  1.00  0.00    -0.093 NA
ATOM      7  N19 FTA A   1       5.306  18.940  21.844  1.00  0.00    -0.231 N 
ATOM      8  N20 FTA A   1       5.205  18.230  20.656  1.00  0.00    -0.017 NA
ATOM      9  H15 FTA A   1       4.512  19.253  22.421  1.00  0.00     0.200 HD
ATOM     10  N16 FTA A   1       6.499  18.018  20.191  1.00  0.00    -0.090 NA
ENDBRANCH   2   5
BRANCH   1  11
ATOM     11  N1  FTA A   1       9.393  19.616  23.010  1.00  0.00    -0.389 N 
ATOM     12  H11 FTA A   1       8.867  20.431  22.664  1.00  0.00     0.159 HD
BRANCH  11  13
ATOM     13  C2  FTA A   1       9.841  19.648  24.359  1.00  0.00     0.028 A 
ATOM     14  C4  FTA A   1      10.829  18.788  24.832  1.00  0.00     0.031 A 
ATOM     15  C6  FTA A   1      11.059  18.712  26.213  1.00  0.00     0.031 A 
ATOM     16  C7  FTA A   1      10.331  19.468  27.127  1.00  0.00     0.032 A 
ATOM     17  C5  FTA A   1       9.371  20.337  26.639  1.00  0.00     0.031 A 
ATOM     18  C3  FTA A   1       9.118  20.417  25.275  1.00  0.00     0.031 A 
BRANCH  16  19
ATOM     19  N8  FTA A   1      10.400  19.257  28.528  1.00  0.00    -0.356 N 
ATOM     20  H1  FTA A   1      11.177  19.703  29.036  1.00  0.00     0.166 HD
BRANCH  19  21
ATOM     21  C24 FTA A   1       9.481  18.476  29.293  1.00  0.00     0.032 A 
ATOM     22  C26 FTA A   1       8.386  19.044  29.901  1.00  0.00     0.029 A 
ATOM     23  C28 FTA A   1       7.635  18.271  30.766  1.00  0.00     0.002 A 
ATOM     24  C30 FTA A   1       7.925  16.940  31.016  1.00  0.00     0.000 A 
ATOM     25  C29 FTA A   1       8.990  16.353  30.386  1.00  0.00     0.002 A 
ATOM     26  C27 FTA A   1       9.755  17.134  29.513  1.00  0.00     0.029 A 
ENDBRANCH  19  21
ENDBRANCH  16  19
ENDBRANCH  11  13
ENDBRANCH   1  11
TORSDOF 5
ENDMDL
MODEL 4
REMARK VINA RESULT:    -5.653      1.245      2.010
REMARK INTER + INTRA:          -8.500
REMARK INTER:                  -7.528
REMARK INTRA:                  -0.972
REMARK UNBOUND:                -1.196
REMARK  5 active torsions:
REMARK  status: ('A' for Active; 'I' for Inactive)
REMARK    1  A    between atoms: N8_1  and  C24_2 
REMARK    2  A    between atoms: N8_1  and  C7_8 
REMARK    3  A    between atoms: C2_13  and  N1_14 
REMARK    4  A    between atoms: N1_14  and  C17_15 
REMARK    5  A    between atoms: C14_16  and  C13_19 
ROOT
ATOM      1  C17 FTA A   1       8.367  17.297  17.973  1.00  0.00     0.142 C 
ATOM      2  C14 FTA A   1       7.099  17.753  17.931  1.00  0.00     0.158 C 
ATOM      3  C18 FTA A   1       6.765  18.898  17.111  1.00  0.00     0.069 C 
ATOM      4  N21 FTA A   1       6.653  19.862  16.454  1.00  0.00    -0.197 NA
ENDROOT
BRANCH   2   5
ATOM      5  C13 FTA A   1       6.051  17.064  18.718  1.00  0.00     0.197 A 
ATOM      6  N15 FTA A   1       5.662  17.373  20.019  1.00  0.00    -0.093 NA
ATOM      7  N19 FTA A   1       4.687  16.458  20.393  1.00  0.00    -0.231 N 
ATOM      8  N20 FTA A   1       4.463  15.578  19.344  1.00  0.00    -0.017 NA
ATOM      9  H15 FTA A   1       4.207  16.435  21.304  1.00  0.00     0.200 HD
ATOM     10  N16 FTA A   1       5.300  15.959  18.300  1.00  0.00    -0.090 NA
ENDBRANCH   2   5
BRANCH   1  11
ATOM     11  N1  FTA A   1       8.962  17.137  19.171  1.00  0.00    -0.389 N 
ATOM     12  H11 FTA A   1       9.333  16.203  19.397  1.00  0.00     0.159 HD
BRANCH  11  13
ATOM     13  C2  FTA A   1       9.118  18.159  20.147  1.00  0.00     0.028 A 
ATOM     14  C4  FTA A   1       9.687  19.393  19.844  1.00  0.00     0.031 A 
ATOM     15  C6  FTA A   1      10.022  20.263  20.890  1.00  0.00     0.031 A 
ATOM     16  C7  FTA A   1       9.805  19.933  22.225  1.00  0.00     0.032 A 
ATOM     17  C5  FTA A   1       9.216  18.713  22.509  1.00  0.00     0.031 A 
ATOM     18  C3  FTA A   1       8.889  17.831  21.487  1.00  0.00     0.031 A 
BRANCH  16  19
ATOM     19  N8  FTA A   1      10.322  20.698  23.301  1.00  0.00    -0.356 N 
ATOM     20  H1  FTA A   1      10.604  21.668  23.098  1.00  0.00     0.166 HD
BRANCH  19  21
ATOM     21  C24 FTA A   1      10.484  20.236  24.642  1.00  0.00     0.032 A 
ATOM     22  C26 FTA A   1      11.531  19.419  25.001  1.00  0.00     0.029 A 
ATOM     23  C28 FTA A   1      11.536  18.868  26.268  1.00  0.00     0.002 A 
ATOM     24  C30 FTA A   1      10.544  19.132  27.198  1.00  0.00     0.000 A 
ATOM     25  C29 FTA A   1       9.517  19.975  26.865  1.00  0.00     0.002 A 
ATOM     26  C27 FTA A   1       9.507  20.532  25.582  1.00  0.00     0.029 A 
ENDBRANCH  19  21
ENDBRANCH  16  19
ENDBRANCH  11  13
ENDBRANCH   1  11
TORSDOF 5
ENDMDL
MODEL 5
REMARK VINA RESULT:    -5.638      1.589      2.655
REMARK INTER + INTRA:          -8.482
REMARK INTER:                  -7.468
REMARK INTRA:                  -1.013
REMARK UNBOUND:                -1.196
REMARK  5 active torsions:
REMARK  status: ('A' for Active; 'I' for Inactive)
REMARK    1  A    between atoms: N8_1  and  C24_2 
REMARK    2  A    between atoms: N8_1  and  C7_8 
REMARK    3  A    between atoms: C2_13  and  N1_14 
REMARK    4  A    between atoms: N1_14  and  C17_15 
REMARK    5  A    between atoms: C14_16  and  C13_19 
ROOT
ATOM      1  C17 FTA A   1       5.975  18.356  17.990  1.00  0.00     0.142 C 
ATOM      2  C14 FTA A   1       4.892  17.604  17.712  1.00  0.00     0.158 C 
ATOM      3  C18 FTA A   1       4.180  17.787  16.465  1.00  0.00     0.069 C 
ATOM      4  N21 FTA A   1       3.673  18.083  15.451  1.00  0.00    -0.197 NA
ENDROOT
BRANCH   2   5
ATOM      5  C13 FTA A   1       4.448  16.579  18.684  1.00  0.00     0.197 A 
ATOM      6  N15 FTA A   1       4.457  16.703  20.072  1.00  0.00    -0.093 NA
ATOM      7  N19 FTA A   1       4.005  15.502  20.602  1.00  0.00    -0.231 N 
ATOM      8  N20 FTA A   1       3.716  14.627  19.565  1.00  0.00    -0.017 NA
ATOM      9  H15 FTA A   1       3.901  15.293  21.605  1.00  0.00     0.200 HD
ATOM     10  N16 FTA A   1       3.979  15.297  18.374  1.00  0.00    -0.090 NA
ENDBRANCH   2   5
BRANCH   1  11
ATOM     11  N1  FTA A   1       6.019  19.027  19.158  1.00  0.00    -0.389 N 
ATOM     12  H11 FTA A   1       5.204  19.606  19.405  1.00  0.00     0.159 HD
BRANCH  11  13
ATOM     13  C2  FTA A   1       7.105  18.996  20.075  1.00  0.00     0.028 A 
ATOM     14  C4  FTA A   1       8.390  18.620  19.690  1.00  0.00     0.031 A 
ATOM     15  C6  FTA A   1       9.355  18.388  20.679  1.00  0.00     0.031 A 
ATOM     16  C7  FTA A   1       9.071  18.519  22.036  1.00  0.00     0.032 A 
ATOM     17  C5  FTA A   1       7.797  18.917  22.401  1.00  0.00     0.031 A 
ATOM     18  C3  FTA A   1       6.822  19.138  21.436  1.00  0.00     0.031 A 
BRANCH  16  19
ATOM     19  N8  FTA A   1       9.962  18.090  23.053  1.00  0.00    -0.356 N 
ATOM     20  H1  FTA A   1      10.298  17.117  23.008  1.00  0.00     0.166 HD
BRANCH  19  21
ATOM     21  C24 FTA A   1      10.430  18.895  24.135  1.00  0.00     0.032 A 
ATOM     22  C26 FTA A   1      11.285  19.952  23.930  1.00  0.00     0.029 A 
ATOM     23  C28 FTA A   1      11.836  20.581  25.029  1.00  0.00     0.002 A 
ATOM     24  C30 FTA A   1      11.534  20.208  26.328  1.00  0.00     0.000 A 
ATOM     25  C29 FTA A   1      10.654  19.182  26.546  1.00  0.00     0.002 A 
ATOM     26  C27 FTA A   1      10.097  18.540  25.435  1.00  0.00     0.029 A 
ENDBRANCH  19  21
ENDBRANCH  16  19
ENDBRANCH  11  13
ENDBRANCH   1  11
TORSDOF 5
ENDMDL
MODEL 6
REMARK VINA RESULT:    -5.570      1.294      2.563
REMARK INTER + INTRA:          -8.393
REMARK INTER:                  -7.458
REMARK INTRA:                  -0.935
REMARK UNBOUND:                -1.196
REMARK  5 active torsions:
REMARK  status: ('A' for Active; 'I' for Inactive)
REMARK    1  A    between atoms: N8_1  and  C24_2 
REMARK    2  A    between atoms: N8_1  and  C7_8 
REMARK    3  A    between atoms: C2_13  and  N1_14 
REMARK    4  A    between atoms: N1_14  and  C17_15 
REMARK    5  A    between atoms: C14_16  and  C13_19 
ROOT
ATOM      1  C17 FTA A   1       6.806  18.248  19.907  1.00  0.00     0.142 C 
ATOM      2  C14 FTA A   1       6.240  17.309  19.124  1.00  0.00     0.158 C 
ATOM      3  C18 FTA A   1       5.050  16.615  19.566  1.00  0.00     0.069 C 
ATOM      4  N21 FTA A   1       4.129  16.097  20.075  1.00  0.00    -0.197 NA
ENDROOT
BRANCH   2   5
ATOM      5  C13 FTA A   1       6.837  17.005  17.803  1.00  0.00     0.197 A 
ATOM      6  N15 FTA A   1       8.055  17.480  17.323  1.00  0.00    -0.093 NA
ATOM      7  N19 FTA A   1       8.213  16.994  16.031  1.00  0.00    -0.231 N 
ATOM      8  N20 FTA A   1       7.108  16.224  15.697  1.00  0.00    -0.017 NA
ATOM      9  H15 FTA A   1       9.021  17.177  15.419  1.00  0.00     0.200 HD
ATOM     10  N16 FTA A   1       6.259  16.221  16.798  1.00  0.00    -0.090 NA
ENDBRANCH   2   5
BRANCH   1  11
ATOM     11  N1  FTA A   1       8.118  18.150  20.198  1.00  0.00    -0.389 N 
ATOM     12  H11 FTA A   1       8.743  17.789  19.462  1.00  0.00     0.159 HD
BRANCH  11  13
ATOM     13  C2  FTA A   1       8.706  18.505  21.443  1.00  0.00     0.028 A 
ATOM     14  C4  FTA A   1       9.337  19.730  21.641  1.00  0.00     0.031 A 
ATOM     15  C6  FTA A   1      10.092  19.926  22.806  1.00  0.00     0.031 A 
ATOM     16  C7  FTA A   1      10.234  18.932  23.771  1.00  0.00     0.032 A 
ATOM     17  C5  FTA A   1       9.581  17.729  23.571  1.00  0.00     0.031 A 
ATOM     18  C3  FTA A   1       8.838  17.511  22.417  1.00  0.00     0.031 A 
BRANCH  16  19
ATOM     19  N8  FTA A   1      11.155  19.029  24.845  1.00  0.00    -0.356 N 
ATOM     20  H1  FTA A   1      12.154  18.911  24.624  1.00  0.00     0.166 HD
BRANCH  19  21
ATOM     21  C24 FTA A   1      10.811  19.277  26.209  1.00  0.00     0.032 A 
ATOM     22  C26 FTA A   1      11.549  18.756  27.245  1.00  0.00     0.029 A 
ATOM     23  C28 FTA A   1      11.068  18.888  28.533  1.00  0.00     0.002 A 
ATOM     24  C30 FTA A   1       9.887  19.552  28.821  1.00  0.00     0.000 A 
ATOM     25  C29 FTA A   1       9.162  20.109  27.801  1.00  0.00     0.002 A 
ATOM     26  C27 FTA A   1       9.645  19.974  26.495  1.00  0.00     0.029 A 
ENDBRANCH  19  21
ENDBRANCH  16  19
ENDBRANCH  11  13
ENDBRANCH   1  11
TORSDOF 5
ENDMDL
MODEL 7
REMARK VINA RESULT:    -5.522      4.555      9.152
REMARK INTER + INTRA:          -8.332
REMARK INTER:                  -7.204
REMARK INTRA:                  -1.128
REMARK UNBOUND:                -1.196
REMARK  5 active torsions:
REMARK  status: ('A' for Active; 'I' for Inactive)
REMARK    1  A    between atoms: N8_1  and  C24_2 
REMARK    2  A    between atoms: N8_1  and  C7_8 
REMARK    3  A    between atoms: C2_13  and  N1_14 
REMARK    4  A    between atoms: N1_14  and  C17_15 
REMARK    5  A    between atoms: C14_16  and  C13_19 
ROOT
ATOM      1  C17 FTA A   1      10.581  18.684  30.802  1.00  0.00     0.142 C 
ATOM      2  C14 FTA A   1       9.716  17.651  30.822  1.00  0.00     0.158 C 
ATOM      3  C18 FTA A   1      10.192  16.298  30.625  1.00  0.00     0.069 C 
ATOM      4  N21 FTA A   1      10.709  15.271  30.396  1.00  0.00    -0.197 NA
ENDROOT
BRANCH   2   5
ATOM      5  C13 FTA A   1       8.278  17.910  31.061  1.00  0.00     0.197 A 
ATOM      6  N15 FTA A   1       7.254  16.966  31.024  1.00  0.00    -0.093 NA
ATOM      7  N19 FTA A   1       6.060  17.634  31.258  1.00  0.00    -0.231 N 
ATOM      8  N20 FTA A   1       6.322  18.985  31.438  1.00  0.00    -0.017 NA
ATOM      9  H15 FTA A   1       5.127  17.197  31.292  1.00  0.00     0.200 HD
ATOM     10  N16 FTA A   1       7.698  19.156  31.327  1.00  0.00    -0.090 NA
ENDBRANCH   2   5
BRANCH   1  11
ATOM     11  N1  FTA A   1      10.335  19.724  29.984  1.00  0.00    -0.389 N 
ATOM     12  H11 FTA A   1      10.165  20.643  30.419  1.00  0.00     0.159 HD
BRANCH  11  13
ATOM     13  C2  FTA A   1      10.292  19.653  28.564  1.00  0.00     0.028 A 
ATOM     14  C4  FTA A   1      11.320  19.080  27.820  1.00  0.00     0.031 A 
ATOM     15  C6  FTA A   1      11.326  19.247  26.428  1.00  0.00     0.031 A 
ATOM     16  C7  FTA A   1      10.337  19.969  25.765  1.00  0.00     0.032 A 
ATOM     17  C5  FTA A   1       9.309  20.511  26.517  1.00  0.00     0.031 A 
ATOM     18  C3  FTA A   1       9.292  20.368  27.899  1.00  0.00     0.031 A 
BRANCH  16  19
ATOM     19  N8  FTA A   1      10.433  20.327  24.396  1.00  0.00    -0.356 N 
ATOM     20  H1  FTA A   1      10.845  21.245  24.175  1.00  0.00     0.166 HD
BRANCH  19  21
ATOM     21  C24 FTA A   1      10.005  19.520  23.299  1.00  0.00     0.032 A 
ATOM     22  C26 FTA A   1       9.936  20.020  22.020  1.00  0.00     0.029 A 
ATOM     23  C28 FTA A   1       9.352  19.245  21.036  1.00  0.00     0.002 A 
ATOM     24  C30 FTA A   1       8.864  17.973  21.285  1.00  0.00     0.000 A 
ATOM     25  C29 FTA A   1       8.962  17.449  22.546  1.00  0.00     0.002 A 
ATOM     26  C27 FTA A   1       9.549  18.233  23.545  1.00  0.00     0.029 A 
ENDBRANCH  19  21
ENDBRANCH  16  19
ENDBRANCH  11  13
ENDBRANCH   1  11
TORSDOF 5
ENDMDL
MODEL 8
REMARK VINA RESULT:    -5.503      6.387     10.757
REMARK INTER + INTRA:          -8.307
REMARK INTER:                  -7.112
REMARK INTRA:                  -1.196
REMARK UNBOUND:                -1.196
REMARK  5 active torsions:
REMARK  status: ('A' for Active; 'I' for Inactive)
REMARK    1  A    between atoms: N8_1  and  C24_2 
REMARK    2  A    between atoms: N8_1  and  C7_8 
REMARK    3  A    between atoms: C2_13  and  N1_14 
REMARK    4  A    between atoms: N1_14  and  C17_15 
REMARK    5  A    between atoms: C14_16  and  C13_19 
ROOT
ATOM      1  C17 FTA A   1       5.847  18.515  18.066  1.00  0.00     0.142 C 
ATOM      2  C14 FTA A   1       6.138  17.229  18.350  1.00  0.00     0.158 C 
ATOM      3  C18 FTA A   1       7.429  16.680  17.997  1.00  0.00     0.069 C 
ATOM      4  N21 FTA A   1       8.486  16.358  17.603  1.00  0.00    -0.197 NA
ENDROOT
BRANCH   2   5
ATOM      5  C13 FTA A   1       5.131  16.391  19.040  1.00  0.00     0.197 A 
ATOM      6  N15 FTA A   1       4.698  16.541  20.355  1.00  0.00    -0.093 NA
ATOM      7  N19 FTA A   1       3.788  15.524  20.614  1.00  0.00    -0.231 N 
ATOM      8  N20 FTA A   1       3.649  14.738  19.480  1.00  0.00    -0.017 NA
ATOM      9  H15 FTA A   1       3.296  15.376  21.507  1.00  0.00     0.200 HD
ATOM     10  N16 FTA A   1       4.473  15.280  18.499  1.00  0.00    -0.090 NA
ENDBRANCH   2   5
BRANCH   1  11
ATOM     11  N1  FTA A   1       4.721  18.792  17.380  1.00  0.00    -0.389 N 
ATOM     12  H11 FTA A   1       3.999  19.351  17.857  1.00  0.00     0.159 HD
BRANCH  11  13
ATOM     13  C2  FTA A   1       4.453  18.371  16.049  1.00  0.00     0.028 A 
ATOM     14  C4  FTA A   1       3.437  17.469  15.747  1.00  0.00     0.031 A 
ATOM     15  C6  FTA A   1       3.374  16.922  14.458  1.00  0.00     0.031 A 
ATOM     16  C7  FTA A   1       4.297  17.250  13.469  1.00  0.00     0.032 A 
ATOM     17  C5  FTA A   1       5.286  18.167  13.777  1.00  0.00     0.031 A 
ATOM     18  C3  FTA A   1       5.374  18.710  15.053  1.00  0.00     0.031 A 
BRANCH  16  19
ATOM     19  N8  FTA A   1       4.380  16.558  12.234  1.00  0.00    -0.356 N 
ATOM     20  H1  FTA A   1       4.055  17.054  11.391  1.00  0.00     0.166 HD
BRANCH  19  21
ATOM     21  C24 FTA A   1       4.877  15.231  12.061  1.00  0.00     0.032 A 
ATOM     22  C26 FTA A   1       4.053  14.196  11.685  1.00  0.00     0.029 A 
ATOM     23  C28 FTA A   1       4.556  12.909  11.703  1.00  0.00     0.002 A 
ATOM     24  C30 FTA A   1       5.864  12.628  12.056  1.00  0.00     0.000 A 
ATOM     25  C29 FTA A   1       6.706  13.653  12.396  1.00  0.00     0.002 A 
ATOM     26  C27 FTA A   1       6.199  14.957  12.382  1.00  0.00     0.029 A 
ENDBRANCH  19  21
ENDBRANCH  16  19
ENDBRANCH  11  13
ENDBRANCH   1  11
TORSDOF 5
ENDMDL
MODEL 9
REMARK VINA RESULT:    -5.438      1.968      3.035
REMARK INTER + INTRA:          -8.223
REMARK INTER:                  -7.249
REMARK INTRA:                  -0.974
REMARK UNBOUND:                -1.196
REMARK  5 active torsions:
REMARK  status: ('A' for Active; 'I' for Inactive)
REMARK    1  A    between atoms: N8_1  and  C24_2 
REMARK    2  A    between atoms: N8_1  and  C7_8 
REMARK    3  A    between atoms: C2_13  and  N1_14 
REMARK    4  A    between atoms: N1_14  and  C17_15 
REMARK    5  A    between atoms: C14_16  and  C13_19 
ROOT
ATOM      1  C17 FTA A   1       7.830  18.709  21.229  1.00  0.00     0.142 C 
ATOM      2  C14 FTA A   1       7.450  18.059  20.112  1.00  0.00     0.158 C 
ATOM      3  C18 FTA A   1       6.051  17.768  19.879  1.00  0.00     0.069 C 
ATOM      4  N21 FTA A   1       4.899  17.552  19.852  1.00  0.00    -0.197 NA
ENDROOT
BRANCH   2   5
ATOM      5  C13 FTA A   1       8.473  17.659  19.118  1.00  0.00     0.197 A 
ATOM      6  N15 FTA A   1       8.347  16.646  18.170  1.00  0.00    -0.093 NA
ATOM      7  N19 FTA A   1       9.547  16.572  17.475  1.00  0.00    -0.231 N 
ATOM      8  N20 FTA A   1      10.422  17.524  17.977  1.00  0.00    -0.017 NA
ATOM      9  H15 FTA A   1       9.754  15.915  16.709  1.00  0.00     0.200 HD
ATOM     10  N16 FTA A   1       9.754  18.207  18.988  1.00  0.00    -0.090 NA
ENDBRANCH   2   5
BRANCH   1  11
ATOM     11  N1  FTA A   1       8.789  18.166  22.004  1.00  0.00    -0.389 N 
ATOM     12  H11 FTA A   1       9.144  17.235  21.741  1.00  0.00     0.159 HD
BRANCH  11  13
ATOM     13  C2  FTA A   1       9.350  18.781  23.157  1.00  0.00     0.028 A 
ATOM     14  C4  FTA A   1      10.291  18.136  23.956  1.00  0.00     0.031 A 
ATOM     15  C6  FTA A   1      10.629  18.697  25.195  1.00  0.00     0.031 A 
ATOM     16  C7  FTA A   1      10.053  19.879  25.655  1.00  0.00     0.032 A 
ATOM     17  C5  FTA A   1       9.139  20.520  24.837  1.00  0.00     0.031 A 
ATOM     18  C3  FTA A   1       8.780  19.973  23.611  1.00  0.00     0.031 A 
BRANCH  16  19
ATOM     19  N8  FTA A   1      10.219  20.351  26.981  1.00  0.00    -0.356 N 
ATOM     20  H1  FTA A   1      10.823  21.175  27.117  1.00  0.00     0.166 HD
BRANCH  19  21
ATOM     21  C24 FTA A   1       9.619  19.779  28.144  1.00  0.00     0.032 A 
ATOM     22  C26 FTA A   1      10.174  18.695  28.782  1.00  0.00     0.029 A 
ATOM     23  C28 FTA A   1       9.458  18.084  29.793  1.00  0.00     0.002 A 
ATOM     24  C30 FTA A   1       8.218  18.541  30.207  1.00  0.00     0.000 A 
ATOM     25  C29 FTA A   1       7.672  19.643  29.605  1.00  0.00     0.002 A 
ATOM     26  C27 FTA A   1       8.393  20.263  28.578  1.00  0.00     0.029 A 
ENDBRANCH  19  21
ENDBRANCH  16  19
ENDBRANCH  11  13
ENDBRANCH   1  11
TORSDOF 5
ENDMDL
