MODEL 1
REMARK VINA RESULT:    -9.762      0.000      0.000
REMARK INTER + INTRA:         -14.834
REMARK INTER:                 -12.518
REMARK INTRA:                  -2.316
REMARK UNBOUND:                -1.933
REMARK  6 active torsions:
REMARK  status: ('A' for Active; 'I' for Inactive)
REMARK    1  A    between atoms: C_7  and  C_8 
REMARK    2  A    between atoms: C_8  and  N_9 
REMARK       I    between atoms: N_9  and  C_11 
REMARK    3  A    between atoms: C_11  and  C_13 
REMARK    4  A    between atoms: C_15  and  O_16 
REMARK    5  A    between atoms: C_23  and  C_24 
REMARK    6  A    between atoms: C_24  and  C_25 
ROOT
HETATM    1  C   UNL     1      -2.688  13.217  21.852  0.00  0.00     0.066 C 
HETATM    2  C   UNL     1      -2.142  14.133  20.908  0.00  0.00     0.035 C 
HETATM    3  C   UNL     1      -3.881  13.586  22.475  0.00  0.00     0.083 C 
HETATM    4  C   UNL     1      -4.641  14.693  22.077  0.00  0.00     0.069 C 
HETATM    5  C   UNL     1      -4.075  15.546  21.137  0.00  0.00     0.065 A 
HETATM    6  C   UNL     1      -2.819  15.335  20.585  0.00  0.00     0.020 A 
HETATM    7  N   UNL     1      -4.517  16.729  20.616  0.00  0.00    -0.277 N 
HETATM    8  H   UNL     1      -5.407  17.182  20.786  0.00  0.00     0.189 HD
HETATM    9  N   UNL     1      -3.601  17.380  19.892  0.00  0.00    -0.178 NA
HETATM   10  C   UNL     1      -2.543  16.549  19.876  0.00  0.00     0.071 A 
ENDROOT
BRANCH   1  11
HETATM   11  C   UNL     1      -1.848  11.999  22.146  0.00  0.00     0.256 C 
HETATM   12  N   UNL     1      -0.680  11.989  22.928  0.00  0.00    -0.348 N 
HETATM   13  C   UNL     1      -0.208  10.675  23.356  0.00  0.00     0.153 C 
HETATM   14  O   UNL     1      -2.299  10.931  21.710  0.00  0.00    -0.267 OA
BRANCH  12  15
HETATM   15  C   UNL     1       0.059  13.128  23.470  0.00  0.00     0.164 C 
BRANCH  15  16
HETATM   16  C   UNL     1       1.407  13.425  22.808  0.00  0.00    -0.040 A 
HETATM   17  C   UNL     1       2.479  13.783  23.641  0.00  0.00     0.010 A 
HETATM   18  C   UNL     1       3.659  14.307  23.107  0.00  0.00     0.024 A 
HETATM   19  C   UNL     1       3.782  14.466  21.729  0.00  0.00     0.034 A 
HETATM   20 CL   UNL     1       5.180  15.237  21.082  0.00  0.00    -0.084 Cl
HETATM   21  C   UNL     1       2.765  14.046  20.875  0.00  0.00     0.024 A 
HETATM   22  C   UNL     1       1.584  13.516  21.411  0.00  0.00     0.010 A 
ENDBRANCH  15  16
ENDBRANCH  12  15
ENDBRANCH   1  11
BRANCH   3  23
HETATM   23  O   UNL     1      -4.370  12.972  23.585  0.00  0.00    -0.360 OA
HETATM   24  H   UNL     1      -4.334  12.013  23.410  0.00  0.00     0.217 HD
ENDBRANCH   3  23
BRANCH  10  25
HETATM   25  C   UNL     1      -1.230  17.050  19.373  0.00  0.00     0.100 C 
BRANCH  25  26
HETATM   26  C   UNL     1      -0.230  17.055  20.498  0.00  0.00    -0.052 A 
HETATM   27  C   UNL     1       1.125  17.331  20.253  0.00  0.00     0.007 A 
HETATM   28  C   UNL     1       2.024  17.471  21.312  0.00  0.00     0.001 A 
HETATM   29  C   UNL     1       1.582  17.325  22.625  0.00  0.00     0.000 A 
HETATM   30  C   UNL     1       0.247  17.017  22.880  0.00  0.00     0.001 A 
HETATM   31  C   UNL     1      -0.655  16.879  21.823  0.00  0.00     0.007 A 
ENDBRANCH  25  26
ENDBRANCH  10  25
TORSDOF 6
ENDMDL
MODEL 2
REMARK VINA RESULT:    -9.687      1.893      3.337
REMARK INTER + INTRA:         -14.735
REMARK INTER:                 -11.863
REMARK INTRA:                  -2.872
REMARK UNBOUND:                -1.933
REMARK  6 active torsions:
REMARK  status: ('A' for Active; 'I' for Inactive)
REMARK    1  A    between atoms: C_7  and  C_8 
REMARK    2  A    between atoms: C_8  and  N_9 
REMARK       I    between atoms: N_9  and  C_11 
REMARK    3  A    between atoms: C_11  and  C_13 
REMARK    4  A    between atoms: C_15  and  O_16 
REMARK    5  A    between atoms: C_23  and  C_24 
REMARK    6  A    between atoms: C_24  and  C_25 
ROOT
HETATM    1  C   UNL     1      -3.319  13.795  23.222  0.00  0.00     0.066 C 
HETATM    2  C   UNL     1      -2.114  14.554  23.249  0.00  0.00     0.035 C 
HETATM    3  C   UNL     1      -4.158  13.981  22.123  0.00  0.00     0.083 C 
HETATM    4  C   UNL     1      -3.783  14.712  20.988  0.00  0.00     0.069 C 
HETATM    5  C   UNL     1      -2.588  15.418  21.056  0.00  0.00     0.065 A 
HETATM    6  C   UNL     1      -1.770  15.413  22.177  0.00  0.00     0.020 A 
HETATM    7  N   UNL     1      -1.998  16.271  20.168  0.00  0.00    -0.277 N 
HETATM    8  H   UNL     1      -2.313  16.502  19.233  0.00  0.00     0.189 HD
HETATM    9  N   UNL     1      -0.951  16.937  20.667  0.00  0.00    -0.178 NA
HETATM   10  C   UNL     1      -0.805  16.437  21.907  0.00  0.00     0.071 A 
ENDROOT
BRANCH   1  11
HETATM   11  C   UNL     1      -3.595  12.957  24.445  0.00  0.00     0.256 C 
HETATM   12  N   UNL     1      -3.360  11.574  24.551  0.00  0.00    -0.348 N 
HETATM   13  C   UNL     1      -3.384  11.023  25.902  0.00  0.00     0.153 C 
HETATM   14  O   UNL     1      -3.986  13.586  25.438  0.00  0.00    -0.267 OA
BRANCH  12  15
HETATM   15  C   UNL     1      -2.977  10.637  23.496  0.00  0.00     0.164 C 
BRANCH  15  16
HETATM   16  C   UNL     1      -1.775  11.046  22.643  0.00  0.00    -0.040 A 
HETATM   17  C   UNL     1      -0.562  11.303  23.303  0.00  0.00     0.010 A 
HETATM   18  C   UNL     1       0.501  11.917  22.637  0.00  0.00     0.024 A 
HETATM   19  C   UNL     1       0.365  12.270  21.297  0.00  0.00     0.034 A 
HETATM   20 CL   UNL     1       1.624  13.148  20.516  0.00  0.00    -0.084 Cl
HETATM   21  C   UNL     1      -0.797  11.956  20.598  0.00  0.00     0.024 A 
HETATM   22  C   UNL     1      -1.862  11.336  21.264  0.00  0.00     0.010 A 
ENDBRANCH  15  16
ENDBRANCH  12  15
ENDBRANCH   1  11
BRANCH   3  23
HETATM   23  O   UNL     1      -5.452  13.561  22.086  0.00  0.00    -0.360 OA
HETATM   24  H   UNL     1      -5.550  12.904  22.800  0.00  0.00     0.217 HD
ENDBRANCH   3  23
BRANCH  10  25
HETATM   25  C   UNL     1       0.112  17.123  22.866  0.00  0.00     0.100 C 
BRANCH  25  26
HETATM   26  C   UNL     1       1.404  16.356  22.959  0.00  0.00    -0.052 A 
HETATM   27  C   UNL     1       1.548  15.301  23.876  0.00  0.00     0.007 A 
HETATM   28  C   UNL     1       2.694  14.504  23.866  0.00  0.00     0.001 A 
HETATM   29  C   UNL     1       3.712  14.759  22.950  0.00  0.00     0.000 A 
HETATM   30  C   UNL     1       3.596  15.824  22.058  0.00  0.00     0.001 A 
HETATM   31  C   UNL     1       2.450  16.621  22.064  0.00  0.00     0.007 A 
ENDBRANCH  25  26
ENDBRANCH  10  25
TORSDOF 6
ENDMDL
MODEL 3
REMARK VINA RESULT:    -9.336      2.469      3.812
REMARK INTER + INTRA:         -14.271
REMARK INTER:                 -12.341
REMARK INTRA:                  -1.930
REMARK UNBOUND:                -1.933
REMARK  6 active torsions:
REMARK  status: ('A' for Active; 'I' for Inactive)
REMARK    1  A    between atoms: C_7  and  C_8 
REMARK    2  A    between atoms: C_8  and  N_9 
REMARK       I    between atoms: N_9  and  C_11 
REMARK    3  A    between atoms: C_11  and  C_13 
REMARK    4  A    between atoms: C_15  and  O_16 
REMARK    5  A    between atoms: C_23  and  C_24 
REMARK    6  A    between atoms: C_24  and  C_25 
ROOT
HETATM    1  C   UNL     1      -3.025  13.559  21.272  0.00  0.00     0.066 C 
HETATM    2  C   UNL     1      -1.877  14.391  21.409  0.00  0.00     0.035 C 
HETATM    3  C   UNL     1      -4.077  14.056  20.503  0.00  0.00     0.083 C 
HETATM    4  C   UNL     1      -3.976  15.217  19.725  0.00  0.00     0.069 C 
HETATM    5  C   UNL     1      -2.827  15.984  19.879  0.00  0.00     0.065 A 
HETATM    6  C   UNL     1      -1.800  15.640  20.746  0.00  0.00     0.020 A 
HETATM    7  N   UNL     1      -2.471  17.186  19.337  0.00  0.00    -0.277 N 
HETATM    8  H   UNL     1      -2.981  17.725  18.647  0.00  0.00     0.189 HD
HETATM    9  N   UNL     1      -1.378  17.727  19.885  0.00  0.00    -0.178 NA
HETATM   10  C   UNL     1      -0.960  16.800  20.766  0.00  0.00     0.071 A 
ENDROOT
BRANCH   1  11
HETATM   11  C   UNL     1      -3.006  12.277  22.068  0.00  0.00     0.256 C 
HETATM   12  N   UNL     1      -3.541  12.116  23.357  0.00  0.00    -0.348 N 
HETATM   13  C   UNL     1      -3.712  10.739  23.811  0.00  0.00     0.153 C 
HETATM   14  O   UNL     1      -2.543  11.294  21.472  0.00  0.00    -0.267 OA
BRANCH  12  15
HETATM   15  C   UNL     1      -4.060  13.143  24.259  0.00  0.00     0.164 C 
BRANCH  15  16
HETATM   16  C   UNL     1      -3.011  13.927  25.051  0.00  0.00    -0.040 A 
HETATM   17  C   UNL     1      -2.358  14.986  24.400  0.00  0.00     0.010 A 
HETATM   18  C   UNL     1      -1.225  15.582  24.959  0.00  0.00     0.024 A 
HETATM   19  C   UNL     1      -0.740  15.131  26.184  0.00  0.00     0.034 A 
HETATM   20 CL   UNL     1       0.732  15.774  26.806  0.00  0.00    -0.084 Cl
HETATM   21  C   UNL     1      -1.414  14.137  26.888  0.00  0.00     0.024 A 
HETATM   22  C   UNL     1      -2.552  13.542  26.330  0.00  0.00     0.010 A 
ENDBRANCH  15  16
ENDBRANCH  12  15
ENDBRANCH   1  11
BRANCH   3  23
HETATM   23  O   UNL     1      -5.330  13.524  20.510  0.00  0.00    -0.360 OA
HETATM   24  H   UNL     1      -5.757  13.834  21.331  0.00  0.00     0.217 HD
ENDBRANCH   3  23
BRANCH  10  25
HETATM   25  C   UNL     1       0.098  17.162  21.756  0.00  0.00     0.100 C 
BRANCH  25  26
HETATM   26  C   UNL     1       1.279  16.244  21.584  0.00  0.00    -0.052 A 
HETATM   27  C   UNL     1       1.783  15.511  22.672  0.00  0.00     0.007 A 
HETATM   28  C   UNL     1       2.786  14.559  22.483  0.00  0.00     0.001 A 
HETATM   29  C   UNL     1       3.306  14.338  21.209  0.00  0.00     0.000 A 
HETATM   30  C   UNL     1       2.840  15.084  20.128  0.00  0.00     0.001 A 
HETATM   31  C   UNL     1       1.834  16.034  20.313  0.00  0.00     0.007 A 
ENDBRANCH  25  26
ENDBRANCH  10  25
TORSDOF 6
ENDMDL
MODEL 4
REMARK VINA RESULT:    -9.064      1.570      2.297
REMARK INTER + INTRA:         -13.911
REMARK INTER:                 -11.532
REMARK INTRA:                  -2.380
REMARK UNBOUND:                -1.933
REMARK  6 active torsions:
REMARK  status: ('A' for Active; 'I' for Inactive)
REMARK    1  A    between atoms: C_7  and  C_8 
REMARK    2  A    between atoms: C_8  and  N_9 
REMARK       I    between atoms: N_9  and  C_11 
REMARK    3  A    between atoms: C_11  and  C_13 
REMARK    4  A    between atoms: C_15  and  O_16 
REMARK    5  A    between atoms: C_23  and  C_24 
REMARK    6  A    between atoms: C_24  and  C_25 
ROOT
HETATM    1  C   UNL     1      -2.132  12.254  23.860  0.00  0.00     0.066 C 
HETATM    2  C   UNL     1      -2.365  12.847  22.586  0.00  0.00     0.035 C 
HETATM    3  C   UNL     1      -2.940  12.683  24.914  0.00  0.00     0.083 C 
HETATM    4  C   UNL     1      -4.063  13.502  24.735  0.00  0.00     0.069 C 
HETATM    5  C   UNL     1      -4.258  14.039  23.468  0.00  0.00     0.065 A 
HETATM    6  C   UNL     1      -3.407  13.789  22.401  0.00  0.00     0.020 A 
HETATM    7  N   UNL     1      -5.192  14.921  23.001  0.00  0.00    -0.277 N 
HETATM    8  H   UNL     1      -5.980  15.307  23.506  0.00  0.00     0.189 HD
HETATM    9  N   UNL     1      -4.937  15.381  21.771  0.00  0.00    -0.178 NA
HETATM   10  C   UNL     1      -3.835  14.711  21.392  0.00  0.00     0.071 A 
ENDROOT
BRANCH   1  11
HETATM   11  C   UNL     1      -0.963  11.305  23.939  0.00  0.00     0.256 C 
HETATM   12  N   UNL     1       0.356  11.669  24.265  0.00  0.00    -0.348 N 
HETATM   13  C   UNL     1       1.256  10.571  24.604  0.00  0.00     0.153 C 
HETATM   14  O   UNL     1      -1.242  10.109  23.774  0.00  0.00    -0.267 OA
BRANCH  12  15
HETATM   15  C   UNL     1       0.914  13.011  24.423  0.00  0.00     0.164 C 
BRANCH  15  16
HETATM   16  C   UNL     1       1.677  13.562  23.217  0.00  0.00    -0.040 A 
HETATM   17  C   UNL     1       2.761  14.419  23.465  0.00  0.00     0.010 A 
HETATM   18  C   UNL     1       3.345  15.156  22.432  0.00  0.00     0.024 A 
HETATM   19  C   UNL     1       2.856  15.032  21.134  0.00  0.00     0.034 A 
HETATM   20 CL   UNL     1       3.486  16.040  19.887  0.00  0.00    -0.084 Cl
HETATM   21  C   UNL     1       1.835  14.131  20.846  0.00  0.00     0.024 A 
HETATM   22  C   UNL     1       1.252  13.389  21.881  0.00  0.00     0.010 A 
ENDBRANCH  15  16
ENDBRANCH  12  15
ENDBRANCH   1  11
BRANCH   3  23
HETATM   23  O   UNL     1      -2.663  12.435  26.223  0.00  0.00    -0.360 OA
HETATM   24  H   UNL     1      -2.617  11.465  26.317  0.00  0.00     0.217 HD
ENDBRANCH   3  23
BRANCH  10  25
HETATM   25  C   UNL     1      -3.103  15.148  20.166  0.00  0.00     0.100 C 
BRANCH  25  26
HETATM   26  C   UNL     1      -1.997  16.094  20.552  0.00  0.00    -0.052 A 
HETATM   27  C   UNL     1      -1.413  16.032  21.828  0.00  0.00     0.007 A 
HETATM   28  C   UNL     1      -0.298  16.813  22.138  0.00  0.00     0.001 A 
HETATM   29  C   UNL     1       0.237  17.673  21.181  0.00  0.00     0.000 A 
HETATM   30  C   UNL     1      -0.354  17.769  19.922  0.00  0.00     0.001 A 
HETATM   31  C   UNL     1      -1.467  16.987  19.609  0.00  0.00     0.007 A 
ENDBRANCH  25  26
ENDBRANCH  10  25
TORSDOF 6
ENDMDL
MODEL 5
REMARK VINA RESULT:    -8.628      2.259      4.451
REMARK INTER + INTRA:         -13.335
REMARK INTER:                 -11.152
REMARK INTRA:                  -2.182
REMARK UNBOUND:                -1.933
REMARK  6 active torsions:
REMARK  status: ('A' for Active; 'I' for Inactive)
REMARK    1  A    between atoms: C_7  and  C_8 
REMARK    2  A    between atoms: C_8  and  N_9 
REMARK       I    between atoms: N_9  and  C_11 
REMARK    3  A    between atoms: C_11  and  C_13 
REMARK    4  A    between atoms: C_15  and  O_16 
REMARK    5  A    between atoms: C_23  and  C_24 
REMARK    6  A    between atoms: C_24  and  C_25 
ROOT
HETATM    1  C   UNL     1      -3.148  14.941  21.582  0.00  0.00     0.066 C 
HETATM    2  C   UNL     1      -2.789  15.157  22.944  0.00  0.00     0.035 C 
HETATM    3  C   UNL     1      -3.858  13.775  21.293  0.00  0.00     0.083 C 
HETATM    4  C   UNL     1      -4.385  12.934  22.282  0.00  0.00     0.069 C 
HETATM    5  C   UNL     1      -4.023  13.199  23.597  0.00  0.00     0.065 A 
HETATM    6  C   UNL     1      -3.188  14.248  23.954  0.00  0.00     0.020 A 
HETATM    7  N   UNL     1      -4.297  12.529  24.756  0.00  0.00    -0.277 N 
HETATM    8  H   UNL     1      -4.893  11.718  24.872  0.00  0.00     0.189 HD
HETATM    9  N   UNL     1      -3.597  12.959  25.811  0.00  0.00    -0.178 NA
HETATM   10  C   UNL     1      -2.895  14.004  25.335  0.00  0.00     0.071 A 
ENDROOT
BRANCH   1  11
HETATM   11  C   UNL     1      -2.621  15.953  20.596  0.00  0.00     0.256 C 
HETATM   12  N   UNL     1      -1.406  16.650  20.720  0.00  0.00    -0.348 N 
HETATM   13  C   UNL     1      -0.932  17.326  19.517  0.00  0.00     0.153 C 
HETATM   14  O   UNL     1      -3.304  16.096  19.572  0.00  0.00    -0.267 OA
BRANCH  12  15
HETATM   15  C   UNL     1      -0.495  16.688  21.862  0.00  0.00     0.164 C 
BRANCH  15  16
HETATM   16  C   UNL     1       0.944  16.251  21.583  0.00  0.00    -0.040 A 
HETATM   17  C   UNL     1       1.150  14.949  21.098  0.00  0.00     0.010 A 
HETATM   18  C   UNL     1       2.430  14.393  21.057  0.00  0.00     0.024 A 
HETATM   19  C   UNL     1       3.523  15.140  21.490  0.00  0.00     0.034 A 
HETATM   20 CL   UNL     1       5.079  14.407  21.566  0.00  0.00    -0.084 Cl
HETATM   21  C   UNL     1       3.357  16.460  21.901  0.00  0.00     0.024 A 
HETATM   22  C   UNL     1       2.074  17.020  21.938  0.00  0.00     0.010 A 
ENDBRANCH  15  16
ENDBRANCH  12  15
ENDBRANCH   1  11
BRANCH   3  23
HETATM   23  O   UNL     1      -4.021  13.288  20.033  0.00  0.00    -0.360 OA
HETATM   24  H   UNL     1      -3.186  13.460  19.560  0.00  0.00     0.217 HD
ENDBRANCH   3  23
BRANCH  10  25
HETATM   25  C   UNL     1      -1.799  14.584  26.167  0.00  0.00     0.100 C 
BRANCH  25  26
HETATM   26  C   UNL     1      -0.475  14.333  25.497  0.00  0.00    -0.052 A 
HETATM   27  C   UNL     1       0.542  15.303  25.531  0.00  0.00     0.007 A 
HETATM   28  C   UNL     1       1.813  15.016  25.032  0.00  0.00     0.001 A 
HETATM   29  C   UNL     1       2.080  13.764  24.483  0.00  0.00     0.000 A 
HETATM   30  C   UNL     1       1.070  12.805  24.412  0.00  0.00     0.001 A 
HETATM   31  C   UNL     1      -0.201  13.088  24.913  0.00  0.00     0.007 A 
ENDBRANCH  25  26
ENDBRANCH  10  25
TORSDOF 6
ENDMDL
MODEL 6
REMARK VINA RESULT:    -8.567      2.309      3.771
REMARK INTER + INTRA:         -13.254
REMARK INTER:                 -11.337
REMARK INTRA:                  -1.917
REMARK UNBOUND:                -1.933
REMARK  6 active torsions:
REMARK  status: ('A' for Active; 'I' for Inactive)
REMARK    1  A    between atoms: C_7  and  C_8 
REMARK    2  A    between atoms: C_8  and  N_9 
REMARK       I    between atoms: N_9  and  C_11 
REMARK    3  A    between atoms: C_11  and  C_13 
REMARK    4  A    between atoms: C_15  and  O_16 
REMARK    5  A    between atoms: C_23  and  C_24 
REMARK    6  A    between atoms: C_24  and  C_25 
ROOT
HETATM    1  C   UNL     1      -3.307  13.975  23.008  0.00  0.00     0.066 C 
HETATM    2  C   UNL     1      -2.026  14.594  23.079  0.00  0.00     0.035 C 
HETATM    3  C   UNL     1      -4.140  14.366  21.959  0.00  0.00     0.083 C 
HETATM    4  C   UNL     1      -3.708  15.168  20.895  0.00  0.00     0.069 C 
HETATM    5  C   UNL     1      -2.442  15.731  21.001  0.00  0.00     0.065 A 
HETATM    6  C   UNL     1      -1.609  15.521  22.092  0.00  0.00     0.020 A 
HETATM    7  N   UNL     1      -1.778  16.606  20.189  0.00  0.00    -0.277 N 
HETATM    8  H   UNL     1      -2.083  16.967  19.292  0.00  0.00     0.189 HD
HETATM    9  N   UNL     1      -0.656  17.100  20.723  0.00  0.00    -0.178 NA
HETATM   10  C   UNL     1      -0.543  16.458  21.901  0.00  0.00     0.071 A 
ENDROOT
BRANCH   1  11
HETATM   11  C   UNL     1      -3.651  13.046  24.145  0.00  0.00     0.256 C 
HETATM   12  N   UNL     1      -3.155  11.740  24.304  0.00  0.00    -0.348 N 
HETATM   13  C   UNL     1      -3.347  11.139  25.620  0.00  0.00     0.153 C 
HETATM   14  O   UNL     1      -4.368  13.537  25.028  0.00  0.00    -0.267 OA
BRANCH  12  15
HETATM   15  C   UNL     1      -2.367  10.949  23.361  0.00  0.00     0.164 C 
BRANCH  15  16
HETATM   16  C   UNL     1      -0.926  10.649  23.781  0.00  0.00    -0.040 A 
HETATM   17  C   UNL     1      -0.570   9.306  23.983  0.00  0.00     0.010 A 
HETATM   18  C   UNL     1       0.635   8.968  24.602  0.00  0.00     0.024 A 
HETATM   19  C   UNL     1       1.505   9.974  25.017  0.00  0.00     0.034 A 
HETATM   20 CL   UNL     1       2.924   9.563  25.901  0.00  0.00    -0.084 Cl
HETATM   21  C   UNL     1       1.213  11.311  24.759  0.00  0.00     0.024 A 
HETATM   22  C   UNL     1       0.006  11.650  24.133  0.00  0.00     0.010 A 
ENDBRANCH  15  16
ENDBRANCH  12  15
ENDBRANCH   1  11
BRANCH   3  23
HETATM   23  O   UNL     1      -5.472  14.092  21.916  0.00  0.00    -0.360 OA
HETATM   24  H   UNL     1      -5.803  14.184  22.829  0.00  0.00     0.217 HD
ENDBRANCH   3  23
BRANCH  10  25
HETATM   25  C   UNL     1       0.460  16.937  22.898  0.00  0.00     0.100 C 
BRANCH  25  26
HETATM   26  C   UNL     1       1.697  16.084  22.814  0.00  0.00    -0.052 A 
HETATM   27  C   UNL     1       2.749  16.429  21.949  0.00  0.00     0.007 A 
HETATM   28  C   UNL     1       3.950  15.718  21.973  0.00  0.00     0.001 A 
HETATM   29  C   UNL     1       4.109  14.648  22.850  0.00  0.00     0.000 A 
HETATM   30  C   UNL     1       3.060  14.273  23.689  0.00  0.00     0.001 A 
HETATM   31  C   UNL     1       1.859  14.985  23.670  0.00  0.00     0.007 A 
ENDBRANCH  25  26
ENDBRANCH  10  25
TORSDOF 6
ENDMDL
MODEL 7
REMARK VINA RESULT:    -8.423      1.945      5.408
REMARK INTER + INTRA:         -13.064
REMARK INTER:                 -11.131
REMARK INTRA:                  -1.933
REMARK UNBOUND:                -1.933
REMARK  6 active torsions:
REMARK  status: ('A' for Active; 'I' for Inactive)
REMARK    1  A    between atoms: C_7  and  C_8 
REMARK    2  A    between atoms: C_8  and  N_9 
REMARK       I    between atoms: N_9  and  C_11 
REMARK    3  A    between atoms: C_11  and  C_13 
REMARK    4  A    between atoms: C_15  and  O_16 
REMARK    5  A    between atoms: C_23  and  C_24 
REMARK    6  A    between atoms: C_24  and  C_25 
ROOT
HETATM    1  C   UNL     1      -2.590  12.789  23.885  0.00  0.00     0.066 C 
HETATM    2  C   UNL     1      -1.361  13.341  24.345  0.00  0.00     0.035 C 
HETATM    3  C   UNL     1      -2.577  11.446  23.503  0.00  0.00     0.083 C 
HETATM    4  C   UNL     1      -1.487  10.596  23.733  0.00  0.00     0.069 C 
HETATM    5  C   UNL     1      -0.317  11.179  24.203  0.00  0.00     0.065 A 
HETATM    6  C   UNL     1      -0.199  12.539  24.456  0.00  0.00     0.020 A 
HETATM    7  N   UNL     1       0.918  10.647  24.443  0.00  0.00    -0.277 N 
HETATM    8  H   UNL     1       1.193   9.673  24.376  0.00  0.00     0.189 HD
HETATM    9  N   UNL     1       1.866  11.559  24.685  0.00  0.00    -0.178 NA
HETATM   10  C   UNL     1       1.203  12.729  24.680  0.00  0.00     0.071 A 
ENDROOT
BRANCH   1  11
HETATM   11  C   UNL     1      -3.741  13.757  23.764  0.00  0.00     0.256 C 
HETATM   12  N   UNL     1      -4.161  14.372  22.572  0.00  0.00    -0.348 N 
HETATM   13  C   UNL     1      -5.475  15.007  22.609  0.00  0.00     0.153 C 
HETATM   14  O   UNL     1      -4.388  13.938  24.805  0.00  0.00    -0.267 OA
BRANCH  12  15
HETATM   15  C   UNL     1      -3.507  14.357  21.264  0.00  0.00     0.164 C 
BRANCH  15  16
HETATM   16  C   UNL     1      -2.541  15.511  20.989  0.00  0.00    -0.040 A 
HETATM   17  C   UNL     1      -2.822  16.353  19.901  0.00  0.00     0.010 A 
HETATM   18  C   UNL     1      -1.871  17.263  19.434  0.00  0.00     0.024 A 
HETATM   19  C   UNL     1      -0.630  17.349  20.061  0.00  0.00     0.034 A 
HETATM   20 CL   UNL     1       0.588  18.372  19.402  0.00  0.00    -0.084 Cl
HETATM   21  C   UNL     1      -0.355  16.583  21.190  0.00  0.00     0.024 A 
HETATM   22  C   UNL     1      -1.310  15.673  21.661  0.00  0.00     0.010 A 
ENDBRANCH  15  16
ENDBRANCH  12  15
ENDBRANCH   1  11
BRANCH   3  23
HETATM   23  O   UNL     1      -3.572  10.859  22.786  0.00  0.00    -0.360 OA
HETATM   24  H   UNL     1      -3.171  10.098  22.327  0.00  0.00     0.217 HD
ENDBRANCH   3  23
BRANCH  10  25
HETATM   25  C   UNL     1       1.979  14.005  24.664  0.00  0.00     0.100 C 
BRANCH  25  26
HETATM   26  C   UNL     1       2.597  14.199  23.305  0.00  0.00    -0.052 A 
HETATM   27  C   UNL     1       3.952  14.546  23.175  0.00  0.00     0.007 A 
HETATM   28  C   UNL     1       4.557  14.589  21.917  0.00  0.00     0.001 A 
HETATM   29  C   UNL     1       3.813  14.299  20.776  0.00  0.00     0.000 A 
HETATM   30  C   UNL     1       2.459  13.986  20.888  0.00  0.00     0.001 A 
HETATM   31  C   UNL     1       1.852  13.939  22.144  0.00  0.00     0.007 A 
ENDBRANCH  25  26
ENDBRANCH  10  25
TORSDOF 6
ENDMDL
MODEL 8
REMARK VINA RESULT:    -8.408      3.254      5.375
REMARK INTER + INTRA:         -13.044
REMARK INTER:                 -10.533
REMARK INTRA:                  -2.512
REMARK UNBOUND:                -1.933
REMARK  6 active torsions:
REMARK  status: ('A' for Active; 'I' for Inactive)
REMARK    1  A    between atoms: C_7  and  C_8 
REMARK    2  A    between atoms: C_8  and  N_9 
REMARK       I    between atoms: N_9  and  C_11 
REMARK    3  A    between atoms: C_11  and  C_13 
REMARK    4  A    between atoms: C_15  and  O_16 
REMARK    5  A    between atoms: C_23  and  C_24 
REMARK    6  A    between atoms: C_24  and  C_25 
ROOT
HETATM    1  C   UNL     1      -1.078  16.242  21.532  0.00  0.00     0.066 C 
HETATM    2  C   UNL     1      -1.590  15.118  22.243  0.00  0.00     0.035 C 
HETATM    3  C   UNL     1      -1.888  16.779  20.531  0.00  0.00     0.083 C 
HETATM    4  C   UNL     1      -3.221  16.394  20.336  0.00  0.00     0.069 C 
HETATM    5  C   UNL     1      -3.680  15.306  21.069  0.00  0.00     0.065 A 
HETATM    6  C   UNL     1      -2.885  14.614  21.972  0.00  0.00     0.020 A 
HETATM    7  N   UNL     1      -4.877  14.649  21.047  0.00  0.00    -0.277 N 
HETATM    8  H   UNL     1      -5.703  14.891  20.510  0.00  0.00     0.189 HD
HETATM    9  N   UNL     1      -4.883  13.506  21.740  0.00  0.00    -0.178 NA
HETATM   10  C   UNL     1      -3.662  13.456  22.302  0.00  0.00     0.071 A 
ENDROOT
BRANCH   1  11
HETATM   11  C   UNL     1       0.332  16.651  21.878  0.00  0.00     0.256 C 
HETATM   12  N   UNL     1       1.494  15.958  21.496  0.00  0.00    -0.348 N 
HETATM   13  C   UNL     1       2.751  16.685  21.647  0.00  0.00     0.153 C 
HETATM   14  O   UNL     1       0.435  17.729  22.479  0.00  0.00    -0.267 OA
BRANCH  12  15
HETATM   15  C   UNL     1       1.600  14.647  20.857  0.00  0.00     0.164 C 
BRANCH  15  16
HETATM   16  C   UNL     1       1.348  13.441  21.764  0.00  0.00    -0.040 A 
HETATM   17  C   UNL     1       0.607  12.371  21.237  0.00  0.00     0.010 A 
HETATM   18  C   UNL     1       0.123  11.356  22.065  0.00  0.00     0.024 A 
HETATM   19  C   UNL     1       0.387  11.395  23.432  0.00  0.00     0.034 A 
HETATM   20 CL   UNL     1      -0.322  10.219  24.471  0.00  0.00    -0.084 Cl
HETATM   21  C   UNL     1       1.186  12.402  23.969  0.00  0.00     0.024 A 
HETATM   22  C   UNL     1       1.674  13.417  23.137  0.00  0.00     0.010 A 
ENDBRANCH  15  16
ENDBRANCH  12  15
ENDBRANCH   1  11
BRANCH   3  23
HETATM   23  O   UNL     1      -1.439  17.649  19.587  0.00  0.00    -0.360 OA
HETATM   24  H   UNL     1      -0.501  17.821  19.793  0.00  0.00     0.217 HD
ENDBRANCH   3  23
BRANCH  10  25
HETATM   25  C   UNL     1      -3.209  12.189  22.949  0.00  0.00     0.100 C 
BRANCH  25  26
HETATM   26  C   UNL     1      -3.250  12.347  24.445  0.00  0.00    -0.052 A 
HETATM   27  C   UNL     1      -4.143  11.590  25.222  0.00  0.00     0.007 A 
HETATM   28  C   UNL     1      -4.085  11.635  26.616  0.00  0.00     0.001 A 
HETATM   29  C   UNL     1      -3.145  12.445  27.249  0.00  0.00     0.000 A 
HETATM   30  C   UNL     1      -2.276  13.227  26.489  0.00  0.00     0.001 A 
HETATM   31  C   UNL     1      -2.329  13.182  25.095  0.00  0.00     0.007 A 
ENDBRANCH  25  26
ENDBRANCH  10  25
TORSDOF 6
ENDMDL
MODEL 9
REMARK VINA RESULT:    -8.387      3.105      5.145
REMARK INTER + INTRA:         -13.017
REMARK INTER:                 -10.793
REMARK INTRA:                  -2.224
REMARK UNBOUND:                -1.933
REMARK  6 active torsions:
REMARK  status: ('A' for Active; 'I' for Inactive)
REMARK    1  A    between atoms: C_7  and  C_8 
REMARK    2  A    between atoms: C_8  and  N_9 
REMARK       I    between atoms: N_9  and  C_11 
REMARK    3  A    between atoms: C_11  and  C_13 
REMARK    4  A    between atoms: C_15  and  O_16 
REMARK    5  A    between atoms: C_23  and  C_24 
REMARK    6  A    between atoms: C_24  and  C_25 
ROOT
HETATM    1  C   UNL     1       0.274  16.353  21.089  0.00  0.00     0.066 C 
HETATM    2  C   UNL     1      -0.793  15.509  21.512  0.00  0.00     0.035 C 
HETATM    3  C   UNL     1      -0.042  17.369  20.187  0.00  0.00     0.083 C 
HETATM    4  C   UNL     1      -1.358  17.705  19.844  0.00  0.00     0.069 C 
HETATM    5  C   UNL     1      -2.367  16.864  20.299  0.00  0.00     0.065 A 
HETATM    6  C   UNL     1      -2.120  15.737  21.071  0.00  0.00     0.020 A 
HETATM    7  N   UNL     1      -3.713  16.872  20.072  0.00  0.00    -0.277 N 
HETATM    8  H   UNL     1      -4.247  17.564  19.558  0.00  0.00     0.189 HD
HETATM    9  N   UNL     1      -4.344  15.774  20.501  0.00  0.00    -0.178 NA
HETATM   10  C   UNL     1      -3.379  15.055  21.102  0.00  0.00     0.071 A 
ENDROOT
BRANCH   1  11
HETATM   11  C   UNL     1       1.647  15.976  21.589  0.00  0.00     0.256 C 
HETATM   12  N   UNL     1       2.238  14.707  21.455  0.00  0.00    -0.348 N 
HETATM   13  C   UNL     1       3.674  14.642  21.708  0.00  0.00     0.153 C 
HETATM   14  O   UNL     1       2.302  16.905  22.080  0.00  0.00    -0.267 OA
BRANCH  12  15
HETATM   15  C   UNL     1       1.626  13.467  20.982  0.00  0.00     0.164 C 
BRANCH  15  16
HETATM   16  C   UNL     1       0.704  12.756  21.975  0.00  0.00    -0.040 A 
HETATM   17  C   UNL     1       0.997  12.880  23.343  0.00  0.00     0.010 A 
HETATM   18  C   UNL     1       0.365  12.070  24.289  0.00  0.00     0.024 A 
HETATM   19  C   UNL     1      -0.579  11.133  23.875  0.00  0.00     0.034 A 
HETATM   20 CL   UNL     1      -1.257  10.043  25.023  0.00  0.00    -0.084 Cl
HETATM   21  C   UNL     1      -0.946  11.044  22.535  0.00  0.00     0.024 A 
HETATM   22  C   UNL     1      -0.315  11.860  21.587  0.00  0.00     0.010 A 
ENDBRANCH  15  16
ENDBRANCH  12  15
ENDBRANCH   1  11
BRANCH   3  23
HETATM   23  O   UNL     1       0.889  18.062  19.478  0.00  0.00    -0.360 OA
HETATM   24  H   UNL     1       0.410  18.514  18.759  0.00  0.00     0.217 HD
ENDBRANCH   3  23
BRANCH  10  25
HETATM   25  C   UNL     1      -3.655  13.638  21.482  0.00  0.00     0.100 C 
BRANCH  25  26
HETATM   26  C   UNL     1      -3.596  13.500  22.980  0.00  0.00    -0.052 A 
HETATM   27  C   UNL     1      -4.232  12.428  23.628  0.00  0.00     0.007 A 
HETATM   28  C   UNL     1      -4.061  12.224  24.999  0.00  0.00     0.001 A 
HETATM   29  C   UNL     1      -3.263  13.094  25.738  0.00  0.00     0.000 A 
HETATM   30  C   UNL     1      -2.654  14.182  25.113  0.00  0.00     0.001 A 
HETATM   31  C   UNL     1      -2.821  14.386  23.743  0.00  0.00     0.007 A 
ENDBRANCH  25  26
ENDBRANCH  10  25
TORSDOF 6
ENDMDL
