REMARK  6 active torsions:
REMARK  status: ('A' for Active; 'I' for Inactive)
REMARK    1  A    between atoms: C_7  and  C_8 
REMARK    2  A    between atoms: C_8  and  N_9 
REMARK       I    between atoms: N_9  and  C_11 
REMARK    3  A    between atoms: C_11  and  C_13 
REMARK    4  A    between atoms: C_15  and  O_16 
REMARK    5  A    between atoms: C_23  and  C_24 
REMARK    6  A    between atoms: C_24  and  C_25 
ROOT
HETATM    1  C   UNL     1      -5.278   3.054   0.043  0.00  0.00     0.066 C 
HETATM    2  C   UNL     1      -6.686   3.085   0.257  0.00  0.00     0.035 C 
HETATM    3  C   UNL     1      -4.663   4.261  -0.292  0.00  0.00     0.083 C 
HETATM    4  C   UNL     1      -5.320   5.497  -0.235  0.00  0.00     0.069 C 
HETATM    5  C   UNL     1      -6.690   5.476  -0.002  0.00  0.00     0.065 A 
HETATM    6  C   UNL     1      -7.407   4.302   0.183  0.00  0.00     0.020 A 
HETATM    7  N   UNL     1      -7.611   6.484   0.029  0.00  0.00    -0.277 N 
HETATM    8  H   UNL     1      -7.438   7.479  -0.055  0.00  0.00     0.189 HD
HETATM    9  N   UNL     1      -8.879   6.061   0.068  0.00  0.00    -0.178 NA
HETATM   10  C   UNL     1      -8.776   4.722   0.145  0.00  0.00     0.071 A 
ENDROOT
BRANCH   1  11
HETATM   11  C   UNL     1      -4.635   1.691   0.100  0.00  0.00     0.256 C 
HETATM   12  N   UNL     1      -3.336   1.426   0.568  0.00  0.00    -0.348 N 
HETATM   13  C   UNL     1      -3.029   0.026   0.844  0.00  0.00     0.153 C 
HETATM   14  O   UNL     1      -5.369   0.748  -0.227  0.00  0.00    -0.267 OA
BRANCH  12  15
HETATM   15  C   UNL     1      -2.289   2.381   0.927  0.00  0.00     0.164 C 
BRANCH  15  16
HETATM   16  C   UNL     1      -1.226   2.639  -0.143  0.00  0.00    -0.040 A 
HETATM   17  C   UNL     1      -0.100   3.394   0.223  0.00  0.00     0.010 A 
HETATM   18  C   UNL     1       0.782   3.882  -0.744  0.00  0.00     0.024 A 
HETATM   19  C   UNL     1       0.552   3.608  -2.090  0.00  0.00     0.034 A 
HETATM   20 CL   UNL     1       1.561   4.322  -3.289  0.00  0.00    -0.084 Cl
HETATM   21  C   UNL     1      -0.512   2.796  -2.474  0.00  0.00     0.024 A 
HETATM   22  C   UNL     1      -1.394   2.303  -1.504  0.00  0.00     0.010 A 
ENDBRANCH  15  16
ENDBRANCH  12  15
ENDBRANCH   1  11
BRANCH   3  23
HETATM   23  O   UNL     1      -3.404   4.347  -0.800  0.00  0.00    -0.360 OA
HETATM   24  H   UNL     1      -3.491   4.276  -1.769  0.00  0.00     0.217 HD
ENDBRANCH   3  23
BRANCH  10  25
HETATM   25  C   UNL     1      -9.997   3.885  -0.051  0.00  0.00     0.100 C 
BRANCH  25  26
HETATM   26  C   UNL     1     -10.694   3.698   1.270  0.00  0.00    -0.052 A 
HETATM   27  C   UNL     1     -11.677   4.606   1.698  0.00  0.00     0.007 A 
HETATM   28  C   UNL     1     -12.419   4.357   2.854  0.00  0.00     0.001 A 
HETATM   29  C   UNL     1     -12.179   3.206   3.601  0.00  0.00     0.000 A 
HETATM   30  C   UNL     1     -11.183   2.314   3.206  0.00  0.00     0.001 A 
HETATM   31  C   UNL     1     -10.442   2.559   2.049  0.00  0.00     0.007 A 
ENDBRANCH  25  26
ENDBRANCH  10  25
TORSDOF 6
