MODEL 1
REMARK VINA RESULT:    -9.901      0.000      0.000
REMARK INTER + INTRA:         -13.375
REMARK INTER:                 -11.487
REMARK INTRA:                  -1.888
REMARK UNBOUND:                -0.869
REMARK  5 active torsions:
REMARK  status: ('A' for Active; 'I' for Inactive)
REMARK    1  A    between atoms: C_7  and  C_8 
REMARK    2  A    between atoms: C_8  and  C_9 
REMARK    3  A    between atoms: C_16  and  C_20 
REMARK    4  A    between atoms: C_17  and  O_19 
REMARK       I    between atoms: C_20  and  N_22 
REMARK    5  A    between atoms: N_22  and  C_24 
ROOT
HETATM    1  C   UNL     1       0.218  14.641  22.785  0.00  0.00     0.071 A 
HETATM    2  N   UNL     1       1.224  15.429  23.197  0.00  0.00    -0.178 NA
HETATM    3  N   UNL     1       1.021  15.555  24.518  0.00  0.00    -0.277 N 
HETATM    4  H   UNL     1       1.670  16.122  25.052  0.00  0.00     0.189 HD
HETATM    5  C   UNL     1      -0.620  14.253  23.871  0.00  0.00     0.020 A 
HETATM    6  C   UNL     1      -0.114  14.937  24.969  0.00  0.00     0.065 A 
HETATM    7  C   UNL     1      -1.768  13.454  24.029  0.00  0.00     0.035 C 
HETATM    8  C   UNL     1      -2.402  13.413  25.284  0.00  0.00     0.066 C 
HETATM    9  C   UNL     1      -1.938  14.237  26.321  0.00  0.00     0.083 C 
HETATM   10  C   UNL     1      -0.748  14.961  26.213  0.00  0.00     0.069 C 
ENDROOT
BRANCH   8  11
HETATM   11  C   UNL     1      -3.601  12.550  25.494  0.00  0.00     0.260 C 
HETATM   12  O   UNL     1      -4.672  13.155  25.603  0.00  0.00    -0.267 OA
HETATM   13  N   UNL     1      -3.496  11.143  25.489  0.00  0.00    -0.318 N 
HETATM   14  C   UNL     1      -4.737  10.376  25.372  0.00  0.00     0.159 C 
BRANCH  13  15
HETATM   15  C   UNL     1      -2.302  10.394  25.768  0.00  0.00     0.039 A 
HETATM   16  C   UNL     1      -1.879  10.185  27.085  0.00  0.00     0.032 A 
HETATM   17  C   UNL     1      -0.690   9.503  27.367  0.00  0.00     0.042 A 
HETATM   18  C   UNL     1       0.084   8.998  26.329  0.00  0.00     0.102 A 
HETATM   19  C   UNL     1      -0.335   9.159  25.011  0.00  0.00     0.104 A 
HETATM   20  O   UNL     1       1.235   8.349  26.690  0.00  0.00    -0.346 OA
HETATM   21  C   UNL     1      -1.536   9.828  24.730  0.00  0.00     0.069 A 
HETATM   22  O   UNL     1       0.381   8.688  23.937  0.00  0.00    -0.346 OA
HETATM   23  C   UNL     1       1.736   8.386  24.304  0.00  0.00     0.202 C 
HETATM   24  C   UNL     1       1.787   7.597  25.604  0.00  0.00     0.202 C 
ENDBRANCH  13  15
ENDBRANCH   8  11
BRANCH   9  25
HETATM   25  O   UNL     1      -2.636  14.423  27.487  0.00  0.00    -0.360 OA
HETATM   26  H   UNL     1      -3.154  15.252  27.377  0.00  0.00     0.217 HD
ENDBRANCH   9  25
BRANCH   1  27
HETATM   27  C   UNL     1      -0.014  14.384  21.328  0.00  0.00     0.100 C 
BRANCH  27  28
HETATM   28  C   UNL     1      -1.341  14.963  20.892  0.00  0.00    -0.052 A 
HETATM   29  C   UNL     1      -2.496  14.197  20.684  0.00  0.00     0.014 A 
HETATM   30  C   UNL     1      -3.661  14.779  20.167  0.00  0.00    -0.061 A 
HETATM   31  C   UNL     1      -4.797  13.914  19.710  0.00  0.00     0.048 C 
HETATM   32  C   UNL     1      -3.711  16.163  19.970  0.00  0.00     0.007 A 
HETATM   33  C   UNL     1      -2.604  16.952  20.264  0.00  0.00     0.001 A 
HETATM   34  C   UNL     1      -1.425  16.355  20.711  0.00  0.00     0.007 A 
ENDBRANCH  27  28
ENDBRANCH   1  27
TORSDOF 5
ENDMDL
MODEL 2
REMARK VINA RESULT:    -9.863      0.888      1.677
REMARK INTER + INTRA:         -13.327
REMARK INTER:                 -11.484
REMARK INTRA:                  -1.843
REMARK UNBOUND:                -0.869
REMARK  5 active torsions:
REMARK  status: ('A' for Active; 'I' for Inactive)
REMARK    1  A    between atoms: C_7  and  C_8 
REMARK    2  A    between atoms: C_8  and  C_9 
REMARK    3  A    between atoms: C_16  and  C_20 
REMARK    4  A    between atoms: C_17  and  O_19 
REMARK       I    between atoms: C_20  and  N_22 
REMARK    5  A    between atoms: N_22  and  C_24 
ROOT
HETATM    1  C   UNL     1       0.238  14.624  22.842  0.00  0.00     0.071 A 
HETATM    2  N   UNL     1       1.249  15.401  23.265  0.00  0.00    -0.178 NA
HETATM    3  N   UNL     1       1.027  15.536  24.582  0.00  0.00    -0.277 N 
HETATM    4  H   UNL     1       1.676  16.097  25.123  0.00  0.00     0.189 HD
HETATM    5  C   UNL     1      -0.620  14.252  23.916  0.00  0.00     0.020 A 
HETATM    6  C   UNL     1      -0.122  14.935  25.019  0.00  0.00     0.065 A 
HETATM    7  C   UNL     1      -1.782  13.469  24.061  0.00  0.00     0.035 C 
HETATM    8  C   UNL     1      -2.434  13.441  25.306  0.00  0.00     0.066 C 
HETATM    9  C   UNL     1      -1.975  14.265  26.347  0.00  0.00     0.083 C 
HETATM   10  C   UNL     1      -0.775  14.973  26.253  0.00  0.00     0.069 C 
ENDROOT
BRANCH   8  11
HETATM   11  C   UNL     1      -3.647  12.595  25.503  0.00  0.00     0.260 C 
HETATM   12  O   UNL     1      -4.721  13.206  25.499  0.00  0.00    -0.267 OA
HETATM   13  N   UNL     1      -3.548  11.191  25.606  0.00  0.00    -0.318 N 
HETATM   14  C   UNL     1      -4.781  10.416  25.467  0.00  0.00     0.159 C 
BRANCH  13  15
HETATM   15  C   UNL     1      -2.376  10.466  26.013  0.00  0.00     0.039 A 
HETATM   16  C   UNL     1      -1.499   9.932  25.064  0.00  0.00     0.032 A 
HETATM   17  C   UNL     1      -0.384   9.178  25.447  0.00  0.00     0.042 A 
HETATM   18  C   UNL     1      -0.118   8.967  26.795  0.00  0.00     0.102 A 
HETATM   19  C   UNL     1      -0.955   9.520  27.760  0.00  0.00     0.104 A 
HETATM   20  O   UNL     1       0.989   8.214  27.084  0.00  0.00    -0.346 OA
HETATM   21  C   UNL     1      -2.063  10.290  27.375  0.00  0.00     0.069 A 
HETATM   22  O   UNL     1      -0.753   9.350  29.109  0.00  0.00    -0.346 OA
HETATM   23  C   UNL     1       0.141   8.257  29.370  0.00  0.00     0.202 C 
HETATM   24  C   UNL     1       1.361   8.320  28.463  0.00  0.00     0.202 C 
ENDBRANCH  13  15
ENDBRANCH   8  11
BRANCH   9  25
HETATM   25  O   UNL     1      -2.688  14.465  27.501  0.00  0.00    -0.360 OA
HETATM   26  H   UNL     1      -2.092  14.938  28.123  0.00  0.00     0.217 HD
ENDBRANCH   9  25
BRANCH   1  27
HETATM   27  C   UNL     1       0.025  14.363  21.382  0.00  0.00     0.100 C 
BRANCH  27  28
HETATM   28  C   UNL     1      -1.289  14.955  20.925  0.00  0.00    -0.052 A 
HETATM   29  C   UNL     1      -2.454  14.202  20.717  0.00  0.00     0.014 A 
HETATM   30  C   UNL     1      -3.605  14.792  20.181  0.00  0.00    -0.061 A 
HETATM   31  C   UNL     1      -4.749  13.937  19.727  0.00  0.00     0.048 C 
HETATM   32  C   UNL     1      -3.633  16.174  19.961  0.00  0.00     0.007 A 
HETATM   33  C   UNL     1      -2.517  16.951  20.253  0.00  0.00     0.001 A 
HETATM   34  C   UNL     1      -1.351  16.345  20.721  0.00  0.00     0.007 A 
ENDBRANCH  27  28
ENDBRANCH   1  27
TORSDOF 5
ENDMDL
MODEL 3
REMARK VINA RESULT:    -9.409      2.767      4.946
REMARK INTER + INTRA:         -12.754
REMARK INTER:                 -11.902
REMARK INTRA:                  -0.851
REMARK UNBOUND:                -0.869
REMARK  5 active torsions:
REMARK  status: ('A' for Active; 'I' for Inactive)
REMARK    1  A    between atoms: C_7  and  C_8 
REMARK    2  A    between atoms: C_8  and  C_9 
REMARK    3  A    between atoms: C_16  and  C_20 
REMARK    4  A    between atoms: C_17  and  O_19 
REMARK       I    between atoms: C_20  and  N_22 
REMARK    5  A    between atoms: N_22  and  C_24 
ROOT
HETATM    1  C   UNL     1      -2.324  12.114  22.523  0.00  0.00     0.071 A 
HETATM    2  N   UNL     1      -2.874  10.941  22.172  0.00  0.00    -0.178 NA
HETATM    3  N   UNL     1      -3.323  10.431  23.330  0.00  0.00    -0.277 N 
HETATM    4  H   UNL     1      -3.783   9.527  23.310  0.00  0.00     0.189 HD
HETATM    5  C   UNL     1      -2.448  12.350  23.923  0.00  0.00     0.020 A 
HETATM    6  C   UNL     1      -3.028  11.194  24.427  0.00  0.00     0.065 A 
HETATM    7  C   UNL     1      -2.084  13.380  24.813  0.00  0.00     0.035 C 
HETATM    8  C   UNL     1      -2.272  13.185  26.193  0.00  0.00     0.066 C 
HETATM    9  C   UNL     1      -2.724  11.941  26.662  0.00  0.00     0.083 C 
HETATM   10  C   UNL     1      -3.178  10.946  25.793  0.00  0.00     0.069 C 
ENDROOT
BRANCH   8  11
HETATM   11  C   UNL     1      -1.929  14.268  27.160  0.00  0.00     0.260 C 
HETATM   12  O   UNL     1      -2.679  14.357  28.138  0.00  0.00    -0.267 OA
HETATM   13  N   UNL     1      -0.780  15.068  26.982  0.00  0.00    -0.318 N 
HETATM   14  C   UNL     1      -0.334  15.870  28.121  0.00  0.00     0.159 C 
BRANCH  13  15
HETATM   15  C   UNL     1      -0.112  15.302  25.732  0.00  0.00     0.039 A 
HETATM   16  C   UNL     1      -0.742  16.015  24.706  0.00  0.00     0.032 A 
HETATM   17  C   UNL     1      -0.123  16.204  23.466  0.00  0.00     0.042 A 
HETATM   18  C   UNL     1       1.152  15.698  23.242  0.00  0.00     0.102 A 
HETATM   19  C   UNL     1       1.816  15.018  24.258  0.00  0.00     0.104 A 
HETATM   20  O   UNL     1       1.684  15.921  21.999  0.00  0.00    -0.346 OA
HETATM   21  C   UNL     1       1.201  14.844  25.508  0.00  0.00     0.069 A 
HETATM   22  O   UNL     1       3.076  14.490  24.106  0.00  0.00    -0.346 OA
HETATM   23  C   UNL     1       3.432  14.381  22.719  0.00  0.00     0.202 C 
HETATM   24  C   UNL     1       3.091  15.658  21.966  0.00  0.00     0.202 C 
ENDBRANCH  13  15
ENDBRANCH   8  11
BRANCH   9  25
HETATM   25  O   UNL     1      -2.711  11.602  27.990  0.00  0.00    -0.360 OA
HETATM   26  H   UNL     1      -2.840  10.628  28.035  0.00  0.00     0.217 HD
ENDBRANCH   9  25
BRANCH   1  27
HETATM   27  C   UNL     1      -1.556  12.934  21.533  0.00  0.00     0.100 C 
BRANCH  27  28
HETATM   28  C   UNL     1      -2.471  13.913  20.833  0.00  0.00    -0.052 A 
HETATM   29  C   UNL     1      -3.666  13.546  20.196  0.00  0.00     0.014 A 
HETATM   30  C   UNL     1      -4.408  14.482  19.466  0.00  0.00    -0.061 A 
HETATM   31  C   UNL     1      -5.533  14.030  18.585  0.00  0.00     0.048 C 
HETATM   32  C   UNL     1      -4.018  15.826  19.470  0.00  0.00     0.007 A 
HETATM   33  C   UNL     1      -2.888  16.224  20.177  0.00  0.00     0.001 A 
HETATM   34  C   UNL     1      -2.115  15.273  20.844  0.00  0.00     0.007 A 
ENDBRANCH  27  28
ENDBRANCH   1  27
TORSDOF 5
ENDMDL
MODEL 4
REMARK VINA RESULT:    -9.155      2.290      7.340
REMARK INTER + INTRA:         -12.432
REMARK INTER:                 -10.529
REMARK INTRA:                  -1.903
REMARK UNBOUND:                -0.869
REMARK  5 active torsions:
REMARK  status: ('A' for Active; 'I' for Inactive)
REMARK    1  A    between atoms: C_7  and  C_8 
REMARK    2  A    between atoms: C_8  and  C_9 
REMARK    3  A    between atoms: C_16  and  C_20 
REMARK    4  A    between atoms: C_17  and  O_19 
REMARK       I    between atoms: C_20  and  N_22 
REMARK    5  A    between atoms: N_22  and  C_24 
ROOT
HETATM    1  C   UNL     1      -2.571  11.972  26.098  0.00  0.00     0.071 A 
HETATM    2  N   UNL     1      -3.385  12.443  27.056  0.00  0.00    -0.178 NA
HETATM    3  N   UNL     1      -2.911  13.673  27.312  0.00  0.00    -0.277 N 
HETATM    4  H   UNL     1      -3.377  14.230  28.020  0.00  0.00     0.189 HD
HETATM    5  C   UNL     1      -1.581  12.931  25.736  0.00  0.00     0.020 A 
HETATM    6  C   UNL     1      -1.782  13.993  26.607  0.00  0.00     0.065 A 
HETATM    7  C   UNL     1      -0.516  12.989  24.816  0.00  0.00     0.035 C 
HETATM    8  C   UNL     1       0.346  14.100  24.842  0.00  0.00     0.066 C 
HETATM    9  C   UNL     1       0.189  15.076  25.839  0.00  0.00     0.083 C 
HETATM   10  C   UNL     1      -0.915  15.083  26.696  0.00  0.00     0.069 C 
ENDROOT
BRANCH   8  11
HETATM   11  C   UNL     1       1.464  14.209  23.860  0.00  0.00     0.260 C 
HETATM   12  O   UNL     1       2.599  14.151  24.345  0.00  0.00    -0.267 OA
HETATM   13  N   UNL     1       1.211  14.297  22.474  0.00  0.00    -0.318 N 
HETATM   14  C   UNL     1       2.337  14.071  21.568  0.00  0.00     0.159 C 
BRANCH  13  15
HETATM   15  C   UNL     1      -0.010  14.762  21.877  0.00  0.00     0.039 A 
HETATM   16  C   UNL     1      -0.280  16.131  21.774  0.00  0.00     0.032 A 
HETATM   17  C   UNL     1      -1.488  16.595  21.242  0.00  0.00     0.042 A 
HETATM   18  C   UNL     1      -2.439  15.691  20.784  0.00  0.00     0.102 A 
HETATM   19  C   UNL     1      -2.179  14.325  20.841  0.00  0.00     0.104 A 
HETATM   20  O   UNL     1      -3.596  16.228  20.284  0.00  0.00    -0.346 OA
HETATM   21  C   UNL     1      -0.959  13.861  21.358  0.00  0.00     0.069 A 
HETATM   22  O   UNL     1      -3.073  13.376  20.407  0.00  0.00    -0.346 OA
HETATM   23  C   UNL     1      -4.394  13.923  20.276  0.00  0.00     0.202 C 
HETATM   24  C   UNL     1      -4.360  15.262  19.553  0.00  0.00     0.202 C 
ENDBRANCH  13  15
ENDBRANCH   8  11
BRANCH   9  25
HETATM   25  O   UNL     1       1.120  16.055  26.070  0.00  0.00    -0.360 OA
HETATM   26  H   UNL     1       1.748  15.698  26.737  0.00  0.00     0.217 HD
ENDBRANCH   9  25
BRANCH   1  27
HETATM   27  C   UNL     1      -2.662  10.549  25.639  0.00  0.00     0.100 C 
BRANCH  27  28
HETATM   28  C   UNL     1      -1.329   9.854  25.802  0.00  0.00    -0.052 A 
HETATM   29  C   UNL     1      -0.546   9.408  24.728  0.00  0.00     0.014 A 
HETATM   30  C   UNL     1       0.622   8.667  24.949  0.00  0.00    -0.061 A 
HETATM   31  C   UNL     1       1.308   7.981  23.806  0.00  0.00     0.048 C 
HETATM   32  C   UNL     1       1.077   8.472  26.258  0.00  0.00     0.007 A 
HETATM   33  C   UNL     1       0.361   8.991  27.332  0.00  0.00     0.001 A 
HETATM   34  C   UNL     1      -0.837   9.667  27.106  0.00  0.00     0.007 A 
ENDBRANCH  27  28
ENDBRANCH   1  27
TORSDOF 5
ENDMDL
MODEL 5
REMARK VINA RESULT:    -9.100      2.829      5.449
REMARK INTER + INTRA:         -12.363
REMARK INTER:                 -11.302
REMARK INTRA:                  -1.062
REMARK UNBOUND:                -0.869
REMARK  5 active torsions:
REMARK  status: ('A' for Active; 'I' for Inactive)
REMARK    1  A    between atoms: C_7  and  C_8 
REMARK    2  A    between atoms: C_8  and  C_9 
REMARK    3  A    between atoms: C_16  and  C_20 
REMARK    4  A    between atoms: C_17  and  O_19 
REMARK       I    between atoms: C_20  and  N_22 
REMARK    5  A    between atoms: N_22  and  C_24 
ROOT
HETATM    1  C   UNL     1       0.990  14.381  24.287  0.00  0.00     0.071 A 
HETATM    2  N   UNL     1       1.699  15.467  24.633  0.00  0.00    -0.178 NA
HETATM    3  N   UNL     1       1.162  15.848  25.803  0.00  0.00    -0.277 N 
HETATM    4  H   UNL     1       1.543  16.668  26.262  0.00  0.00     0.189 HD
HETATM    5  C   UNL     1       0.005  14.066  25.267  0.00  0.00     0.020 A 
HETATM    6  C   UNL     1       0.091  15.093  26.198  0.00  0.00     0.065 A 
HETATM    7  C   UNL     1      -0.975  13.068  25.435  0.00  0.00     0.035 C 
HETATM    8  C   UNL     1      -1.872  13.169  26.513  0.00  0.00     0.066 C 
HETATM    9  C   UNL     1      -1.838  14.304  27.338  0.00  0.00     0.083 C 
HETATM   10  C   UNL     1      -0.817  15.253  27.246  0.00  0.00     0.069 C 
ENDROOT
BRANCH   8  11
HETATM   11  C   UNL     1      -2.900  12.111  26.739  0.00  0.00     0.260 C 
HETATM   12  O   UNL     1      -2.821  11.524  27.823  0.00  0.00    -0.267 OA
HETATM   13  N   UNL     1      -3.923  11.874  25.795  0.00  0.00    -0.318 N 
HETATM   14  C   UNL     1      -5.064  11.068  26.227  0.00  0.00     0.159 C 
BRANCH  13  15
HETATM   15  C   UNL     1      -3.860  12.202  24.398  0.00  0.00     0.039 A 
HETATM   16  C   UNL     1      -3.256  11.331  23.484  0.00  0.00     0.032 A 
HETATM   17  C   UNL     1      -3.143  11.664  22.130  0.00  0.00     0.042 A 
HETATM   18  C   UNL     1      -3.655  12.869  21.665  0.00  0.00     0.102 A 
HETATM   19  C   UNL     1      -4.294  13.735  22.546  0.00  0.00     0.104 A 
HETATM   20  O   UNL     1      -3.497  13.119  20.327  0.00  0.00    -0.346 OA
HETATM   21  C   UNL     1      -4.423  13.394  23.901  0.00  0.00     0.069 A 
HETATM   22  O   UNL     1      -4.822  14.943  22.156  0.00  0.00    -0.346 OA
HETATM   23  C   UNL     1      -4.300  15.354  20.883  0.00  0.00     0.202 C 
HETATM   24  C   UNL     1      -4.322  14.204  19.887  0.00  0.00     0.202 C 
ENDBRANCH  13  15
ENDBRANCH   8  11
BRANCH   9  25
HETATM   25  O   UNL     1      -2.819  14.581  28.256  0.00  0.00    -0.360 OA
HETATM   26  H   UNL     1      -3.454  13.831  28.227  0.00  0.00     0.217 HD
ENDBRANCH   9  25
BRANCH   1  27
HETATM   27  C   UNL     1       1.170  13.736  22.947  0.00  0.00     0.100 C 
BRANCH  27  28
HETATM   28  C   UNL     1       2.325  14.369  22.206  0.00  0.00    -0.052 A 
HETATM   29  C   UNL     1       3.669  14.214  22.577  0.00  0.00     0.014 A 
HETATM   30  C   UNL     1       4.683  14.922  21.919  0.00  0.00    -0.061 A 
HETATM   31  C   UNL     1       6.071  14.949  22.482  0.00  0.00     0.048 C 
HETATM   32  C   UNL     1       4.365  15.700  20.800  0.00  0.00     0.007 A 
HETATM   33  C   UNL     1       3.049  15.787  20.359  0.00  0.00     0.001 A 
HETATM   34  C   UNL     1       2.036  15.135  21.063  0.00  0.00     0.007 A 
ENDBRANCH  27  28
ENDBRANCH   1  27
TORSDOF 5
ENDMDL
MODEL 6
REMARK VINA RESULT:    -8.973      2.832      6.876
REMARK INTER + INTRA:         -12.203
REMARK INTER:                 -10.673
REMARK INTRA:                  -1.530
REMARK UNBOUND:                -0.869
REMARK  5 active torsions:
REMARK  status: ('A' for Active; 'I' for Inactive)
REMARK    1  A    between atoms: C_7  and  C_8 
REMARK    2  A    between atoms: C_8  and  C_9 
REMARK    3  A    between atoms: C_16  and  C_20 
REMARK    4  A    between atoms: C_17  and  O_19 
REMARK       I    between atoms: C_20  and  N_22 
REMARK    5  A    between atoms: N_22  and  C_24 
ROOT
HETATM    1  C   UNL     1       0.063   9.972  26.127  0.00  0.00     0.071 A 
HETATM    2  N   UNL     1       0.181   9.488  27.374  0.00  0.00    -0.178 NA
HETATM    3  N   UNL     1      -1.036   9.667  27.911  0.00  0.00    -0.277 N 
HETATM    4  H   UNL     1      -1.186   9.373  28.870  0.00  0.00     0.189 HD
HETATM    5  C   UNL     1      -1.258  10.444  25.874  0.00  0.00     0.020 A 
HETATM    6  C   UNL     1      -1.921  10.307  27.086  0.00  0.00     0.065 A 
HETATM    7  C   UNL     1      -1.936  11.018  24.781  0.00  0.00     0.035 C 
HETATM    8  C   UNL     1      -3.250  11.484  24.963  0.00  0.00     0.066 C 
HETATM    9  C   UNL     1      -3.823  11.457  26.245  0.00  0.00     0.083 C 
HETATM   10  C   UNL     1      -3.204  10.808  27.316  0.00  0.00     0.069 C 
ENDROOT
BRANCH   8  11
HETATM   11  C   UNL     1      -4.009  12.066  23.818  0.00  0.00     0.260 C 
HETATM   12  O   UNL     1      -4.972  11.397  23.431  0.00  0.00    -0.267 OA
HETATM   13  N   UNL     1      -3.672  13.329  23.287  0.00  0.00    -0.318 N 
HETATM   14  C   UNL     1      -4.646  13.971  22.404  0.00  0.00     0.159 C 
BRANCH  13  15
HETATM   15  C   UNL     1      -2.386  13.962  23.391  0.00  0.00     0.039 A 
HETATM   16  C   UNL     1      -2.069  14.763  24.493  0.00  0.00     0.032 A 
HETATM   17  C   UNL     1      -0.840  15.427  24.579  0.00  0.00     0.042 A 
HETATM   18  C   UNL     1       0.102  15.278  23.569  0.00  0.00     0.102 A 
HETATM   19  C   UNL     1      -0.173  14.456  22.481  0.00  0.00     0.104 A 
HETATM   20  O   UNL     1       1.277  15.966  23.729  0.00  0.00    -0.346 OA
HETATM   21  C   UNL     1      -1.399  13.777  22.403  0.00  0.00     0.069 A 
HETATM   22  O   UNL     1       0.711  14.264  21.446  0.00  0.00    -0.346 OA
HETATM   23  C   UNL     1       1.727  15.279  21.433  0.00  0.00     0.202 C 
HETATM   24  C   UNL     1       2.290  15.507  22.827  0.00  0.00     0.202 C 
ENDBRANCH  13  15
ENDBRANCH   8  11
BRANCH   9  25
HETATM   25  O   UNL     1      -4.997  12.099  26.544  0.00  0.00    -0.360 OA
HETATM   26  H   UNL     1      -5.078  12.098  27.524  0.00  0.00     0.217 HD
ENDBRANCH   9  25
BRANCH   1  27
HETATM   27  C   UNL     1       1.258  10.107  25.235  0.00  0.00     0.100 C 
BRANCH  27  28
HETATM   28  C   UNL     1       1.765   8.745  24.820  0.00  0.00    -0.052 A 
HETATM   29  C   UNL     1       0.988   7.797  24.137  0.00  0.00     0.014 A 
HETATM   30  C   UNL     1       1.482   6.510  23.885  0.00  0.00    -0.061 A 
HETATM   31  C   UNL     1       0.563   5.435  23.390  0.00  0.00     0.048 C 
HETATM   32  C   UNL     1       2.807   6.204  24.212  0.00  0.00     0.007 A 
HETATM   33  C   UNL     1       3.622   7.164  24.803  0.00  0.00     0.001 A 
HETATM   34  C   UNL     1       3.102   8.421  25.114  0.00  0.00     0.007 A 
ENDBRANCH  27  28
ENDBRANCH   1  27
TORSDOF 5
ENDMDL
MODEL 7
REMARK VINA RESULT:    -8.930      2.237      4.149
REMARK INTER + INTRA:         -12.149
REMARK INTER:                 -11.279
REMARK INTRA:                  -0.869
REMARK UNBOUND:                -0.869
REMARK  5 active torsions:
REMARK  status: ('A' for Active; 'I' for Inactive)
REMARK    1  A    between atoms: C_7  and  C_8 
REMARK    2  A    between atoms: C_8  and  C_9 
REMARK    3  A    between atoms: C_16  and  C_20 
REMARK    4  A    between atoms: C_17  and  O_19 
REMARK       I    between atoms: C_20  and  N_22 
REMARK    5  A    between atoms: N_22  and  C_24 
ROOT
HETATM    1  C   UNL     1       0.701  15.170  24.228  0.00  0.00     0.071 A 
HETATM    2  N   UNL     1       0.531  16.087  23.262  0.00  0.00    -0.178 NA
HETATM    3  N   UNL     1      -0.802  16.160  23.111  0.00  0.00    -0.277 N 
HETATM    4  H   UNL     1      -1.172  16.800  22.418  0.00  0.00     0.189 HD
HETATM    5  C   UNL     1      -0.548  14.674  24.703  0.00  0.00     0.020 A 
HETATM    6  C   UNL     1      -1.500  15.279  23.893  0.00  0.00     0.065 A 
HETATM    7  C   UNL     1      -0.965  13.747  25.678  0.00  0.00     0.035 C 
HETATM    8  C   UNL     1      -2.330  13.423  25.769  0.00  0.00     0.066 C 
HETATM    9  C   UNL     1      -3.231  13.950  24.831  0.00  0.00     0.083 C 
HETATM   10  C   UNL     1      -2.854  14.940  23.920  0.00  0.00     0.069 C 
ENDROOT
BRANCH   8  11
HETATM   11  C   UNL     1      -2.810  12.471  26.813  0.00  0.00     0.260 C 
HETATM   12  O   UNL     1      -3.407  12.988  27.763  0.00  0.00    -0.267 OA
HETATM   13  N   UNL     1      -2.645  11.077  26.661  0.00  0.00    -0.318 N 
HETATM   14  C   UNL     1      -3.419  10.207  27.546  0.00  0.00     0.159 C 
BRANCH  13  15
HETATM   15  C   UNL     1      -1.654  10.440  25.839  0.00  0.00     0.039 A 
HETATM   16  C   UNL     1      -1.731  10.505  24.444  0.00  0.00     0.032 A 
HETATM   17  C   UNL     1      -0.802   9.844  23.633  0.00  0.00     0.042 A 
HETATM   18  C   UNL     1       0.236   9.123  24.211  0.00  0.00     0.102 A 
HETATM   19  C   UNL     1       0.357   9.074  25.597  0.00  0.00     0.104 A 
HETATM   20  O   UNL     1       1.098   8.501  23.347  0.00  0.00    -0.346 OA
HETATM   21  C   UNL     1      -0.565   9.752  26.409  0.00  0.00     0.069 A 
HETATM   22  O   UNL     1       1.357   8.380  26.235  0.00  0.00    -0.346 OA
HETATM   23  C   UNL     1       1.981   7.433  25.354  0.00  0.00     0.202 C 
HETATM   24  C   UNL     1       2.293   8.066  24.006  0.00  0.00     0.202 C 
ENDBRANCH  13  15
ENDBRANCH   8  11
BRANCH   9  25
HETATM   25  O   UNL     1      -4.523  13.503  24.714  0.00  0.00    -0.360 OA
HETATM   26  H   UNL     1      -4.943  13.617  25.595  0.00  0.00     0.217 HD
ENDBRANCH   9  25
BRANCH   1  27
HETATM   27  C   UNL     1       2.067  14.673  24.588  0.00  0.00     0.100 C 
BRANCH  27  28
HETATM   28  C   UNL     1       2.929  14.552  23.352  0.00  0.00    -0.052 A 
HETATM   29  C   UNL     1       4.303  14.835  23.329  0.00  0.00     0.014 A 
HETATM   30  C   UNL     1       5.020  14.817  22.126  0.00  0.00    -0.061 A 
HETATM   31  C   UNL     1       6.414  15.364  22.071  0.00  0.00     0.048 C 
HETATM   32  C   UNL     1       4.386  14.395  20.952  0.00  0.00     0.007 A 
HETATM   33  C   UNL     1       3.047  14.018  20.976  0.00  0.00     0.001 A 
HETATM   34  C   UNL     1       2.323  14.107  22.165  0.00  0.00     0.007 A 
ENDBRANCH  27  28
ENDBRANCH   1  27
TORSDOF 5
ENDMDL
MODEL 8
REMARK VINA RESULT:    -8.908      2.672      7.877
REMARK INTER + INTRA:         -12.121
REMARK INTER:                 -10.256
REMARK INTRA:                  -1.865
REMARK UNBOUND:                -0.869
REMARK  5 active torsions:
REMARK  status: ('A' for Active; 'I' for Inactive)
REMARK    1  A    between atoms: C_7  and  C_8 
REMARK    2  A    between atoms: C_8  and  C_9 
REMARK    3  A    between atoms: C_16  and  C_20 
REMARK    4  A    between atoms: C_17  and  O_19 
REMARK       I    between atoms: C_20  and  N_22 
REMARK    5  A    between atoms: N_22  and  C_24 
ROOT
HETATM    1  C   UNL     1       0.570   9.040  25.434  0.00  0.00     0.071 A 
HETATM    2  N   UNL     1       0.528   8.303  24.312  0.00  0.00    -0.178 NA
HETATM    3  N   UNL     1      -0.519   8.800  23.634  0.00  0.00    -0.277 N 
HETATM    4  H   UNL     1      -0.750   8.387  22.737  0.00  0.00     0.189 HD
HETATM    5  C   UNL     1      -0.457  10.027  25.449  0.00  0.00     0.020 A 
HETATM    6  C   UNL     1      -1.198   9.784  24.299  0.00  0.00     0.065 A 
HETATM    7  C   UNL     1      -0.868  11.049  26.327  0.00  0.00     0.035 C 
HETATM    8  C   UNL     1      -2.047  11.759  26.042  0.00  0.00     0.066 C 
HETATM    9  C   UNL     1      -2.839  11.376  24.947  0.00  0.00     0.083 C 
HETATM   10  C   UNL     1      -2.401  10.433  24.014  0.00  0.00     0.069 C 
ENDROOT
BRANCH   8  11
HETATM   11  C   UNL     1      -2.492  12.869  26.933  0.00  0.00     0.260 C 
HETATM   12  O   UNL     1      -3.375  12.572  27.744  0.00  0.00    -0.267 OA
HETATM   13  N   UNL     1      -1.876  14.138  26.881  0.00  0.00    -0.318 N 
HETATM   14  C   UNL     1      -2.133  15.058  27.988  0.00  0.00     0.159 C 
BRANCH  13  15
HETATM   15  C   UNL     1      -1.164  14.674  25.753  0.00  0.00     0.039 A 
HETATM   16  C   UNL     1       0.194  14.996  25.851  0.00  0.00     0.032 A 
HETATM   17  C   UNL     1       0.884  15.567  24.777  0.00  0.00     0.042 A 
HETATM   18  C   UNL     1       0.227  15.804  23.576  0.00  0.00     0.102 A 
HETATM   19  C   UNL     1      -1.114  15.458  23.440  0.00  0.00     0.104 A 
HETATM   20  O   UNL     1       0.974  16.371  22.577  0.00  0.00    -0.346 OA
HETATM   21  C   UNL     1      -1.802  14.869  24.513  0.00  0.00     0.069 A 
HETATM   22  O   UNL     1      -1.826  15.665  22.283  0.00  0.00    -0.346 OA
HETATM   23  C   UNL     1      -1.161  16.602  21.421  0.00  0.00     0.202 C 
HETATM   24  C   UNL     1       0.321  16.280  21.305  0.00  0.00     0.202 C 
ENDBRANCH  13  15
ENDBRANCH   8  11
BRANCH   9  25
HETATM   25  O   UNL     1      -4.104  11.863  24.743  0.00  0.00    -0.360 OA
HETATM   26  H   UNL     1      -4.655  11.105  24.446  0.00  0.00     0.217 HD
ENDBRANCH   9  25
BRANCH   1  27
HETATM   27  C   UNL     1       1.510   8.696  26.548  0.00  0.00     0.100 C 
BRANCH  27  28
HETATM   28  C   UNL     1       0.747   8.153  27.735  0.00  0.00    -0.052 A 
HETATM   29  C   UNL     1       0.793   8.719  29.017  0.00  0.00     0.014 A 
HETATM   30  C   UNL     1       0.156   8.099  30.100  0.00  0.00    -0.061 A 
HETATM   31  C   UNL     1       0.421   8.567  31.499  0.00  0.00     0.048 C 
HETATM   32  C   UNL     1      -0.635   6.967  29.878  0.00  0.00     0.007 A 
HETATM   33  C   UNL     1      -0.769   6.447  28.594  0.00  0.00     0.001 A 
HETATM   34  C   UNL     1      -0.075   7.030  27.534  0.00  0.00     0.007 A 
ENDBRANCH  27  28
ENDBRANCH   1  27
TORSDOF 5
ENDMDL
MODEL 9
REMARK VINA RESULT:    -8.875      2.162      4.052
REMARK INTER + INTRA:         -12.079
REMARK INTER:                 -10.965
REMARK INTRA:                  -1.113
REMARK UNBOUND:                -0.869
REMARK  5 active torsions:
REMARK  status: ('A' for Active; 'I' for Inactive)
REMARK    1  A    between atoms: C_7  and  C_8 
REMARK    2  A    between atoms: C_8  and  C_9 
REMARK    3  A    between atoms: C_16  and  C_20 
REMARK    4  A    between atoms: C_17  and  O_19 
REMARK       I    between atoms: C_20  and  N_22 
REMARK    5  A    between atoms: N_22  and  C_24 
ROOT
HETATM    1  C   UNL     1      -0.995  15.898  22.329  0.00  0.00     0.071 A 
HETATM    2  N   UNL     1      -1.364  15.950  21.039  0.00  0.00    -0.178 NA
HETATM    3  N   UNL     1      -2.294  14.988  20.927  0.00  0.00    -0.277 N 
HETATM    4  H   UNL     1      -2.722  14.838  20.020  0.00  0.00     0.189 HD
HETATM    5  C   UNL     1      -1.720  14.898  23.040  0.00  0.00     0.020 A 
HETATM    6  C   UNL     1      -2.495  14.270  22.074  0.00  0.00     0.065 A 
HETATM    7  C   UNL     1      -1.761  14.426  24.367  0.00  0.00     0.035 C 
HETATM    8  C   UNL     1      -2.546  13.298  24.665  0.00  0.00     0.066 C 
HETATM    9  C   UNL     1      -3.193  12.611  23.626  0.00  0.00     0.083 C 
HETATM   10  C   UNL     1      -3.242  13.117  22.324  0.00  0.00     0.069 C 
ENDROOT
BRANCH   8  11
HETATM   11  C   UNL     1      -2.638  12.793  26.065  0.00  0.00     0.260 C 
HETATM   12  O   UNL     1      -3.227  13.537  26.856  0.00  0.00    -0.267 OA
HETATM   13  N   UNL     1      -2.144  11.518  26.414  0.00  0.00    -0.318 N 
HETATM   14  C   UNL     1      -2.558  10.965  27.704  0.00  0.00     0.159 C 
BRANCH  13  15
HETATM   15  C   UNL     1      -1.131  10.791  25.700  0.00  0.00     0.039 A 
HETATM   16  C   UNL     1      -0.100  11.465  25.037  0.00  0.00     0.032 A 
HETATM   17  C   UNL     1       0.862  10.771  24.295  0.00  0.00     0.042 A 
HETATM   18  C   UNL     1       0.817   9.384  24.223  0.00  0.00     0.102 A 
HETATM   19  C   UNL     1      -0.177   8.688  24.904  0.00  0.00     0.104 A 
HETATM   20  O   UNL     1       1.791   8.783  23.471  0.00  0.00    -0.346 OA
HETATM   21  C   UNL     1      -1.131   9.383  25.663  0.00  0.00     0.069 A 
HETATM   22  O   UNL     1      -0.283   7.318  24.876  0.00  0.00    -0.346 OA
HETATM   23  C   UNL     1       0.471   6.758  23.790  0.00  0.00     0.202 C 
HETATM   24  C   UNL     1       1.860   7.373  23.714  0.00  0.00     0.202 C 
ENDBRANCH  13  15
ENDBRANCH   8  11
BRANCH   9  25
HETATM   25  O   UNL     1      -3.780  11.384  23.803  0.00  0.00    -0.360 OA
HETATM   26  H   UNL     1      -4.376  11.465  24.580  0.00  0.00     0.217 HD
ENDBRANCH   9  25
BRANCH   1  27
HETATM   27  C   UNL     1       0.155  16.713  22.837  0.00  0.00     0.100 C 
BRANCH  27  28
HETATM   28  C   UNL     1       1.352  15.830  23.106  0.00  0.00    -0.052 A 
HETATM   29  C   UNL     1       2.402  15.640  22.195  0.00  0.00     0.014 A 
HETATM   30  C   UNL     1       3.423  14.718  22.457  0.00  0.00    -0.061 A 
HETATM   31  C   UNL     1       4.391  14.337  21.378  0.00  0.00     0.048 C 
HETATM   32  C   UNL     1       3.462  14.066  23.695  0.00  0.00     0.007 A 
HETATM   33  C   UNL     1       2.480  14.316  24.648  0.00  0.00     0.001 A 
HETATM   34  C   UNL     1       1.428  15.183  24.351  0.00  0.00     0.007 A 
ENDBRANCH  27  28
ENDBRANCH   1  27
TORSDOF 5
ENDMDL
