REMARK  5 active torsions:
REMARK  status: ('A' for Active; 'I' for Inactive)
REMARK    1  A    between atoms: C_7  and  C_8 
REMARK    2  A    between atoms: C_8  and  C_9 
REMARK    3  A    between atoms: C_16  and  C_20 
REMARK    4  A    between atoms: C_17  and  O_19 
REMARK       I    between atoms: C_20  and  N_22 
REMARK    5  A    between atoms: N_22  and  C_24 
ROOT
HETATM    1  C   UNL     1      -3.330   1.184  -0.253  0.00  0.00     0.071 A 
HETATM    2  N   UNL     1      -4.645   1.319  -0.017  0.00  0.00    -0.178 NA
HETATM    3  N   UNL     1      -4.844   2.647  -0.028  0.00  0.00    -0.277 N 
HETATM    4  H   UNL     1      -5.783   2.993   0.135  0.00  0.00     0.189 HD
HETATM    5  C   UNL     1      -2.699   2.449  -0.433  0.00  0.00     0.020 A 
HETATM    6  C   UNL     1      -3.701   3.381  -0.195  0.00  0.00     0.065 A 
HETATM    7  C   UNL     1      -1.394   2.900  -0.711  0.00  0.00     0.035 C 
HETATM    8  C   UNL     1      -1.131   4.281  -0.688  0.00  0.00     0.066 C 
HETATM    9  C   UNL     1      -2.143   5.172  -0.297  0.00  0.00     0.083 C 
HETATM   10  C   UNL     1      -3.463   4.754  -0.111  0.00  0.00     0.069 C 
ENDROOT
BRANCH   8  11
HETATM   11  C   UNL     1       0.232   4.794  -1.011  0.00  0.00     0.260 C 
HETATM   12  O   UNL     1       0.657   5.673  -0.254  0.00  0.00    -0.267 OA
HETATM   13  N   UNL     1       0.988   4.241  -2.067  0.00  0.00    -0.318 N 
HETATM   14  C   UNL     1       2.415   4.560  -2.113  0.00  0.00     0.159 C 
BRANCH  13  15
HETATM   15  C   UNL     1       0.450   3.540  -3.200  0.00  0.00     0.039 A 
HETATM   16  C   UNL     1      -0.817   3.856  -3.702  0.00  0.00     0.032 A 
HETATM   17  C   UNL     1      -1.373   3.145  -4.771  0.00  0.00     0.042 A 
HETATM   18  C   UNL     1      -0.655   2.117  -5.370  0.00  0.00     0.102 A 
HETATM   19  C   UNL     1       0.623   1.808  -4.914  0.00  0.00     0.104 A 
HETATM   20  O   UNL     1      -1.274   1.468  -6.406  0.00  0.00    -0.346 OA
HETATM   21  C   UNL     1       1.187   2.533  -3.853  0.00  0.00     0.069 A 
HETATM   22  O   UNL     1       1.388   0.804  -5.458  0.00  0.00    -0.346 OA
HETATM   23  C   UNL     1       0.588  -0.098  -6.238  0.00  0.00     0.202 C 
HETATM   24  C   UNL     1      -0.356   0.664  -7.156  0.00  0.00     0.202 C 
ENDBRANCH  13  15
ENDBRANCH   8  11
BRANCH   9  25
HETATM   25  O   UNL     1      -1.901   6.495  -0.029  0.00  0.00    -0.360 OA
HETATM   26  H   UNL     1      -0.964   6.558   0.262  0.00  0.00     0.217 HD
ENDBRANCH   9  25
BRANCH   1  27
HETATM   27  C   UNL     1      -2.663  -0.154  -0.162  0.00  0.00     0.100 C 
BRANCH  27  28
HETATM   28  C   UNL     1      -2.909  -0.955  -1.420  0.00  0.00    -0.052 A 
HETATM   29  C   UNL     1      -3.001  -0.389  -2.700  0.00  0.00     0.014 A 
HETATM   30  C   UNL     1      -3.347  -1.172  -3.809  0.00  0.00    -0.061 A 
HETATM   31  C   UNL     1      -3.691  -0.520  -5.114  0.00  0.00     0.048 C 
HETATM   32  C   UNL     1      -3.485  -2.556  -3.659  0.00  0.00     0.007 A 
HETATM   33  C   UNL     1      -3.302  -3.147  -2.413  0.00  0.00     0.001 A 
HETATM   34  C   UNL     1      -3.027  -2.351  -1.301  0.00  0.00     0.007 A 
ENDBRANCH  27  28
ENDBRANCH   1  27
TORSDOF 5
