MODEL 1
REMARK VINA RESULT:    -9.039      0.000      0.000
REMARK INTER + INTRA:         -15.617
REMARK INTER:                 -11.504
REMARK INTRA:                  -4.113
REMARK UNBOUND:                -3.407
REMARK  7 active torsions:
REMARK  status: ('A' for Active; 'I' for Inactive)
REMARK    1  A    between atoms: C_7  and  N_8 
REMARK    2  A    between atoms: C_14  and  C_15 
REMARK    3  A    between atoms: C_16  and  O_17 
REMARK    4  A    between atoms: C_19  and  O_20 
REMARK    5  A    between atoms: C_22  and  C_23 
REMARK       I    between atoms: C_23  and  N_25 
REMARK    6  A    between atoms: N_25  and  C_27 
REMARK    7  A    between atoms: C_27  and  C_28 
ROOT
HETATM    1  C   UNL     1      10.737  12.183  23.536  0.00  0.00     0.046 A 
HETATM    2  C   UNL     1      10.964  12.497  24.895  0.00  0.00     0.082 A 
HETATM    3  C   UNL     1      11.299  13.782  25.297  0.00  0.00     0.075 A 
HETATM    4  C   UNL     1      11.408  14.792  24.345  0.00  0.00     0.084 A 
HETATM    5  C   UNL     1      10.907  13.204  22.573  0.00  0.00     0.038 A 
HETATM    6  C   UNL     1      11.188  14.536  22.973  0.00  0.00     0.066 A 
ENDROOT
BRANCH   1   7
HETATM    7  C   UNL     1      10.212  10.811  23.237  0.00  0.00     0.172 A 
HETATM    8  N   UNL     1       8.950  10.457  22.821  0.00  0.00    -0.244 N 
HETATM    9  C   UNL     1       8.981   9.072  22.726  0.00  0.00     0.349 A 
HETATM   10  O   UNL     1       8.079   8.271  22.502  0.00  0.00    -0.245 OA
HETATM   11  N   UNL     1      10.274   8.700  23.057  0.00  0.00    -0.226 N 
HETATM   12  H   UNL     1      10.562   7.748  23.247  0.00  0.00     0.194 HD
HETATM   13  N   UNL     1      11.015   9.783  23.388  0.00  0.00    -0.151 NA
BRANCH   8  14
HETATM   14  C   UNL     1       7.704  11.129  22.803  0.00  0.00     0.051 A 
HETATM   15  C   UNL     1       7.187  11.784  21.668  0.00  0.00    -0.035 A 
HETATM   16  C   UNL     1       7.977  11.993  20.405  0.00  0.00     0.050 C 
HETATM   17  C   UNL     1       5.949  12.451  21.766  0.00  0.00     0.009 A 
HETATM   18  C   UNL     1       5.285  12.574  22.985  0.00  0.00     0.001 A 
HETATM   19  C   UNL     1       5.842  12.021  24.128  0.00  0.00     0.002 A 
HETATM   20  C   UNL     1       7.030  11.293  24.033  0.00  0.00     0.031 A 
ENDBRANCH   8  14
ENDBRANCH   1   7
BRANCH   2  21
HETATM   21  O   UNL     1      10.830  11.601  25.928  0.00  0.00    -0.360 OA
HETATM   22  H   UNL     1      10.965  12.080  26.775  0.00  0.00     0.217 HD
ENDBRANCH   2  21
BRANCH   6  23
HETATM   23  C   UNL     1      10.847  15.705  22.093  0.00  0.00     0.256 C 
HETATM   24  O   UNL     1      11.802  16.431  21.796  0.00  0.00    -0.267 OA
HETATM   25  N   UNL     1       9.550  16.059  21.701  0.00  0.00    -0.348 N 
HETATM   26  C   UNL     1       9.396  17.363  21.055  0.00  0.00     0.153 C 
BRANCH  25  27
HETATM   27  C   UNL     1       8.320  15.286  21.870  0.00  0.00     0.164 C 
BRANCH  27  28
HETATM   28  C   UNL     1       7.542  15.491  23.157  0.00  0.00    -0.040 A 
HETATM   29  C   UNL     1       8.110  15.053  24.369  0.00  0.00     0.009 A 
HETATM   30  C   UNL     1       7.358  15.009  25.545  0.00  0.00     0.001 A 
HETATM   31  C   UNL     1       6.021  15.393  25.528  0.00  0.00     0.007 A 
HETATM   32  C   UNL     1       5.438  15.863  24.345  0.00  0.00    -0.061 A 
HETATM   33  C   UNL     1       6.205  15.920  23.166  0.00  0.00     0.015 A 
HETATM   34  C   UNL     1       3.970  16.178  24.321  0.00  0.00     0.048 C 
ENDBRANCH  27  28
ENDBRANCH  25  27
ENDBRANCH   6  23
BRANCH   4  35
HETATM   35  O   UNL     1      11.688  16.053  24.801  0.00  0.00    -0.360 OA
HETATM   36  H   UNL     1      12.623  16.264  24.615  0.00  0.00     0.217 HD
ENDBRANCH   4  35
TORSDOF 7
ENDMDL
MODEL 2
REMARK VINA RESULT:    -9.022      3.351      6.331
REMARK INTER + INTRA:         -15.594
REMARK INTER:                 -12.364
REMARK INTRA:                  -3.230
REMARK UNBOUND:                -3.407
REMARK  7 active torsions:
REMARK  status: ('A' for Active; 'I' for Inactive)
REMARK    1  A    between atoms: C_7  and  N_8 
REMARK    2  A    between atoms: C_14  and  C_15 
REMARK    3  A    between atoms: C_16  and  O_17 
REMARK    4  A    between atoms: C_19  and  O_20 
REMARK    5  A    between atoms: C_22  and  C_23 
REMARK       I    between atoms: C_23  and  N_25 
REMARK    6  A    between atoms: N_25  and  C_27 
REMARK    7  A    between atoms: C_27  and  C_28 
ROOT
HETATM    1  C   UNL     1       4.067  11.822  22.355  0.00  0.00     0.046 A 
HETATM    2  C   UNL     1       3.988  10.458  22.720  0.00  0.00     0.082 A 
HETATM    3  C   UNL     1       4.754   9.493  22.083  0.00  0.00     0.075 A 
HETATM    4  C   UNL     1       5.627   9.869  21.067  0.00  0.00     0.084 A 
HETATM    5  C   UNL     1       4.916  12.184  21.284  0.00  0.00     0.038 A 
HETATM    6  C   UNL     1       5.751  11.218  20.665  0.00  0.00     0.066 A 
ENDROOT
BRANCH   1   7
HETATM    7  C   UNL     1       3.330  12.797  23.223  0.00  0.00     0.172 A 
HETATM    8  N   UNL     1       3.854  13.734  24.083  0.00  0.00    -0.244 N 
HETATM    9  C   UNL     1       2.750  14.345  24.661  0.00  0.00     0.349 A 
HETATM   10  O   UNL     1       2.682  15.165  25.571  0.00  0.00    -0.245 OA
HETATM   11  N   UNL     1       1.641  13.754  24.076  0.00  0.00    -0.226 N 
HETATM   12  H   UNL     1       0.693  13.863  24.413  0.00  0.00     0.194 HD
HETATM   13  N   UNL     1       2.017  12.788  23.206  0.00  0.00    -0.151 NA
BRANCH   8  14
HETATM   14  C   UNL     1       5.136  13.924  24.655  0.00  0.00     0.051 A 
HETATM   15  C   UNL     1       5.939  15.055  24.410  0.00  0.00    -0.035 A 
HETATM   16  C   UNL     1       5.602  16.098  23.378  0.00  0.00     0.050 C 
HETATM   17  C   UNL     1       7.214  15.133  25.005  0.00  0.00     0.009 A 
HETATM   18  C   UNL     1       7.741  14.068  25.733  0.00  0.00     0.001 A 
HETATM   19  C   UNL     1       6.996  12.909  25.889  0.00  0.00     0.002 A 
HETATM   20  C   UNL     1       5.702  12.846  25.369  0.00  0.00     0.031 A 
ENDBRANCH   8  14
ENDBRANCH   1   7
BRANCH   2  21
HETATM   21  O   UNL     1       3.208   9.976  23.741  0.00  0.00    -0.360 OA
HETATM   22  H   UNL     1       3.798   9.662  24.462  0.00  0.00     0.217 HD
ENDBRANCH   2  21
BRANCH   6  23
HETATM   23  C   UNL     1       7.006  11.618  19.944  0.00  0.00     0.256 C 
HETATM   24  O   UNL     1       7.074  11.246  18.767  0.00  0.00    -0.267 OA
HETATM   25  N   UNL     1       8.098  12.264  20.538  0.00  0.00    -0.348 N 
HETATM   26  C   UNL     1       9.321  12.346  19.738  0.00  0.00     0.153 C 
BRANCH  25  27
HETATM   27  C   UNL     1       8.170  12.860  21.871  0.00  0.00     0.164 C 
BRANCH  27  28
HETATM   28  C   UNL     1       9.094  14.051  22.050  0.00  0.00    -0.040 A 
HETATM   29  C   UNL     1      10.067  14.006  23.068  0.00  0.00     0.009 A 
HETATM   30  C   UNL     1      10.790  15.145  23.427  0.00  0.00     0.001 A 
HETATM   31  C   UNL     1      10.546  16.354  22.781  0.00  0.00     0.007 A 
HETATM   32  C   UNL     1       9.607  16.422  21.744  0.00  0.00    -0.061 A 
HETATM   33  C   UNL     1       8.892  15.266  21.377  0.00  0.00     0.015 A 
HETATM   34  C   UNL     1       9.284  17.752  21.128  0.00  0.00     0.048 C 
ENDBRANCH  27  28
ENDBRANCH  25  27
ENDBRANCH   6  23
BRANCH   4  35
HETATM   35  O   UNL     1       6.399   8.884  20.509  0.00  0.00    -0.360 OA
HETATM   36  H   UNL     1       5.928   8.496  19.747  0.00  0.00     0.217 HD
ENDBRANCH   4  35
TORSDOF 7
ENDMDL
MODEL 3
REMARK VINA RESULT:    -8.674      3.390      6.579
REMARK INTER + INTRA:         -15.124
REMARK INTER:                 -11.442
REMARK INTRA:                  -3.682
REMARK UNBOUND:                -3.407
REMARK  7 active torsions:
REMARK  status: ('A' for Active; 'I' for Inactive)
REMARK    1  A    between atoms: C_7  and  N_8 
REMARK    2  A    between atoms: C_14  and  C_15 
REMARK    3  A    between atoms: C_16  and  O_17 
REMARK    4  A    between atoms: C_19  and  O_20 
REMARK    5  A    between atoms: C_22  and  C_23 
REMARK       I    between atoms: C_23  and  N_25 
REMARK    6  A    between atoms: N_25  and  C_27 
REMARK    7  A    between atoms: C_27  and  C_28 
ROOT
HETATM    1  C   UNL     1       4.057  11.638  22.275  0.00  0.00     0.046 A 
HETATM    2  C   UNL     1       4.098  10.276  22.651  0.00  0.00     0.082 A 
HETATM    3  C   UNL     1       4.935   9.373  22.012  0.00  0.00     0.075 A 
HETATM    4  C   UNL     1       5.763   9.814  20.983  0.00  0.00     0.084 A 
HETATM    5  C   UNL     1       4.860  12.062  21.192  0.00  0.00     0.038 A 
HETATM    6  C   UNL     1       5.767  11.165  20.570  0.00  0.00     0.066 A 
ENDROOT
BRANCH   1   7
HETATM    7  C   UNL     1       3.250  12.555  23.144  0.00  0.00     0.172 A 
HETATM    8  N   UNL     1       3.704  13.503  24.032  0.00  0.00    -0.244 N 
HETATM    9  C   UNL     1       2.556  14.041  24.598  0.00  0.00     0.349 A 
HETATM   10  O   UNL     1       2.425  14.839  25.520  0.00  0.00    -0.245 OA
HETATM   11  N   UNL     1       1.494  13.401  23.979  0.00  0.00    -0.226 N 
HETATM   12  H   UNL     1       0.535  13.451  24.297  0.00  0.00     0.194 HD
HETATM   13  N   UNL     1       1.940  12.474  23.100  0.00  0.00    -0.151 NA
BRANCH   8  14
HETATM   14  C   UNL     1       4.962  13.753  24.634  0.00  0.00     0.051 A 
HETATM   15  C   UNL     1       5.698  14.938  24.438  0.00  0.00    -0.035 A 
HETATM   16  C   UNL     1       5.316  15.990  23.433  0.00  0.00     0.050 C 
HETATM   17  C   UNL     1       6.956  15.074  25.060  0.00  0.00     0.009 A 
HETATM   18  C   UNL     1       7.534  14.020  25.766  0.00  0.00     0.001 A 
HETATM   19  C   UNL     1       6.859  12.814  25.872  0.00  0.00     0.002 A 
HETATM   20  C   UNL     1       5.580  12.689  25.326  0.00  0.00     0.031 A 
ENDBRANCH   8  14
ENDBRANCH   1   7
BRANCH   2  21
HETATM   21  O   UNL     1       3.373   9.738  23.685  0.00  0.00    -0.360 OA
HETATM   22  H   UNL     1       3.073  10.469  24.268  0.00  0.00     0.217 HD
ENDBRANCH   2  21
BRANCH   6  23
HETATM   23  C   UNL     1       6.976  11.663  19.831  0.00  0.00     0.256 C 
HETATM   24  O   UNL     1       7.060  11.291  18.655  0.00  0.00    -0.267 OA
HETATM   25  N   UNL     1       8.017  12.401  20.408  0.00  0.00    -0.348 N 
HETATM   26  C   UNL     1       9.220  12.580  19.593  0.00  0.00     0.153 C 
BRANCH  25  27
HETATM   27  C   UNL     1       8.057  13.008  21.737  0.00  0.00     0.164 C 
BRANCH  27  28
HETATM   28  C   UNL     1       8.818  12.264  22.819  0.00  0.00    -0.040 A 
HETATM   29  C   UNL     1       9.915  12.899  23.434  0.00  0.00     0.009 A 
HETATM   30  C   UNL     1      10.784  12.192  24.267  0.00  0.00     0.001 A 
HETATM   31  C   UNL     1      10.579  10.835  24.492  0.00  0.00     0.007 A 
HETATM   32  C   UNL     1       9.479  10.184  23.920  0.00  0.00    -0.061 A 
HETATM   33  C   UNL     1       8.597  10.905  23.094  0.00  0.00     0.015 A 
HETATM   34  C   UNL     1       9.329   8.700  24.091  0.00  0.00     0.048 C 
ENDBRANCH  27  28
ENDBRANCH  25  27
ENDBRANCH   6  23
BRANCH   4  35
HETATM   35  O   UNL     1       6.609   8.893  20.423  0.00  0.00    -0.360 OA
HETATM   36  H   UNL     1       6.148   8.035  20.346  0.00  0.00     0.217 HD
ENDBRANCH   4  35
TORSDOF 7
ENDMDL
MODEL 4
REMARK VINA RESULT:    -8.499      2.630      6.065
REMARK INTER + INTRA:         -14.887
REMARK INTER:                 -11.563
REMARK INTRA:                  -3.324
REMARK UNBOUND:                -3.407
REMARK  7 active torsions:
REMARK  status: ('A' for Active; 'I' for Inactive)
REMARK    1  A    between atoms: C_7  and  N_8 
REMARK    2  A    between atoms: C_14  and  C_15 
REMARK    3  A    between atoms: C_16  and  O_17 
REMARK    4  A    between atoms: C_19  and  O_20 
REMARK    5  A    between atoms: C_22  and  C_23 
REMARK       I    between atoms: C_23  and  N_25 
REMARK    6  A    between atoms: N_25  and  C_27 
REMARK    7  A    between atoms: C_27  and  C_28 
ROOT
HETATM    1  C   UNL     1       7.922  11.319  21.508  0.00  0.00     0.046 A 
HETATM    2  C   UNL     1       7.364  11.287  20.209  0.00  0.00     0.082 A 
HETATM    3  C   UNL     1       6.190  10.597  19.942  0.00  0.00     0.075 A 
HETATM    4  C   UNL     1       5.538   9.927  20.973  0.00  0.00     0.084 A 
HETATM    5  C   UNL     1       7.282  10.588  22.534  0.00  0.00     0.038 A 
HETATM    6  C   UNL     1       6.049   9.929  22.291  0.00  0.00     0.066 A 
ENDROOT
BRANCH   1   7
HETATM    7  C   UNL     1       9.091  12.234  21.719  0.00  0.00     0.172 A 
HETATM    8  N   UNL     1       9.173  13.330  22.547  0.00  0.00    -0.244 N 
HETATM    9  C   UNL     1      10.448  13.838  22.341  0.00  0.00     0.349 A 
HETATM   10  O   UNL     1      10.970  14.867  22.758  0.00  0.00    -0.245 OA
HETATM   11  N   UNL     1      11.052  12.987  21.429  0.00  0.00    -0.226 N 
HETATM   12  H   UNL     1      11.920  13.188  20.949  0.00  0.00     0.194 HD
HETATM   13  N   UNL     1      10.194  12.014  21.041  0.00  0.00    -0.151 NA
BRANCH   8  14
HETATM   14  C   UNL     1       8.209  14.117  23.222  0.00  0.00     0.051 A 
HETATM   15  C   UNL     1       7.948  14.018  24.603  0.00  0.00    -0.035 A 
HETATM   16  C   UNL     1       8.537  12.944  25.478  0.00  0.00     0.050 C 
HETATM   17  C   UNL     1       6.944  14.828  25.171  0.00  0.00     0.009 A 
HETATM   18  C   UNL     1       6.130  15.636  24.380  0.00  0.00     0.001 A 
HETATM   19  C   UNL     1       6.313  15.658  23.006  0.00  0.00     0.002 A 
HETATM   20  C   UNL     1       7.352  14.919  22.437  0.00  0.00     0.031 A 
ENDBRANCH   8  14
ENDBRANCH   1   7
BRANCH   2  21
HETATM   21  O   UNL     1       7.884  11.955  19.128  0.00  0.00    -0.360 OA
HETATM   22  H   UNL     1       8.847  12.080  19.273  0.00  0.00     0.217 HD
ENDBRANCH   2  21
BRANCH   6  23
HETATM   23  C   UNL     1       5.092   9.624  23.408  0.00  0.00     0.256 C 
HETATM   24  O   UNL     1       4.785   8.431  23.521  0.00  0.00    -0.267 OA
HETATM   25  N   UNL     1       4.477  10.585  24.219  0.00  0.00    -0.348 N 
HETATM   26  C   UNL     1       3.393  10.114  25.082  0.00  0.00     0.153 C 
BRANCH  25  27
HETATM   27  C   UNL     1       4.776  12.014  24.300  0.00  0.00     0.164 C 
BRANCH  27  28
HETATM   28  C   UNL     1       3.671  12.979  23.913  0.00  0.00    -0.040 A 
HETATM   29  C   UNL     1       3.170  13.862  24.890  0.00  0.00     0.009 A 
HETATM   30  C   UNL     1       2.013  14.610  24.662  0.00  0.00     0.001 A 
HETATM   31  C   UNL     1       1.330  14.482  23.457  0.00  0.00     0.007 A 
HETATM   32  C   UNL     1       1.822  13.636  22.455  0.00  0.00    -0.061 A 
HETATM   33  C   UNL     1       2.997  12.896  22.684  0.00  0.00     0.015 A 
HETATM   34  C   UNL     1       1.020  13.433  21.202  0.00  0.00     0.048 C 
ENDBRANCH  27  28
ENDBRANCH  25  27
ENDBRANCH   6  23
BRANCH   4  35
HETATM   35  O   UNL     1       4.356   9.307  20.666  0.00  0.00    -0.360 OA
HETATM   36  H   UNL     1       4.288   9.201  19.698  0.00  0.00     0.217 HD
ENDBRANCH   4  35
TORSDOF 7
ENDMDL
MODEL 5
REMARK VINA RESULT:    -8.197      2.041      5.903
REMARK INTER + INTRA:         -14.479
REMARK INTER:                 -10.777
REMARK INTRA:                  -3.702
REMARK UNBOUND:                -3.407
REMARK  7 active torsions:
REMARK  status: ('A' for Active; 'I' for Inactive)
REMARK    1  A    between atoms: C_7  and  N_8 
REMARK    2  A    between atoms: C_14  and  C_15 
REMARK    3  A    between atoms: C_16  and  O_17 
REMARK    4  A    between atoms: C_19  and  O_20 
REMARK    5  A    between atoms: C_22  and  C_23 
REMARK       I    between atoms: C_23  and  N_25 
REMARK    6  A    between atoms: N_25  and  C_27 
REMARK    7  A    between atoms: C_27  and  C_28 
ROOT
HETATM    1  C   UNL     1       8.860  11.367  24.057  0.00  0.00     0.046 A 
HETATM    2  C   UNL     1       9.356  10.513  23.046  0.00  0.00     0.082 A 
HETATM    3  C   UNL     1       8.588   9.479  22.530  0.00  0.00     0.075 A 
HETATM    4  C   UNL     1       7.296   9.278  23.008  0.00  0.00     0.084 A 
HETATM    5  C   UNL     1       7.568  11.119  24.573  0.00  0.00     0.038 A 
HETATM    6  C   UNL     1       6.748  10.106  24.013  0.00  0.00     0.066 A 
ENDROOT
BRANCH   1   7
HETATM    7  C   UNL     1       9.704  12.553  24.414  0.00  0.00     0.172 A 
HETATM    8  N   UNL     1       9.307  13.859  24.584  0.00  0.00    -0.244 N 
HETATM    9  C   UNL     1      10.475  14.553  24.869  0.00  0.00     0.349 A 
HETATM   10  O   UNL     1      10.672  15.758  24.994  0.00  0.00    -0.245 OA
HETATM   11  N   UNL     1      11.484  13.604  24.886  0.00  0.00    -0.226 N 
HETATM   12  H   UNL     1      12.472  13.823  24.895  0.00  0.00     0.194 HD
HETATM   13  N   UNL     1      10.995  12.379  24.584  0.00  0.00    -0.151 NA
BRANCH   8  14
HETATM   14  C   UNL     1       8.137  14.576  24.235  0.00  0.00     0.051 A 
HETATM   15  C   UNL     1       7.976  15.262  23.015  0.00  0.00    -0.035 A 
HETATM   16  C   UNL     1       9.094  15.457  22.025  0.00  0.00     0.050 C 
HETATM   17  C   UNL     1       6.782  15.972  22.779  0.00  0.00     0.009 A 
HETATM   18  C   UNL     1       5.809  16.104  23.768  0.00  0.00     0.001 A 
HETATM   19  C   UNL     1       6.009  15.520  25.009  0.00  0.00     0.002 A 
HETATM   20  C   UNL     1       7.152  14.750  25.232  0.00  0.00     0.031 A 
ENDBRANCH   8  14
ENDBRANCH   1   7
BRANCH   2  21
HETATM   21  O   UNL     1      10.589  10.647  22.458  0.00  0.00    -0.360 OA
HETATM   22  H   UNL     1      10.722   9.896  21.838  0.00  0.00     0.217 HD
ENDBRANCH   2  21
BRANCH   6  23
HETATM   23  C   UNL     1       5.251  10.156  24.133  0.00  0.00     0.256 C 
HETATM   24  O   UNL     1       4.748   9.235  24.787  0.00  0.00    -0.267 OA
HETATM   25  N   UNL     1       4.428  11.085  23.484  0.00  0.00    -0.348 N 
HETATM   26  C   UNL     1       2.989  10.822  23.524  0.00  0.00     0.153 C 
BRANCH  25  27
HETATM   27  C   UNL     1       4.833  12.286  22.756  0.00  0.00     0.164 C 
BRANCH  27  28
HETATM   28  C   UNL     1       5.573  12.088  21.445  0.00  0.00    -0.040 A 
HETATM   29  C   UNL     1       5.014  11.235  20.474  0.00  0.00     0.009 A 
HETATM   30  C   UNL     1       5.746  10.839  19.354  0.00  0.00     0.001 A 
HETATM   31  C   UNL     1       7.055  11.282  19.187  0.00  0.00     0.007 A 
HETATM   32  C   UNL     1       7.626  12.156  20.120  0.00  0.00    -0.061 A 
HETATM   33  C   UNL     1       6.878  12.564  21.240  0.00  0.00     0.015 A 
HETATM   34  C   UNL     1       9.070  12.544  19.979  0.00  0.00     0.048 C 
ENDBRANCH  27  28
ENDBRANCH  25  27
ENDBRANCH   6  23
BRANCH   4  35
HETATM   35  O   UNL     1       6.563   8.278  22.426  0.00  0.00    -0.360 OA
HETATM   36  H   UNL     1       6.949   7.414  22.663  0.00  0.00     0.217 HD
ENDBRANCH   4  35
TORSDOF 7
ENDMDL
MODEL 6
REMARK VINA RESULT:    -8.119      2.273      5.373
REMARK INTER + INTRA:         -14.374
REMARK INTER:                 -10.967
REMARK INTRA:                  -3.407
REMARK UNBOUND:                -3.407
REMARK  7 active torsions:
REMARK  status: ('A' for Active; 'I' for Inactive)
REMARK    1  A    between atoms: C_7  and  N_8 
REMARK    2  A    between atoms: C_14  and  C_15 
REMARK    3  A    between atoms: C_16  and  O_17 
REMARK    4  A    between atoms: C_19  and  O_20 
REMARK    5  A    between atoms: C_22  and  C_23 
REMARK       I    between atoms: C_23  and  N_25 
REMARK    6  A    between atoms: N_25  and  C_27 
REMARK    7  A    between atoms: C_27  and  C_28 
ROOT
HETATM    1  C   UNL     1       9.518  11.678  24.538  0.00  0.00     0.046 A 
HETATM    2  C   UNL     1      10.289  11.331  23.405  0.00  0.00     0.082 A 
HETATM    3  C   UNL     1       9.901  10.308  22.551  0.00  0.00     0.075 A 
HETATM    4  C   UNL     1       8.724   9.611  22.804  0.00  0.00     0.084 A 
HETATM    5  C   UNL     1       8.354  10.926  24.816  0.00  0.00     0.038 A 
HETATM    6  C   UNL     1       7.912   9.919  23.919  0.00  0.00     0.066 A 
ENDROOT
BRANCH   1   7
HETATM    7  C   UNL     1       9.935  12.907  25.289  0.00  0.00     0.172 A 
HETATM    8  N   UNL     1       9.264  14.102  25.402  0.00  0.00    -0.244 N 
HETATM    9  C   UNL     1      10.096  14.907  26.169  0.00  0.00     0.349 A 
HETATM   10  O   UNL     1      10.004  16.095  26.460  0.00  0.00    -0.245 OA
HETATM   11  N   UNL     1      11.191  14.121  26.490  0.00  0.00    -0.226 N 
HETATM   12  H   UNL     1      12.049  14.476  26.894  0.00  0.00     0.194 HD
HETATM   13  N   UNL     1      11.085  12.897  25.923  0.00  0.00    -0.151 NA
BRANCH   8  14
HETATM   14  C   UNL     1       8.187  14.687  24.694  0.00  0.00     0.051 A 
HETATM   15  C   UNL     1       8.257  15.067  23.340  0.00  0.00    -0.035 A 
HETATM   16  C   UNL     1       9.537  15.058  22.546  0.00  0.00     0.050 C 
HETATM   17  C   UNL     1       7.135  15.671  22.737  0.00  0.00     0.009 A 
HETATM   18  C   UNL     1       6.004  16.003  23.480  0.00  0.00     0.001 A 
HETATM   19  C   UNL     1       5.969  15.727  24.838  0.00  0.00     0.002 A 
HETATM   20  C   UNL     1       7.042  15.061  25.433  0.00  0.00     0.031 A 
ENDBRANCH   8  14
ENDBRANCH   1   7
BRANCH   2  21
HETATM   21  O   UNL     1      11.435  11.982  23.021  0.00  0.00    -0.360 OA
HETATM   22  H   UNL     1      11.583  12.737  23.632  0.00  0.00     0.217 HD
ENDBRANCH   2  21
BRANCH   6  23
HETATM   23  C   UNL     1       6.473   9.493  23.872  0.00  0.00     0.256 C 
HETATM   24  O   UNL     1       6.242   8.377  24.354  0.00  0.00    -0.267 OA
HETATM   25  N   UNL     1       5.447  10.209  23.243  0.00  0.00    -0.348 N 
HETATM   26  C   UNL     1       4.168   9.516  23.087  0.00  0.00     0.153 C 
BRANCH  25  27
HETATM   27  C   UNL     1       5.501  11.569  22.708  0.00  0.00     0.164 C 
BRANCH  27  28
HETATM   28  C   UNL     1       4.576  12.598  23.331  0.00  0.00    -0.040 A 
HETATM   29  C   UNL     1       4.466  12.649  24.735  0.00  0.00     0.009 A 
HETATM   30  C   UNL     1       3.475  13.412  25.355  0.00  0.00     0.001 A 
HETATM   31  C   UNL     1       2.568  14.131  24.583  0.00  0.00     0.007 A 
HETATM   32  C   UNL     1       2.672  14.125  23.186  0.00  0.00    -0.061 A 
HETATM   33  C   UNL     1       3.682  13.366  22.567  0.00  0.00     0.015 A 
HETATM   34  C   UNL     1       1.626  14.824  22.366  0.00  0.00     0.048 C 
ENDBRANCH  27  28
ENDBRANCH  25  27
ENDBRANCH   6  23
BRANCH   4  35
HETATM   35  O   UNL     1       8.360   8.648  21.900  0.00  0.00    -0.360 OA
HETATM   36  H   UNL     1       9.162   8.246  21.516  0.00  0.00     0.217 HD
ENDBRANCH   4  35
TORSDOF 7
ENDMDL
MODEL 7
REMARK VINA RESULT:    -8.082      2.979      5.158
REMARK INTER + INTRA:         -14.323
REMARK INTER:                 -11.418
REMARK INTRA:                  -2.906
REMARK UNBOUND:                -3.407
REMARK  7 active torsions:
REMARK  status: ('A' for Active; 'I' for Inactive)
REMARK    1  A    between atoms: C_7  and  N_8 
REMARK    2  A    between atoms: C_14  and  C_15 
REMARK    3  A    between atoms: C_16  and  O_17 
REMARK    4  A    between atoms: C_19  and  O_20 
REMARK    5  A    between atoms: C_22  and  C_23 
REMARK       I    between atoms: C_23  and  N_25 
REMARK    6  A    between atoms: N_25  and  C_27 
REMARK    7  A    between atoms: C_27  and  C_28 
ROOT
HETATM    1  C   UNL     1       5.612  10.826  22.192  0.00  0.00     0.046 A 
HETATM    2  C   UNL     1       5.443  10.943  20.793  0.00  0.00     0.082 A 
HETATM    3  C   UNL     1       6.459  11.421  19.978  0.00  0.00     0.075 A 
HETATM    4  C   UNL     1       7.678  11.787  20.542  0.00  0.00     0.084 A 
HETATM    5  C   UNL     1       6.834  11.254  22.759  0.00  0.00     0.038 A 
HETATM    6  C   UNL     1       7.904  11.686  21.933  0.00  0.00     0.066 A 
ENDROOT
BRANCH   1   7
HETATM    7  C   UNL     1       4.518  10.138  22.950  0.00  0.00     0.172 A 
HETATM    8  N   UNL     1       3.395  10.696  23.515  0.00  0.00    -0.244 N 
HETATM    9  C   UNL     1       2.737   9.635  24.123  0.00  0.00     0.349 A 
HETATM   10  O   UNL     1       1.749   9.625  24.850  0.00  0.00    -0.245 OA
HETATM   11  N   UNL     1       3.496   8.510  23.846  0.00  0.00    -0.226 N 
HETATM   12  H   UNL     1       3.371   7.612  24.296  0.00  0.00     0.194 HD
HETATM   13  N   UNL     1       4.602   8.841  23.138  0.00  0.00    -0.151 NA
BRANCH   8  14
HETATM   14  C   UNL     1       3.020  12.024  23.833  0.00  0.00     0.051 A 
HETATM   15  C   UNL     1       3.705  12.827  24.765  0.00  0.00    -0.035 A 
HETATM   16  C   UNL     1       4.801  12.305  25.654  0.00  0.00     0.050 C 
HETATM   17  C   UNL     1       3.229  14.127  25.031  0.00  0.00     0.009 A 
HETATM   18  C   UNL     1       2.035  14.589  24.480  0.00  0.00     0.001 A 
HETATM   19  C   UNL     1       1.300  13.763  23.644  0.00  0.00     0.002 A 
HETATM   20  C   UNL     1       1.797  12.501  23.312  0.00  0.00     0.031 A 
ENDBRANCH   8  14
ENDBRANCH   1   7
BRANCH   2  21
HETATM   21  O   UNL     1       4.311  10.561  20.117  0.00  0.00    -0.360 OA
HETATM   22  H   UNL     1       4.440   9.645  19.788  0.00  0.00     0.217 HD
ENDBRANCH   2  21
BRANCH   6  23
HETATM   23  C   UNL     1       9.329  11.625  22.404  0.00  0.00     0.256 C 
HETATM   24  O   UNL     1       9.787  10.484  22.539  0.00  0.00    -0.267 OA
HETATM   25  N   UNL     1      10.093  12.736  22.783  0.00  0.00    -0.348 N 
HETATM   26  C   UNL     1      11.367  12.456  23.446  0.00  0.00     0.153 C 
BRANCH  25  27
HETATM   27  C   UNL     1       9.767  14.150  22.608  0.00  0.00     0.164 C 
BRANCH  27  28
HETATM   28  C   UNL     1       8.717  14.741  23.531  0.00  0.00    -0.040 A 
HETATM   29  C   UNL     1       8.811  14.489  24.914  0.00  0.00     0.009 A 
HETATM   30  C   UNL     1       7.765  14.811  25.779  0.00  0.00     0.001 A 
HETATM   31  C   UNL     1       6.600  15.383  25.277  0.00  0.00     0.007 A 
HETATM   32  C   UNL     1       6.489  15.674  23.913  0.00  0.00    -0.061 A 
HETATM   33  C   UNL     1       7.554  15.361  23.046  0.00  0.00     0.015 A 
HETATM   34  C   UNL     1       5.189  16.196  23.372  0.00  0.00     0.048 C 
ENDBRANCH  27  28
ENDBRANCH  25  27
ENDBRANCH   6  23
BRANCH   4  35
HETATM   35  O   UNL     1       8.664  12.200  19.686  0.00  0.00    -0.360 OA
HETATM   36  H   UNL     1       8.926  11.456  19.111  0.00  0.00     0.217 HD
ENDBRANCH   4  35
TORSDOF 7
ENDMDL
MODEL 8
REMARK VINA RESULT:    -8.073      2.211      5.888
REMARK INTER + INTRA:         -14.312
REMARK INTER:                 -10.256
REMARK INTRA:                  -4.056
REMARK UNBOUND:                -3.407
REMARK  7 active torsions:
REMARK  status: ('A' for Active; 'I' for Inactive)
REMARK    1  A    between atoms: C_7  and  N_8 
REMARK    2  A    between atoms: C_14  and  C_15 
REMARK    3  A    between atoms: C_16  and  O_17 
REMARK    4  A    between atoms: C_19  and  O_20 
REMARK    5  A    between atoms: C_22  and  C_23 
REMARK       I    between atoms: C_23  and  N_25 
REMARK    6  A    between atoms: N_25  and  C_27 
REMARK    7  A    between atoms: C_27  and  C_28 
ROOT
HETATM    1  C   UNL     1      10.568  11.876  24.551  0.00  0.00     0.046 A 
HETATM    2  C   UNL     1      11.156  11.985  23.270  0.00  0.00     0.082 A 
HETATM    3  C   UNL     1      11.067  10.956  22.342  0.00  0.00     0.075 A 
HETATM    4  C   UNL     1      10.379   9.792  22.671  0.00  0.00     0.084 A 
HETATM    5  C   UNL     1       9.920  10.667  24.893  0.00  0.00     0.038 A 
HETATM    6  C   UNL     1       9.768   9.632  23.935  0.00  0.00     0.066 A 
ENDROOT
BRANCH   1   7
HETATM    7  C   UNL     1      10.573  13.109  25.404  0.00  0.00     0.172 A 
HETATM    8  N   UNL     1       9.611  14.089  25.487  0.00  0.00    -0.244 N 
HETATM    9  C   UNL     1      10.121  15.013  26.389  0.00  0.00     0.349 A 
HETATM   10  O   UNL     1       9.698  16.116  26.720  0.00  0.00    -0.245 OA
HETATM   11  N   UNL     1      11.338  14.501  26.809  0.00  0.00    -0.226 N 
HETATM   12  H   UNL     1      12.027  15.024  27.333  0.00  0.00     0.194 HD
HETATM   13  N   UNL     1      11.611  13.335  26.177  0.00  0.00    -0.151 NA
BRANCH   8  14
HETATM   14  C   UNL     1       8.505  14.441  24.677  0.00  0.00     0.051 A 
HETATM   15  C   UNL     1       7.195  13.974  24.898  0.00  0.00    -0.035 A 
HETATM   16  C   UNL     1       6.858  12.911  25.909  0.00  0.00     0.050 C 
HETATM   17  C   UNL     1       6.170  14.362  24.012  0.00  0.00     0.009 A 
HETATM   18  C   UNL     1       6.445  15.100  22.862  0.00  0.00     0.001 A 
HETATM   19  C   UNL     1       7.750  15.474  22.583  0.00  0.00     0.002 A 
HETATM   20  C   UNL     1       8.765  15.162  23.490  0.00  0.00     0.031 A 
ENDBRANCH   8  14
ENDBRANCH   1   7
BRANCH   2  21
HETATM   21  O   UNL     1      11.808  13.103  22.811  0.00  0.00    -0.360 OA
HETATM   22  H   UNL     1      11.546  13.255  21.877  0.00  0.00     0.217 HD
ENDBRANCH   2  21
BRANCH   6  23
HETATM   23  C   UNL     1       8.671   8.613  24.053  0.00  0.00     0.256 C 
HETATM   24  O   UNL     1       9.051   7.460  24.289  0.00  0.00    -0.267 OA
HETATM   25  N   UNL     1       7.314   8.868  23.815  0.00  0.00    -0.348 N 
HETATM   26  C   UNL     1       6.435   7.701  23.737  0.00  0.00     0.153 C 
BRANCH  25  27
HETATM   27  C   UNL     1       6.666  10.164  23.622  0.00  0.00     0.164 C 
BRANCH  27  28
HETATM   28  C   UNL     1       6.752  10.784  22.239  0.00  0.00    -0.040 A 
HETATM   29  C   UNL     1       5.978  10.230  21.200  0.00  0.00     0.009 A 
HETATM   30  C   UNL     1       6.179  10.607  19.871  0.00  0.00     0.001 A 
HETATM   31  C   UNL     1       7.164  11.538  19.554  0.00  0.00     0.007 A 
HETATM   32  C   UNL     1       7.927  12.129  20.569  0.00  0.00    -0.061 A 
HETATM   33  C   UNL     1       7.710  11.756  21.909  0.00  0.00     0.015 A 
HETATM   34  C   UNL     1       9.051  13.054  20.203  0.00  0.00     0.048 C 
ENDBRANCH  27  28
ENDBRANCH  25  27
ENDBRANCH   6  23
BRANCH   4  35
HETATM   35  O   UNL     1      10.276   8.831  21.701  0.00  0.00    -0.360 OA
HETATM   36  H   UNL     1       9.465   8.984  21.179  0.00  0.00     0.217 HD
ENDBRANCH   4  35
TORSDOF 7
ENDMDL
MODEL 9
REMARK VINA RESULT:    -8.016      2.774      5.456
REMARK INTER + INTRA:         -14.235
REMARK INTER:                 -10.892
REMARK INTRA:                  -3.343
REMARK UNBOUND:                -3.407
REMARK  7 active torsions:
REMARK  status: ('A' for Active; 'I' for Inactive)
REMARK    1  A    between atoms: C_7  and  N_8 
REMARK    2  A    between atoms: C_14  and  C_15 
REMARK    3  A    between atoms: C_16  and  O_17 
REMARK    4  A    between atoms: C_19  and  O_20 
REMARK    5  A    between atoms: C_22  and  C_23 
REMARK       I    between atoms: C_23  and  N_25 
REMARK    6  A    between atoms: N_25  and  C_27 
REMARK    7  A    between atoms: C_27  and  C_28 
ROOT
HETATM    1  C   UNL     1       6.110  12.000  22.092  0.00  0.00     0.046 A 
HETATM    2  C   UNL     1       6.793  11.362  21.033  0.00  0.00     0.082 A 
HETATM    3  C   UNL     1       7.911  11.934  20.442  0.00  0.00     0.075 A 
HETATM    4  C   UNL     1       8.380  13.160  20.905  0.00  0.00     0.084 A 
HETATM    5  C   UNL     1       6.562  13.271  22.515  0.00  0.00     0.038 A 
HETATM    6  C   UNL     1       7.739  13.840  21.965  0.00  0.00     0.066 A 
ENDROOT
BRANCH   1   7
HETATM    7  C   UNL     1       5.027  11.215  22.769  0.00  0.00     0.172 A 
HETATM    8  N   UNL     1       3.707  11.563  22.942  0.00  0.00    -0.244 N 
HETATM    9  C   UNL     1       3.152  10.509  23.656  0.00  0.00     0.349 A 
HETATM   10  O   UNL     1       2.037  10.387  24.152  0.00  0.00    -0.245 OA
HETATM   11  N   UNL     1       4.173   9.588  23.827  0.00  0.00    -0.226 N 
HETATM   12  H   UNL     1       4.127   8.796  24.455  0.00  0.00     0.194 HD
HETATM   13  N   UNL     1       5.328  10.048  23.291  0.00  0.00    -0.151 NA
BRANCH   8  14
HETATM   14  C   UNL     1       2.998  12.783  22.834  0.00  0.00     0.051 A 
HETATM   15  C   UNL     1       3.110  13.836  23.762  0.00  0.00    -0.035 A 
HETATM   16  C   UNL     1       3.859  13.714  25.062  0.00  0.00     0.050 C 
HETATM   17  C   UNL     1       2.335  14.999  23.578  0.00  0.00     0.009 A 
HETATM   18  C   UNL     1       1.379  15.081  22.567  0.00  0.00     0.001 A 
HETATM   19  C   UNL     1       1.189  14.004  21.714  0.00  0.00     0.002 A 
HETATM   20  C   UNL     1       2.002  12.876  21.837  0.00  0.00     0.031 A 
ENDBRANCH   8  14
ENDBRANCH   1   7
BRANCH   2  21
HETATM   21  O   UNL     1       6.461  10.128  20.531  0.00  0.00    -0.360 OA
HETATM   22  H   UNL     1       7.133   9.873  19.861  0.00  0.00     0.217 HD
ENDBRANCH   2  21
BRANCH   6  23
HETATM   23  C   UNL     1       8.537  14.866  22.717  0.00  0.00     0.256 C 
HETATM   24  O   UNL     1       8.659  15.956  22.146  0.00  0.00    -0.267 OA
HETATM   25  N   UNL     1       9.209  14.629  23.923  0.00  0.00    -0.348 N 
HETATM   26  C   UNL     1      10.132  15.672  24.372  0.00  0.00     0.153 C 
BRANCH  25  27
HETATM   27  C   UNL     1       9.111  13.454  24.788  0.00  0.00     0.164 C 
BRANCH  27  28
HETATM   28  C   UNL     1       9.599  12.132  24.222  0.00  0.00    -0.040 A 
HETATM   29  C   UNL     1      10.697  12.137  23.340  0.00  0.00     0.009 A 
HETATM   30  C   UNL     1      11.048  10.995  22.618  0.00  0.00     0.001 A 
HETATM   31  C   UNL     1      10.302   9.829  22.758  0.00  0.00     0.007 A 
HETATM   32  C   UNL     1       9.224   9.785  23.651  0.00  0.00    -0.061 A 
HETATM   33  C   UNL     1       8.884  10.935  24.387  0.00  0.00     0.015 A 
HETATM   34  C   UNL     1       8.369   8.552  23.715  0.00  0.00     0.048 C 
ENDBRANCH  27  28
ENDBRANCH  25  27
ENDBRANCH   6  23
BRANCH   4  35
HETATM   35  O   UNL     1       9.518  13.654  20.324  0.00  0.00    -0.360 OA
HETATM   36  H   UNL     1       9.310  14.490  19.865  0.00  0.00     0.217 HD
ENDBRANCH   4  35
TORSDOF 7
ENDMDL
