MODEL 1
REMARK VINA RESULT:    -8.575      0.000      0.000
REMARK INTER + INTRA:         -13.199
REMARK INTER:                 -11.233
REMARK INTRA:                  -1.966
REMARK UNBOUND:                -1.616
REMARK  7 active torsions:
REMARK  status: ('A' for Active; 'I' for Inactive)
REMARK    1  A    between atoms: C_7  and  N_8 
REMARK    2  A    between atoms: C_14  and  C_15 
REMARK    3  A    between atoms: C_16  and  O_17 
REMARK    4  A    between atoms: C_19  and  O_20 
REMARK    5  A    between atoms: C_22  and  C_23 
REMARK       I    between atoms: C_23  and  N_25 
REMARK    6  A    between atoms: N_25  and  C_27 
REMARK    7  A    between atoms: C_27  and  C_28 
ROOT
HETATM    1  C   UNL     1       6.698  11.848  22.834  0.00  0.00     0.046 C 
HETATM    2  C   UNL     1       6.687  11.536  21.454  0.00  0.00     0.082 C 
HETATM    3  C   UNL     1       5.802  10.611  20.913  0.00  0.00     0.075 C 
HETATM    4  C   UNL     1       4.851  10.004  21.723  0.00  0.00     0.084 C 
HETATM    5  C   UNL     1       5.728  11.207  23.648  0.00  0.00     0.038 C 
HETATM    6  C   UNL     1       4.724  10.365  23.073  0.00  0.00     0.066 C 
ENDROOT
BRANCH   1   7
HETATM    7  C   UNL     1       7.704  12.890  23.267  0.00  0.00     0.172 A 
HETATM    8  N   UNL     1       7.510  14.043  23.988  0.00  0.00    -0.244 N 
HETATM    9  C   UNL     1       8.761  14.649  24.068  0.00  0.00     0.349 A 
HETATM   10  O   UNL     1       9.083  15.748  24.503  0.00  0.00    -0.245 OA
HETATM   11  N   UNL     1       9.632  13.789  23.426  0.00  0.00    -0.226 N 
HETATM   12  H   UNL     1      10.589  14.012  23.191  0.00  0.00     0.194 HD
HETATM   13  N   UNL     1       8.965  12.724  22.923  0.00  0.00    -0.151 NA
BRANCH   8  14
HETATM   14  C   UNL     1       6.365  14.755  24.392  0.00  0.00     0.051 A 
HETATM   15  C   UNL     1       5.858  14.739  25.704  0.00  0.00    -0.035 A 
HETATM   16  C   UNL     1       6.372  13.810  26.768  0.00  0.00     0.050 C 
HETATM   17  C   UNL     1       4.685  15.464  25.980  0.00  0.00     0.009 A 
HETATM   18  C   UNL     1       3.974  16.120  24.973  0.00  0.00     0.001 A 
HETATM   19  C   UNL     1       4.432  16.058  23.662  0.00  0.00     0.002 A 
HETATM   20  C   UNL     1       5.606  15.383  23.377  0.00  0.00     0.031 A 
ENDBRANCH   8  14
ENDBRANCH   1   7
BRANCH   2  21
HETATM   21  O   UNL     1       7.508  12.115  20.518  0.00  0.00    -0.360 OA
HETATM   22  H   UNL     1       6.949  12.471  19.792  0.00  0.00     0.217 HD
ENDBRANCH   2  21
BRANCH   6  23
HETATM   23  C   UNL     1       3.513   9.934  23.886  0.00  0.00     0.256 C 
HETATM   24  O   UNL     1       3.476   8.756  24.259  0.00  0.00    -0.267 OA
HETATM   25  N   UNL     1       2.504  10.875  24.256  0.00  0.00    -0.350 N 
HETATM   26  C   UNL     1       2.536  12.271  23.846  0.00  0.00     0.153 C 
BRANCH  25  27
HETATM   27  C   UNL     1       1.188  10.399  24.799  0.00  0.00     0.157 C 
BRANCH  27  28
HETATM   28  C   UNL     1      -0.059  11.271  24.430  0.00  0.00     0.139 C 
HETATM   29  O   UNL     1      -1.010  10.536  23.622  0.00  0.00    -0.384 OA
HETATM   30  C   UNL     1      -2.226  11.286  23.613  0.00  0.00     0.168 C 
HETATM   31  C   UNL     1      -2.302  11.970  24.961  0.00  0.00     0.029 C 
HETATM   32  C   UNL     1      -0.933  11.738  25.591  0.00  0.00     0.035 C 
ENDBRANCH  27  28
ENDBRANCH  25  27
ENDBRANCH   6  23
BRANCH   4  33
HETATM   33  O   UNL     1       4.023   9.076  21.154  0.00  0.00    -0.360 OA
HETATM   34  H   UNL     1       4.224   8.198  21.524  0.00  0.00     0.217 HD
ENDBRANCH   4  33
TORSDOF 7
ENDMDL
MODEL 2
REMARK VINA RESULT:    -8.455      0.948      1.493
REMARK INTER + INTRA:         -13.037
REMARK INTER:                 -11.292
REMARK INTRA:                  -1.745
REMARK UNBOUND:                -1.616
REMARK  7 active torsions:
REMARK  status: ('A' for Active; 'I' for Inactive)
REMARK    1  A    between atoms: C_7  and  N_8 
REMARK    2  A    between atoms: C_14  and  C_15 
REMARK    3  A    between atoms: C_16  and  O_17 
REMARK    4  A    between atoms: C_19  and  O_20 
REMARK    5  A    between atoms: C_22  and  C_23 
REMARK       I    between atoms: C_23  and  N_25 
REMARK    6  A    between atoms: N_25  and  C_27 
REMARK    7  A    between atoms: C_27  and  C_28 
ROOT
HETATM    1  C   UNL     1       6.562  11.443  23.854  0.00  0.00     0.046 C 
HETATM    2  C   UNL     1       6.782  11.221  22.473  0.00  0.00     0.082 C 
HETATM    3  C   UNL     1       6.007  10.334  21.735  0.00  0.00     0.075 C 
HETATM    4  C   UNL     1       4.941   9.677  22.336  0.00  0.00     0.084 C 
HETATM    5  C   UNL     1       5.476  10.752  24.453  0.00  0.00     0.038 C 
HETATM    6  C   UNL     1       4.589   9.951  23.667  0.00  0.00     0.066 C 
ENDROOT
BRANCH   1   7
HETATM    7  C   UNL     1       7.472  12.453  24.513  0.00  0.00     0.172 A 
HETATM    8  N   UNL     1       7.183  13.710  24.985  0.00  0.00    -0.244 N 
HETATM    9  C   UNL     1       8.391  14.220  25.454  0.00  0.00     0.349 A 
HETATM   10  O   UNL     1       8.674  15.342  25.858  0.00  0.00    -0.245 OA
HETATM   11  N   UNL     1       9.316  13.211  25.272  0.00  0.00    -0.226 N 
HETATM   12  H   UNL     1      10.315  13.321  25.382  0.00  0.00     0.194 HD
HETATM   13  N   UNL     1       8.742  12.140  24.675  0.00  0.00    -0.151 NA
BRANCH   8  14
HETATM   14  C   UNL     1       6.069  14.562  24.863  0.00  0.00     0.051 A 
HETATM   15  C   UNL     1       5.759  15.278  23.694  0.00  0.00    -0.035 A 
HETATM   16  C   UNL     1       6.687  15.359  22.513  0.00  0.00     0.050 C 
HETATM   17  C   UNL     1       4.638  16.127  23.703  0.00  0.00     0.009 A 
HETATM   18  C   UNL     1       3.886  16.338  24.862  0.00  0.00     0.001 A 
HETATM   19  C   UNL     1       4.252  15.695  26.038  0.00  0.00     0.002 A 
HETATM   20  C   UNL     1       5.329  14.825  26.039  0.00  0.00     0.031 A 
ENDBRANCH   8  14
ENDBRANCH   1   7
BRANCH   2  21
HETATM   21  O   UNL     1       7.741  11.858  21.725  0.00  0.00    -0.360 OA
HETATM   22  H   UNL     1       8.553  11.305  21.724  0.00  0.00     0.217 HD
ENDBRANCH   2  21
BRANCH   6  23
HETATM   23  C   UNL     1       3.265   9.470  24.240  0.00  0.00     0.256 C 
HETATM   24  O   UNL     1       3.155   8.258  24.462  0.00  0.00    -0.267 OA
HETATM   25  N   UNL     1       2.226  10.394  24.567  0.00  0.00    -0.350 N 
HETATM   26  C   UNL     1       2.341  11.826  24.332  0.00  0.00     0.153 C 
BRANCH  25  27
HETATM   27  C   UNL     1       0.838   9.903  24.854  0.00  0.00     0.157 C 
BRANCH  27  28
HETATM   28  C   UNL     1      -0.311  10.952  24.667  0.00  0.00     0.139 C 
HETATM   29  O   UNL     1      -1.261  10.536  23.657  0.00  0.00    -0.384 OA
HETATM   30  C   UNL     1      -2.411  11.374  23.788  0.00  0.00     0.168 C 
HETATM   31  C   UNL     1      -2.522  11.699  25.262  0.00  0.00     0.029 C 
HETATM   32  C   UNL     1      -1.219  11.191  25.870  0.00  0.00     0.035 C 
ENDBRANCH  27  28
ENDBRANCH  25  27
ENDBRANCH   6  23
BRANCH   4  33
HETATM   33  O   UNL     1       4.227   8.789  21.581  0.00  0.00    -0.360 OA
HETATM   34  H   UNL     1       3.311   8.754  21.907  0.00  0.00     0.217 HD
ENDBRANCH   4  33
TORSDOF 7
ENDMDL
MODEL 3
REMARK VINA RESULT:    -8.272      3.135      3.888
REMARK INTER + INTRA:         -12.790
REMARK INTER:                 -11.030
REMARK INTRA:                  -1.760
REMARK UNBOUND:                -1.616
REMARK  7 active torsions:
REMARK  status: ('A' for Active; 'I' for Inactive)
REMARK    1  A    between atoms: C_7  and  N_8 
REMARK    2  A    between atoms: C_14  and  C_15 
REMARK    3  A    between atoms: C_16  and  O_17 
REMARK    4  A    between atoms: C_19  and  O_20 
REMARK    5  A    between atoms: C_22  and  C_23 
REMARK       I    between atoms: C_23  and  N_25 
REMARK    6  A    between atoms: N_25  and  C_27 
REMARK    7  A    between atoms: C_27  and  C_28 
ROOT
HETATM    1  C   UNL     1       8.145  12.478  22.366  0.00  0.00     0.046 C 
HETATM    2  C   UNL     1       8.543  12.651  21.019  0.00  0.00     0.082 C 
HETATM    3  C   UNL     1       7.988  11.908  19.983  0.00  0.00     0.075 C 
HETATM    4  C   UNL     1       6.968  11.004  20.247  0.00  0.00     0.084 C 
HETATM    5  C   UNL     1       7.111  11.539  22.617  0.00  0.00     0.038 C 
HETATM    6  C   UNL     1       6.437  10.879  21.541  0.00  0.00     0.066 C 
ENDROOT
BRANCH   1   7
HETATM    7  C   UNL     1       8.825  13.374  23.375  0.00  0.00     0.172 A 
HETATM    8  N   UNL     1       8.272  14.267  24.260  0.00  0.00    -0.244 N 
HETATM    9  C   UNL     1       9.349  14.853  24.921  0.00  0.00     0.349 A 
HETATM   10  O   UNL     1       9.379  15.788  25.713  0.00  0.00    -0.245 OA
HETATM   11  N   UNL     1      10.476  14.234  24.417  0.00  0.00    -0.226 N 
HETATM   12  H   UNL     1      11.424  14.537  24.592  0.00  0.00     0.194 HD
HETATM   13  N   UNL     1      10.140  13.343  23.455  0.00  0.00    -0.151 NA
BRANCH   8  14
HETATM   14  C   UNL     1       6.982  14.807  24.418  0.00  0.00     0.051 A 
HETATM   15  C   UNL     1       6.201  14.638  25.575  0.00  0.00    -0.035 A 
HETATM   16  C   UNL     1       6.582  13.704  26.690  0.00  0.00     0.050 C 
HETATM   17  C   UNL     1       4.910  15.196  25.602  0.00  0.00     0.009 A 
HETATM   18  C   UNL     1       4.362  15.832  24.486  0.00  0.00     0.001 A 
HETATM   19  C   UNL     1       5.106  15.918  23.315  0.00  0.00     0.002 A 
HETATM   20  C   UNL     1       6.393  15.409  23.282  0.00  0.00     0.031 A 
ENDBRANCH   8  14
ENDBRANCH   1   7
BRANCH   2  21
HETATM   21  O   UNL     1       9.477  13.564  20.594  0.00  0.00    -0.360 OA
HETATM   22  H   UNL     1       9.208  13.893  19.707  0.00  0.00     0.217 HD
ENDBRANCH   2  21
BRANCH   6  23
HETATM   23  C   UNL     1       5.142  10.121  21.784  0.00  0.00     0.256 C 
HETATM   24  O   UNL     1       4.086  10.747  21.629  0.00  0.00    -0.267 OA
HETATM   25  N   UNL     1       5.153   8.730  22.110  0.00  0.00    -0.350 N 
HETATM   26  C   UNL     1       6.382   7.969  22.279  0.00  0.00     0.153 C 
BRANCH  25  27
HETATM   27  C   UNL     1       3.912   8.063  22.626  0.00  0.00     0.157 C 
BRANCH  27  28
HETATM   28  C   UNL     1       3.191   7.095  21.628  0.00  0.00     0.139 C 
HETATM   29  O   UNL     1       3.549   7.375  20.253  0.00  0.00    -0.384 OA
HETATM   30  C   UNL     1       3.110   6.264  19.468  0.00  0.00     0.168 C 
HETATM   31  C   UNL     1       3.239   5.048  20.360  0.00  0.00     0.029 C 
HETATM   32  C   UNL     1       3.535   5.614  21.745  0.00  0.00     0.035 C 
ENDBRANCH  27  28
ENDBRANCH  25  27
ENDBRANCH   6  23
BRANCH   4  33
HETATM   33  O   UNL     1       6.474  10.271  19.203  0.00  0.00    -0.360 OA
HETATM   34  H   UNL     1       5.636   9.855  19.471  0.00  0.00     0.217 HD
ENDBRANCH   4  33
TORSDOF 7
ENDMDL
MODEL 4
REMARK VINA RESULT:    -8.010      2.494      3.284
REMARK INTER + INTRA:         -12.436
REMARK INTER:                 -10.687
REMARK INTRA:                  -1.749
REMARK UNBOUND:                -1.616
REMARK  7 active torsions:
REMARK  status: ('A' for Active; 'I' for Inactive)
REMARK    1  A    between atoms: C_7  and  N_8 
REMARK    2  A    between atoms: C_14  and  C_15 
REMARK    3  A    between atoms: C_16  and  O_17 
REMARK    4  A    between atoms: C_19  and  O_20 
REMARK    5  A    between atoms: C_22  and  C_23 
REMARK       I    between atoms: C_23  and  N_25 
REMARK    6  A    between atoms: N_25  and  C_27 
REMARK    7  A    between atoms: C_27  and  C_28 
ROOT
HETATM    1  C   UNL     1       8.287  12.574  22.226  0.00  0.00     0.046 C 
HETATM    2  C   UNL     1       8.580  12.764  20.854  0.00  0.00     0.082 C 
HETATM    3  C   UNL     1       8.000  11.984  19.860  0.00  0.00     0.075 C 
HETATM    4  C   UNL     1       7.056  11.022  20.195  0.00  0.00     0.084 C 
HETATM    5  C   UNL     1       7.330  11.576  22.549  0.00  0.00     0.038 C 
HETATM    6  C   UNL     1       6.625  10.872  21.522  0.00  0.00     0.066 C 
ENDROOT
BRANCH   1   7
HETATM    7  C   UNL     1       8.980  13.515  23.185  0.00  0.00     0.172 A 
HETATM    8  N   UNL     1       8.437  14.401  24.082  0.00  0.00    -0.244 N 
HETATM    9  C   UNL     1       9.521  15.041  24.678  0.00  0.00     0.349 A 
HETATM   10  O   UNL     1       9.553  15.991  25.452  0.00  0.00    -0.245 OA
HETATM   11  N   UNL     1      10.645  14.457  24.128  0.00  0.00    -0.226 N 
HETATM   12  H   UNL     1      11.588  14.800  24.250  0.00  0.00     0.194 HD
HETATM   13  N   UNL     1      10.298  13.536  23.198  0.00  0.00    -0.151 NA
BRANCH   8  14
HETATM   14  C   UNL     1       7.136  14.894  24.295  0.00  0.00     0.051 A 
HETATM   15  C   UNL     1       6.435  14.748  25.506  0.00  0.00    -0.035 A 
HETATM   16  C   UNL     1       6.925  13.885  26.636  0.00  0.00     0.050 C 
HETATM   17  C   UNL     1       5.125  15.252  25.589  0.00  0.00     0.009 A 
HETATM   18  C   UNL     1       4.482  15.810  24.481  0.00  0.00     0.001 A 
HETATM   19  C   UNL     1       5.149  15.870  23.263  0.00  0.00     0.002 A 
HETATM   20  C   UNL     1       6.453  15.416  23.173  0.00  0.00     0.031 A 
ENDBRANCH   8  14
ENDBRANCH   1   7
BRANCH   2  21
HETATM   21  O   UNL     1       9.426  13.729  20.364  0.00  0.00    -0.360 OA
HETATM   22  H   UNL     1       9.272  13.815  19.397  0.00  0.00     0.217 HD
ENDBRANCH   2  21
BRANCH   6  23
HETATM   23  C   UNL     1       5.396  10.040  21.855  0.00  0.00     0.256 C 
HETATM   24  O   UNL     1       4.293  10.553  21.636  0.00  0.00    -0.267 OA
HETATM   25  N   UNL     1       5.524   8.701  22.335  0.00  0.00    -0.350 N 
HETATM   26  C   UNL     1       6.812   8.069  22.581  0.00  0.00     0.153 C 
BRANCH  25  27
HETATM   27  C   UNL     1       4.342   7.993  22.929  0.00  0.00     0.157 C 
BRANCH  27  28
HETATM   28  C   UNL     1       3.974   8.394  24.398  0.00  0.00     0.139 C 
HETATM   29  O   UNL     1       2.543   8.536  24.575  0.00  0.00    -0.384 OA
HETATM   30  C   UNL     1       2.294   8.579  25.982  0.00  0.00     0.168 C 
HETATM   31  C   UNL     1       3.348   7.698  26.618  0.00  0.00     0.029 C 
HETATM   32  C   UNL     1       4.324   7.386  25.488  0.00  0.00     0.035 C 
ENDBRANCH  27  28
ENDBRANCH  25  27
ENDBRANCH   6  23
BRANCH   4  33
HETATM   33  O   UNL     1       6.536  10.256  19.188  0.00  0.00    -0.360 OA
HETATM   34  H   UNL     1       7.115   9.487  19.039  0.00  0.00     0.217 HD
ENDBRANCH   4  33
TORSDOF 7
ENDMDL
MODEL 5
REMARK VINA RESULT:    -7.966      2.296      4.550
REMARK INTER + INTRA:         -12.376
REMARK INTER:                 -10.573
REMARK INTRA:                  -1.804
REMARK UNBOUND:                -1.616
REMARK  7 active torsions:
REMARK  status: ('A' for Active; 'I' for Inactive)
REMARK    1  A    between atoms: C_7  and  N_8 
REMARK    2  A    between atoms: C_14  and  C_15 
REMARK    3  A    between atoms: C_16  and  O_17 
REMARK    4  A    between atoms: C_19  and  O_20 
REMARK    5  A    between atoms: C_22  and  C_23 
REMARK       I    between atoms: C_23  and  N_25 
REMARK    6  A    between atoms: N_25  and  C_27 
REMARK    7  A    between atoms: C_27  and  C_28 
ROOT
HETATM    1  C   UNL     1       5.882  14.795  23.536  0.00  0.00     0.046 C 
HETATM    2  C   UNL     1       6.154  15.114  24.888  0.00  0.00     0.082 C 
HETATM    3  C   UNL     1       5.141  15.272  25.827  0.00  0.00     0.075 C 
HETATM    4  C   UNL     1       3.818  15.058  25.464  0.00  0.00     0.084 C 
HETATM    5  C   UNL     1       4.523  14.593  23.181  0.00  0.00     0.038 C 
HETATM    6  C   UNL     1       3.492  14.612  24.173  0.00  0.00     0.066 C 
ENDROOT
BRANCH   1   7
HETATM    7  C   UNL     1       7.089  14.635  22.641  0.00  0.00     0.172 A 
HETATM    8  N   UNL     1       7.855  13.520  22.402  0.00  0.00    -0.244 N 
HETATM    9  C   UNL     1       8.861  13.937  21.532  0.00  0.00     0.349 A 
HETATM   10  O   UNL     1       9.851  13.344  21.124  0.00  0.00    -0.245 OA
HETATM   11  N   UNL     1       8.598  15.269  21.273  0.00  0.00    -0.226 N 
HETATM   12  H   UNL     1       9.229  15.894  20.790  0.00  0.00     0.194 HD
HETATM   13  N   UNL     1       7.520  15.688  21.976  0.00  0.00    -0.151 NA
BRANCH   8  14
HETATM   14  C   UNL     1       7.940  12.251  23.004  0.00  0.00     0.051 A 
HETATM   15  C   UNL     1       7.212  11.130  22.566  0.00  0.00    -0.035 A 
HETATM   16  C   UNL     1       6.125  11.213  21.531  0.00  0.00     0.050 C 
HETATM   17  C   UNL     1       7.352   9.921  23.271  0.00  0.00     0.009 A 
HETATM   18  C   UNL     1       8.123   9.834  24.433  0.00  0.00     0.001 A 
HETATM   19  C   UNL     1       8.768  10.968  24.910  0.00  0.00     0.002 A 
HETATM   20  C   UNL     1       8.674  12.158  24.208  0.00  0.00     0.031 A 
ENDBRANCH   8  14
ENDBRANCH   1   7
BRANCH   2  21
HETATM   21  O   UNL     1       7.412  15.273  25.413  0.00  0.00    -0.360 OA
HETATM   22  H   UNL     1       7.673  16.216  25.315  0.00  0.00     0.217 HD
ENDBRANCH   2  21
BRANCH   6  23
HETATM   23  C   UNL     1       2.098  14.096  23.854  0.00  0.00     0.256 C 
HETATM   24  O   UNL     1       1.222  14.940  23.631  0.00  0.00    -0.267 OA
HETATM   25  N   UNL     1       1.839  12.695  23.752  0.00  0.00    -0.350 N 
HETATM   26  C   UNL     1       2.858  11.683  23.991  0.00  0.00     0.153 C 
BRANCH  25  27
HETATM   27  C   UNL     1       0.428  12.186  23.725  0.00  0.00     0.157 C 
BRANCH  27  28
HETATM   28  C   UNL     1      -0.181  11.785  25.112  0.00  0.00     0.139 C 
HETATM   29  O   UNL     1      -1.550  12.235  25.249  0.00  0.00    -0.384 OA
HETATM   30  C   UNL     1      -2.106  11.557  26.378  0.00  0.00     0.168 C 
HETATM   31  C   UNL     1      -1.439  10.200  26.418  0.00  0.00     0.029 C 
HETATM   32  C   UNL     1      -0.314  10.291  25.393  0.00  0.00     0.035 C 
ENDBRANCH  27  28
ENDBRANCH  25  27
ENDBRANCH   6  23
BRANCH   4  33
HETATM   33  O   UNL     1       2.852  15.257  26.412  0.00  0.00    -0.360 OA
HETATM   34  H   UNL     1       2.816  14.482  27.000  0.00  0.00     0.217 HD
ENDBRANCH   4  33
TORSDOF 7
ENDMDL
MODEL 6
REMARK VINA RESULT:    -7.867      3.502      6.124
REMARK INTER + INTRA:         -12.243
REMARK INTER:                 -10.228
REMARK INTRA:                  -2.015
REMARK UNBOUND:                -1.616
REMARK  7 active torsions:
REMARK  status: ('A' for Active; 'I' for Inactive)
REMARK    1  A    between atoms: C_7  and  N_8 
REMARK    2  A    between atoms: C_14  and  C_15 
REMARK    3  A    between atoms: C_16  and  O_17 
REMARK    4  A    between atoms: C_19  and  O_20 
REMARK    5  A    between atoms: C_22  and  C_23 
REMARK       I    between atoms: C_23  and  N_25 
REMARK    6  A    between atoms: N_25  and  C_27 
REMARK    7  A    between atoms: C_27  and  C_28 
ROOT
HETATM    1  C   UNL     1       7.916  14.682  22.659  0.00  0.00     0.046 C 
HETATM    2  C   UNL     1       7.915  14.937  24.051  0.00  0.00     0.082 C 
HETATM    3  C   UNL     1       6.921  14.447  24.891  0.00  0.00     0.075 C 
HETATM    4  C   UNL     1       5.921  13.631  24.380  0.00  0.00     0.084 C 
HETATM    5  C   UNL     1       6.877  13.858  22.154  0.00  0.00     0.038 C 
HETATM    6  C   UNL     1       5.937  13.234  23.034  0.00  0.00     0.066 C 
ENDROOT
BRANCH   1   7
HETATM    7  C   UNL     1       9.075  15.264  21.882  0.00  0.00     0.172 A 
HETATM    8  N   UNL     1      10.083  14.620  21.207  0.00  0.00    -0.244 N 
HETATM    9  C   UNL     1      10.902  15.630  20.708  0.00  0.00     0.349 A 
HETATM   10  O   UNL     1      11.987  15.563  20.143  0.00  0.00    -0.245 OA
HETATM   11  N   UNL     1      10.299  16.816  21.081  0.00  0.00    -0.226 N 
HETATM   12  H   UNL     1      10.725  17.728  20.992  0.00  0.00     0.194 HD
HETATM   13  N   UNL     1       9.190  16.575  21.818  0.00  0.00    -0.151 NA
BRANCH   8  14
HETATM   14  C   UNL     1      10.516  13.282  21.152  0.00  0.00     0.051 A 
HETATM   15  C   UNL     1      10.076  12.358  20.188  0.00  0.00    -0.035 A 
HETATM   16  C   UNL     1       8.953  12.647  19.231  0.00  0.00     0.050 C 
HETATM   17  C   UNL     1      10.553  11.037  20.256  0.00  0.00     0.009 A 
HETATM   18  C   UNL     1      11.378  10.608  21.299  0.00  0.00     0.001 A 
HETATM   19  C   UNL     1      11.737  11.504  22.298  0.00  0.00     0.002 A 
HETATM   20  C   UNL     1      11.309  12.819  22.227  0.00  0.00     0.031 A 
ENDBRANCH   8  14
ENDBRANCH   1   7
BRANCH   2  21
HETATM   21  O   UNL     1       8.882  15.654  24.713  0.00  0.00    -0.360 OA
HETATM   22  H   UNL     1       8.699  16.611  24.586  0.00  0.00     0.217 HD
ENDBRANCH   2  21
BRANCH   6  23
HETATM   23  C   UNL     1       5.030  12.119  22.537  0.00  0.00     0.256 C 
HETATM   24  O   UNL     1       3.817  12.356  22.498  0.00  0.00    -0.267 OA
HETATM   25  N   UNL     1       5.572  10.881  22.075  0.00  0.00    -0.350 N 
HETATM   26  C   UNL     1       6.997  10.587  22.094  0.00  0.00     0.153 C 
BRANCH  25  27
HETATM   27  C   UNL     1       4.678   9.696  21.862  0.00  0.00     0.157 C 
BRANCH  27  28
HETATM   28  C   UNL     1       5.027   8.788  20.633  0.00  0.00     0.139 C 
HETATM   29  O   UNL     1       4.098   7.686  20.497  0.00  0.00    -0.384 OA
HETATM   30  C   UNL     1       4.298   7.122  19.199  0.00  0.00     0.168 C 
HETATM   31  C   UNL     1       4.698   8.275  18.303  0.00  0.00     0.029 C 
HETATM   32  C   UNL     1       4.942   9.440  19.257  0.00  0.00     0.035 C 
ENDBRANCH  27  28
ENDBRANCH  25  27
ENDBRANCH   6  23
BRANCH   4  33
HETATM   33  O   UNL     1       4.946  13.199  25.236  0.00  0.00    -0.360 OA
HETATM   34  H   UNL     1       4.297  12.667  24.742  0.00  0.00     0.217 HD
ENDBRANCH   4  33
TORSDOF 7
ENDMDL
MODEL 7
REMARK VINA RESULT:    -7.836      2.316      4.458
REMARK INTER + INTRA:         -12.200
REMARK INTER:                 -10.454
REMARK INTRA:                  -1.746
REMARK UNBOUND:                -1.616
REMARK  7 active torsions:
REMARK  status: ('A' for Active; 'I' for Inactive)
REMARK    1  A    between atoms: C_7  and  N_8 
REMARK    2  A    between atoms: C_14  and  C_15 
REMARK    3  A    between atoms: C_16  and  O_17 
REMARK    4  A    between atoms: C_19  and  O_20 
REMARK    5  A    between atoms: C_22  and  C_23 
REMARK       I    between atoms: C_23  and  N_25 
REMARK    6  A    between atoms: N_25  and  C_27 
REMARK    7  A    between atoms: C_27  and  C_28 
ROOT
HETATM    1  C   UNL     1       6.504  13.503  22.204  0.00  0.00     0.046 C 
HETATM    2  C   UNL     1       6.662  14.867  22.547  0.00  0.00     0.082 C 
HETATM    3  C   UNL     1       5.734  15.543  23.333  0.00  0.00     0.075 C 
HETATM    4  C   UNL     1       4.642  14.863  23.856  0.00  0.00     0.084 C 
HETATM    5  C   UNL     1       5.373  12.830  22.736  0.00  0.00     0.038 C 
HETATM    6  C   UNL     1       4.496  13.481  23.661  0.00  0.00     0.066 C 
ENDROOT
BRANCH   1   7
HETATM    7  C   UNL     1       7.607  12.903  21.362  0.00  0.00     0.172 A 
HETATM    8  N   UNL     1       8.269  11.710  21.515  0.00  0.00    -0.244 N 
HETATM    9  C   UNL     1       9.213  11.673  20.491  0.00  0.00     0.349 A 
HETATM   10  O   UNL     1      10.118  10.875  20.276  0.00  0.00    -0.245 OA
HETATM   11  N   UNL     1       9.017  12.831  19.764  0.00  0.00    -0.226 N 
HETATM   12  H   UNL     1       9.639  13.165  19.041  0.00  0.00     0.194 HD
HETATM   13  N   UNL     1       8.042  13.585  20.321  0.00  0.00    -0.151 NA
BRANCH   8  14
HETATM   14  C   UNL     1       8.325  10.754  22.547  0.00  0.00     0.051 A 
HETATM   15  C   UNL     1       7.477   9.636  22.621  0.00  0.00    -0.035 A 
HETATM   16  C   UNL     1       6.295   9.443  21.712  0.00  0.00     0.050 C 
HETATM   17  C   UNL     1       7.603   8.768  23.720  0.00  0.00     0.009 A 
HETATM   18  C   UNL     1       8.484   9.038  24.771  0.00  0.00     0.001 A 
HETATM   19  C   UNL     1       9.256  10.193  24.734  0.00  0.00     0.002 A 
HETATM   20  C   UNL     1       9.174  11.038  23.641  0.00  0.00     0.031 A 
ENDBRANCH   8  14
ENDBRANCH   1   7
BRANCH   2  21
HETATM   21  O   UNL     1       7.730  15.646  22.176  0.00  0.00    -0.360 OA
HETATM   22  H   UNL     1       8.555  15.206  22.478  0.00  0.00     0.217 HD
ENDBRANCH   2  21
BRANCH   6  23
HETATM   23  C   UNL     1       3.481  12.682  24.462  0.00  0.00     0.256 C 
HETATM   24  O   UNL     1       3.890  12.116  25.483  0.00  0.00    -0.267 OA
HETATM   25  N   UNL     1       2.105  12.650  24.081  0.00  0.00    -0.350 N 
HETATM   26  C   UNL     1       1.598  13.324  22.895  0.00  0.00     0.153 C 
BRANCH  25  27
HETATM   27  C   UNL     1       1.174  11.644  24.692  0.00  0.00     0.157 C 
BRANCH  27  28
HETATM   28  C   UNL     1      -0.355  11.962  24.565  0.00  0.00     0.139 C 
HETATM   29  O   UNL     1      -1.025  11.038  23.674  0.00  0.00    -0.384 OA
HETATM   30  C   UNL     1      -2.431  11.203  23.874  0.00  0.00     0.168 C 
HETATM   31  C   UNL     1      -2.603  11.567  25.332  0.00  0.00     0.029 C 
HETATM   32  C   UNL     1      -1.188  11.830  25.836  0.00  0.00     0.035 C 
ENDBRANCH  27  28
ENDBRANCH  25  27
ENDBRANCH   6  23
BRANCH   4  33
HETATM   33  O   UNL     1       3.738  15.576  24.595  0.00  0.00    -0.360 OA
HETATM   34  H   UNL     1       4.021  16.507  24.637  0.00  0.00     0.217 HD
ENDBRANCH   4  33
TORSDOF 7
ENDMDL
MODEL 8
REMARK VINA RESULT:    -7.809      3.487      4.646
REMARK INTER + INTRA:         -12.164
REMARK INTER:                 -10.972
REMARK INTRA:                  -1.192
REMARK UNBOUND:                -1.616
REMARK  7 active torsions:
REMARK  status: ('A' for Active; 'I' for Inactive)
REMARK    1  A    between atoms: C_7  and  N_8 
REMARK    2  A    between atoms: C_14  and  C_15 
REMARK    3  A    between atoms: C_16  and  O_17 
REMARK    4  A    between atoms: C_19  and  O_20 
REMARK    5  A    between atoms: C_22  and  C_23 
REMARK       I    between atoms: C_23  and  N_25 
REMARK    6  A    between atoms: N_25  and  C_27 
REMARK    7  A    between atoms: C_27  and  C_28 
ROOT
HETATM    1  C   UNL     1       8.331  11.502  24.320  0.00  0.00     0.046 C 
HETATM    2  C   UNL     1       9.024  10.333  24.714  0.00  0.00     0.082 C 
HETATM    3  C   UNL     1       8.528   9.059  24.458  0.00  0.00     0.075 C 
HETATM    4  C   UNL     1       7.348   8.905  23.743  0.00  0.00     0.084 C 
HETATM    5  C   UNL     1       7.120  11.324  23.602  0.00  0.00     0.038 C 
HETATM    6  C   UNL     1       6.681  10.020  23.211  0.00  0.00     0.066 C 
ENDROOT
BRANCH   1   7
HETATM    7  C   UNL     1       9.009  12.813  24.650  0.00  0.00     0.172 A 
HETATM    8  N   UNL     1       8.455  14.052  24.859  0.00  0.00    -0.244 N 
HETATM    9  C   UNL     1       9.530  14.908  25.087  0.00  0.00     0.349 A 
HETATM   10  O   UNL     1       9.560  16.127  25.206  0.00  0.00    -0.245 OA
HETATM   11  N   UNL     1      10.656  14.109  25.045  0.00  0.00    -0.226 N 
HETATM   12  H   UNL     1      11.605  14.456  25.032  0.00  0.00     0.194 HD
HETATM   13  N   UNL     1      10.322  12.830  24.756  0.00  0.00    -0.151 NA
BRANCH   8  14
HETATM   14  C   UNL     1       7.169  14.588  24.659  0.00  0.00     0.051 A 
HETATM   15  C   UNL     1       6.706  15.065  23.420  0.00  0.00    -0.035 A 
HETATM   16  C   UNL     1       7.599  15.228  22.221  0.00  0.00     0.050 C 
HETATM   17  C   UNL     1       5.413  15.612  23.351  0.00  0.00     0.009 A 
HETATM   18  C   UNL     1       4.620  15.769  24.491  0.00  0.00     0.001 A 
HETATM   19  C   UNL     1       5.119  15.378  25.728  0.00  0.00     0.002 A 
HETATM   20  C   UNL     1       6.375  14.801  25.810  0.00  0.00     0.031 A 
ENDBRANCH   8  14
ENDBRANCH   1   7
BRANCH   2  21
HETATM   21  O   UNL     1      10.240  10.325  25.352  0.00  0.00    -0.360 OA
HETATM   22  H   UNL     1      10.743   9.535  25.052  0.00  0.00     0.217 HD
ENDBRANCH   2  21
BRANCH   6  23
HETATM   23  C   UNL     1       5.567   9.850  22.190  0.00  0.00     0.256 C 
HETATM   24  O   UNL     1       4.485   9.416  22.604  0.00  0.00    -0.267 OA
HETATM   25  N   UNL     1       5.751  10.242  20.829  0.00  0.00    -0.350 N 
HETATM   26  C   UNL     1       7.009  10.773  20.323  0.00  0.00     0.153 C 
BRANCH  25  27
HETATM   27  C   UNL     1       4.770   9.813  19.778  0.00  0.00     0.157 C 
BRANCH  27  28
HETATM   28  C   UNL     1       4.683   8.272  19.512  0.00  0.00     0.139 C 
HETATM   29  O   UNL     1       3.560   7.669  20.199  0.00  0.00    -0.384 OA
HETATM   30  C   UNL     1       3.379   6.363  19.648  0.00  0.00     0.168 C 
HETATM   31  C   UNL     1       3.789   6.464  18.195  0.00  0.00     0.029 C 
HETATM   32  C   UNL     1       4.436   7.840  18.070  0.00  0.00     0.035 C 
ENDBRANCH  27  28
ENDBRANCH  25  27
ENDBRANCH   6  23
BRANCH   4  33
HETATM   33  O   UNL     1       6.880   7.636  23.543  0.00  0.00    -0.360 OA
HETATM   34  H   UNL     1       5.924   7.613  23.725  0.00  0.00     0.217 HD
ENDBRANCH   4  33
TORSDOF 7
ENDMDL
MODEL 9
REMARK VINA RESULT:    -7.731      2.533      5.109
REMARK INTER + INTRA:         -12.059
REMARK INTER:                 -10.443
REMARK INTRA:                  -1.616
REMARK UNBOUND:                -1.616
REMARK  7 active torsions:
REMARK  status: ('A' for Active; 'I' for Inactive)
REMARK    1  A    between atoms: C_7  and  N_8 
REMARK    2  A    between atoms: C_14  and  C_15 
REMARK    3  A    between atoms: C_16  and  O_17 
REMARK    4  A    between atoms: C_19  and  O_20 
REMARK    5  A    between atoms: C_22  and  C_23 
REMARK       I    between atoms: C_23  and  N_25 
REMARK    6  A    between atoms: N_25  and  C_27 
REMARK    7  A    between atoms: C_27  and  C_28 
ROOT
HETATM    1  C   UNL     1       7.262  14.644  22.957  0.00  0.00     0.046 C 
HETATM    2  C   UNL     1       8.170  14.446  24.024  0.00  0.00     0.082 C 
HETATM    3  C   UNL     1       7.808  14.653  25.350  0.00  0.00     0.075 C 
HETATM    4  C   UNL     1       6.503  15.009  25.666  0.00  0.00     0.084 C 
HETATM    5  C   UNL     1       5.937  15.022  23.299  0.00  0.00     0.038 C 
HETATM    6  C   UNL     1       5.522  15.095  24.667  0.00  0.00     0.066 C 
ENDROOT
BRANCH   1   7
HETATM    7  C   UNL     1       7.797  14.357  21.573  0.00  0.00     0.172 A 
HETATM    8  N   UNL     1       8.042  13.150  20.966  0.00  0.00    -0.244 N 
HETATM    9  C   UNL     1       8.566  13.461  19.713  0.00  0.00     0.349 A 
HETATM   10  O   UNL     1       9.047  12.733  18.853  0.00  0.00    -0.245 OA
HETATM   11  N   UNL     1       8.556  14.840  19.639  0.00  0.00    -0.226 N 
HETATM   12  H   UNL     1       9.006  15.378  18.911  0.00  0.00     0.194 HD
HETATM   13  N   UNL     1       8.100  15.377  20.795  0.00  0.00    -0.151 NA
BRANCH   8  14
HETATM   14  C   UNL     1       8.085  11.821  21.427  0.00  0.00     0.051 A 
HETATM   15  C   UNL     1       6.940  11.044  21.678  0.00  0.00    -0.035 A 
HETATM   16  C   UNL     1       5.547  11.611  21.663  0.00  0.00     0.050 C 
HETATM   17  C   UNL     1       7.108   9.738  22.171  0.00  0.00     0.009 A 
HETATM   18  C   UNL     1       8.370   9.233  22.495  0.00  0.00     0.001 A 
HETATM   19  C   UNL     1       9.490  10.038  22.329  0.00  0.00     0.002 A 
HETATM   20  C   UNL     1       9.348  11.312  21.807  0.00  0.00     0.031 A 
ENDBRANCH   8  14
ENDBRANCH   1   7
BRANCH   2  21
HETATM   21  O   UNL     1       9.465  14.014  23.875  0.00  0.00    -0.360 OA
HETATM   22  H   UNL     1       9.626  13.287  24.516  0.00  0.00     0.217 HD
ENDBRANCH   2  21
BRANCH   6  23
HETATM   23  C   UNL     1       4.047  15.192  25.026  0.00  0.00     0.256 C 
HETATM   24  O   UNL     1       3.559  16.325  25.101  0.00  0.00    -0.267 OA
HETATM   25  N   UNL     1       3.255  14.016  25.199  0.00  0.00    -0.350 N 
HETATM   26  C   UNL     1       3.803  12.671  25.096  0.00  0.00     0.153 C 
BRANCH  25  27
HETATM   27  C   UNL     1       1.895  14.105  25.827  0.00  0.00     0.157 C 
BRANCH  27  28
HETATM   28  C   UNL     1       0.683  13.821  24.877  0.00  0.00     0.139 C 
HETATM   29  O   UNL     1       1.099  13.696  23.496  0.00  0.00    -0.384 OA
HETATM   30  C   UNL     1       0.003  13.130  22.774  0.00  0.00     0.168 C 
HETATM   31  C   UNL     1      -0.703  12.209  23.745  0.00  0.00     0.029 C 
HETATM   32  C   UNL     1      -0.066  12.511  25.098  0.00  0.00     0.035 C 
ENDBRANCH  27  28
ENDBRANCH  25  27
ENDBRANCH   6  23
BRANCH   4  33
HETATM   33  O   UNL     1       6.201  15.235  26.980  0.00  0.00    -0.360 OA
HETATM   34  H   UNL     1       5.319  14.869  27.174  0.00  0.00     0.217 HD
ENDBRANCH   4  33
TORSDOF 7
ENDMDL
