MODEL 1
REMARK VINA RESULT:   -11.334      0.000      0.000
REMARK INTER + INTRA:         -16.691
REMARK INTER:                 -14.916
REMARK INTRA:                  -1.776
REMARK UNBOUND:                -1.712
REMARK  6 active torsions:
REMARK  status: ('A' for Active; 'I' for Inactive)
REMARK    1  A    between atoms: C_9  and  C_11 
REMARK    2  A    between atoms: N_17  and  C_21 
REMARK    3  A    between atoms: C_24  and  C_25 
REMARK       I    between atoms: C_25  and  N_27 
REMARK    4  A    between atoms: C_29  and  N_30 
REMARK    5  A    between atoms: N_30  and  C_31 
REMARK    6  A    between atoms: C_34  and  O_35 
ROOT
HETATM    1  C   UNL     1       8.177  13.785  22.026  0.00  0.00     0.060 C 
HETATM    2  C   UNL     1       8.683  14.174  20.783  0.00  0.00     0.033 C 
HETATM    3  C   UNL     1      10.057  14.281  20.586  0.00  0.00     0.021 C 
HETATM    4  C   UNL     1      10.954  13.932  21.610  0.00  0.00     0.053 C 
HETATM    5  C   UNL     1       9.059  13.494  23.068  0.00  0.00     0.056 C 
HETATM    6  C   UNL     1      10.443  13.469  22.860  0.00  0.00     0.026 C 
ENDROOT
BRANCH   1   7
HETATM    7  N   UNL     1       6.784  13.524  22.164  0.00  0.00    -0.233 N 
HETATM    8  C   UNL     1       5.790  14.254  22.803  0.00  0.00     0.072 A 
HETATM    9  C   UNL     1       5.784  15.589  23.242  0.00  0.00     0.032 A 
HETATM   10  C   UNL     1       4.666  13.403  22.917  0.00  0.00     0.030 A 
HETATM   11  C   UNL     1       4.636  16.084  23.835  0.00  0.00     0.003 A 
HETATM   12  C   UNL     1       3.529  15.264  23.995  0.00  0.00     0.013 A 
HETATM   13  C   UNL     1       3.485  13.903  23.579  0.00  0.00    -0.010 A 
HETATM   14  C   UNL     1       5.121  12.204  22.261  0.00  0.00     0.065 C 
HETATM   15  N   UNL     1       6.321  12.356  21.697  0.00  0.00    -0.171 NA
HETATM   16  C   UNL     1       4.495  10.876  22.038  0.00  0.00     0.073 C 
BRANCH  13  17
HETATM   17  C   UNL     1       2.224  13.139  23.813  0.00  0.00    -0.006 A 
HETATM   18  C   UNL     1       2.146  11.959  24.535  0.00  0.00     0.129 A 
HETATM   19  N   UNL     1       1.024  11.226  24.778  0.00  0.00    -0.259 NA
HETATM   20  C   UNL     1      -0.111  11.587  24.169  0.00  0.00     0.066 A 
HETATM   21  C   UNL     1      -1.259  10.823  24.341  0.00  0.00     0.032 A 
HETATM   22  C   UNL     1      -0.158  12.701  23.316  0.00  0.00    -0.007 A 
HETATM   23  C   UNL     1      -2.428  11.089  23.625  0.00  0.00     0.002 A 
HETATM   24  C   UNL     1      -2.458  12.148  22.724  0.00  0.00     0.001 A 
HETATM   25  C   UNL     1      -1.338  12.968  22.587  0.00  0.00     0.014 A 
HETATM   26  C   UNL     1       1.002  13.496  23.204  0.00  0.00     0.027 A 
ENDBRANCH  13  17
ENDBRANCH   1   7
BRANCH   6  27
HETATM   27  N   UNL     1      11.284  12.995  23.918  0.00  0.00    -0.288 NA
HETATM   28  H   UNL     1      10.885  12.090  24.226  0.00  0.00     0.128 HD
BRANCH  27  29
HETATM   29  C   UNL     1      11.421  13.924  25.077  0.00  0.00     0.060 C 
HETATM   30  C   UNL     1      10.780  13.300  26.315  0.00  0.00     0.022 C 
HETATM   31  C   UNL     1      11.558  12.057  26.736  0.00  0.00     0.033 C 
HETATM   32  C   UNL     1      12.938  12.462  27.239  0.00  0.00     0.118 C 
HETATM   33  C   UNL     1      13.713  13.319  26.235  0.00  0.00     0.033 C 
HETATM   34  C   UNL     1      12.890  14.293  25.375  0.00  0.00     0.022 C 
BRANCH  32  35
HETATM   35  O   UNL     1      12.782  13.191  28.457  0.00  0.00    -0.396 OA
HETATM   36  H   UNL     1      11.914  12.951  28.828  0.00  0.00     0.210 HD
ENDBRANCH  32  35
ENDBRANCH  27  29
ENDBRANCH   6  27
BRANCH   4  37
HETATM   37  C   UNL     1      12.422  13.937  21.317  0.00  0.00     0.251 C 
HETATM   38  O   UNL     1      13.199  14.626  21.962  0.00  0.00    -0.268 OA
HETATM   39  N   UNL     1      12.889  13.109  20.325  0.00  0.00    -0.366 N 
HETATM   40  H   UNL     1      12.298  12.650  19.644  0.00  0.00     0.159 HD
HETATM   41  H   UNL     1      13.886  13.114  20.142  0.00  0.00     0.159 HD
ENDBRANCH   4  37
TORSDOF 6
ENDMDL
MODEL 2
REMARK VINA RESULT:   -10.906      0.818      1.165
REMARK INTER + INTRA:         -16.125
REMARK INTER:                 -14.524
REMARK INTRA:                  -1.601
REMARK UNBOUND:                -1.712
REMARK  6 active torsions:
REMARK  status: ('A' for Active; 'I' for Inactive)
REMARK    1  A    between atoms: C_9  and  C_11 
REMARK    2  A    between atoms: N_17  and  C_21 
REMARK    3  A    between atoms: C_24  and  C_25 
REMARK       I    between atoms: C_25  and  N_27 
REMARK    4  A    between atoms: C_29  and  N_30 
REMARK    5  A    between atoms: N_30  and  C_31 
REMARK    6  A    between atoms: C_34  and  O_35 
ROOT
HETATM    1  C   UNL     1       8.450  13.503  21.634  0.00  0.00     0.060 C 
HETATM    2  C   UNL     1       8.999  13.284  20.367  0.00  0.00     0.033 C 
HETATM    3  C   UNL     1      10.376  13.362  20.175  0.00  0.00     0.021 C 
HETATM    4  C   UNL     1      11.235  13.591  21.262  0.00  0.00     0.053 C 
HETATM    5  C   UNL     1       9.292  13.791  22.709  0.00  0.00     0.056 C 
HETATM    6  C   UNL     1      10.684  13.749  22.570  0.00  0.00     0.026 C 
ENDROOT
BRANCH   1   7
HETATM    7  N   UNL     1       7.063  13.260  21.848  0.00  0.00    -0.233 N 
HETATM    8  C   UNL     1       6.109  14.016  22.517  0.00  0.00     0.072 A 
HETATM    9  C   UNL     1       6.139  15.361  22.925  0.00  0.00     0.032 A 
HETATM   10  C   UNL     1       4.984  13.180  22.708  0.00  0.00     0.030 A 
HETATM   11  C   UNL     1       5.027  15.882  23.563  0.00  0.00     0.003 A 
HETATM   12  C   UNL     1       3.921  15.078  23.797  0.00  0.00     0.013 A 
HETATM   13  C   UNL     1       3.843  13.708  23.415  0.00  0.00    -0.010 A 
HETATM   14  C   UNL     1       5.394  11.962  22.058  0.00  0.00     0.065 C 
HETATM   15  N   UNL     1       6.566  12.087  21.431  0.00  0.00    -0.171 NA
HETATM   16  C   UNL     1       4.745  10.636  21.897  0.00  0.00     0.073 C 
BRANCH  13  17
HETATM   17  C   UNL     1       2.588  12.964  23.730  0.00  0.00    -0.006 A 
HETATM   18  C   UNL     1       2.539  11.779  24.448  0.00  0.00     0.129 A 
HETATM   19  N   UNL     1       1.424  11.063  24.762  0.00  0.00    -0.259 NA
HETATM   20  C   UNL     1       0.256  11.449  24.234  0.00  0.00     0.066 A 
HETATM   21  C   UNL     1      -0.891  10.702  24.479  0.00  0.00     0.032 A 
HETATM   22  C   UNL     1       0.170  12.570  23.394  0.00  0.00    -0.007 A 
HETATM   23  C   UNL     1      -2.101  10.993  23.845  0.00  0.00     0.002 A 
HETATM   24  C   UNL     1      -2.174  12.059  22.956  0.00  0.00     0.001 A 
HETATM   25  C   UNL     1      -1.052  12.862  22.748  0.00  0.00     0.014 A 
HETATM   26  C   UNL     1       1.334  13.346  23.208  0.00  0.00     0.027 A 
ENDBRANCH  13  17
ENDBRANCH   1   7
BRANCH   6  27
HETATM   27  N   UNL     1      11.493  13.882  23.745  0.00  0.00    -0.288 NA
HETATM   28  H   UNL     1      12.230  14.572  23.516  0.00  0.00     0.128 HD
BRANCH  27  29
HETATM   29  C   UNL     1      12.105  12.613  24.234  0.00  0.00     0.060 C 
HETATM   30  C   UNL     1      13.130  12.922  25.322  0.00  0.00     0.022 C 
HETATM   31  C   UNL     1      12.433  13.499  26.550  0.00  0.00     0.033 C 
HETATM   32  C   UNL     1      11.566  12.427  27.199  0.00  0.00     0.118 C 
HETATM   33  C   UNL     1      10.581  11.781  26.221  0.00  0.00     0.033 C 
HETATM   34  C   UNL     1      11.057  11.612  24.768  0.00  0.00     0.022 C 
BRANCH  32  35
HETATM   35  O   UNL     1      12.420  11.418  27.739  0.00  0.00    -0.396 OA
HETATM   36  H   UNL     1      12.989  11.103  27.015  0.00  0.00     0.210 HD
ENDBRANCH  32  35
ENDBRANCH  27  29
ENDBRANCH   6  27
BRANCH   4  37
HETATM   37  C   UNL     1      12.715  13.540  21.036  0.00  0.00     0.251 C 
HETATM   38  O   UNL     1      13.466  14.360  21.542  0.00  0.00    -0.268 OA
HETATM   39  N   UNL     1      13.220  12.513  20.275  0.00  0.00    -0.366 N 
HETATM   40  H   UNL     1      12.656  11.910  19.691  0.00  0.00     0.159 HD
HETATM   41  H   UNL     1      14.223  12.483  20.137  0.00  0.00     0.159 HD
ENDBRANCH   4  37
TORSDOF 6
ENDMDL
MODEL 3
REMARK VINA RESULT:   -10.702      1.550      1.965
REMARK INTER + INTRA:         -15.855
REMARK INTER:                 -14.438
REMARK INTRA:                  -1.418
REMARK UNBOUND:                -1.712
REMARK  6 active torsions:
REMARK  status: ('A' for Active; 'I' for Inactive)
REMARK    1  A    between atoms: C_9  and  C_11 
REMARK    2  A    between atoms: N_17  and  C_21 
REMARK    3  A    between atoms: C_24  and  C_25 
REMARK       I    between atoms: C_25  and  N_27 
REMARK    4  A    between atoms: C_29  and  N_30 
REMARK    5  A    between atoms: N_30  and  C_31 
REMARK    6  A    between atoms: C_34  and  O_35 
ROOT
HETATM    1  C   UNL     1       8.123  13.822  21.969  0.00  0.00     0.060 C 
HETATM    2  C   UNL     1       8.638  14.066  20.693  0.00  0.00     0.033 C 
HETATM    3  C   UNL     1      10.013  14.169  20.498  0.00  0.00     0.021 C 
HETATM    4  C   UNL     1      10.902  13.960  21.565  0.00  0.00     0.053 C 
HETATM    5  C   UNL     1       8.996  13.673  23.047  0.00  0.00     0.056 C 
HETATM    6  C   UNL     1      10.383  13.644  22.858  0.00  0.00     0.026 C 
ENDROOT
BRANCH   1   7
HETATM    7  N   UNL     1       6.733  13.558  22.124  0.00  0.00    -0.233 N 
HETATM    8  C   UNL     1       5.747  14.279  22.787  0.00  0.00     0.072 A 
HETATM    9  C   UNL     1       5.747  15.608  23.245  0.00  0.00     0.032 A 
HETATM   10  C   UNL     1       4.626  13.425  22.907  0.00  0.00     0.030 A 
HETATM   11  C   UNL     1       4.608  16.093  23.862  0.00  0.00     0.003 A 
HETATM   12  C   UNL     1       3.504  15.270  24.027  0.00  0.00     0.013 A 
HETATM   13  C   UNL     1       3.454  13.915  23.592  0.00  0.00    -0.010 A 
HETATM   14  C   UNL     1       5.071  12.236  22.227  0.00  0.00     0.065 C 
HETATM   15  N   UNL     1       6.263  12.396  21.648  0.00  0.00    -0.171 NA
HETATM   16  C   UNL     1       4.443  10.910  21.995  0.00  0.00     0.073 C 
BRANCH  13  17
HETATM   17  C   UNL     1       2.197  13.148  23.835  0.00  0.00    -0.006 A 
HETATM   18  C   UNL     1       2.127  11.970  24.561  0.00  0.00     0.129 A 
HETATM   19  N   UNL     1       1.009  11.233  24.811  0.00  0.00    -0.259 NA
HETATM   20  C   UNL     1      -0.130  11.588  24.206  0.00  0.00     0.066 A 
HETATM   21  C   UNL     1      -1.274  10.819  24.385  0.00  0.00     0.032 A 
HETATM   22  C   UNL     1      -0.185  12.698  23.348  0.00  0.00    -0.007 A 
HETATM   23  C   UNL     1      -2.447  11.078  23.672  0.00  0.00     0.002 A 
HETATM   24  C   UNL     1      -2.485  12.133  22.767  0.00  0.00     0.001 A 
HETATM   25  C   UNL     1      -1.369  12.957  22.622  0.00  0.00     0.014 A 
HETATM   26  C   UNL     1       0.972  13.497  23.229  0.00  0.00     0.027 A 
ENDBRANCH  13  17
ENDBRANCH   1   7
BRANCH   6  27
HETATM   27  N   UNL     1      11.219  13.315  23.973  0.00  0.00    -0.288 NA
HETATM   28  H   UNL     1      12.061  13.912  23.893  0.00  0.00     0.128 HD
BRANCH  27  29
HETATM   29  C   UNL     1      11.608  11.879  24.065  0.00  0.00     0.060 C 
HETATM   30  C   UNL     1      11.309  11.353  25.467  0.00  0.00     0.022 C 
HETATM   31  C   UNL     1       9.804  11.350  25.715  0.00  0.00     0.033 C 
HETATM   32  C   UNL     1       9.139  10.313  24.818  0.00  0.00     0.118 C 
HETATM   33  C   UNL     1       9.483  10.494  23.338  0.00  0.00     0.033 C 
HETATM   34  C   UNL     1      10.899  11.000  23.013  0.00  0.00     0.022 C 
BRANCH  32  35
HETATM   35  O   UNL     1       9.553   9.014  25.241  0.00  0.00    -0.396 OA
HETATM   36  H   UNL     1       9.265   8.906  26.165  0.00  0.00     0.210 HD
ENDBRANCH  32  35
ENDBRANCH  27  29
ENDBRANCH   6  27
BRANCH   4  37
HETATM   37  C   UNL     1      12.374  13.953  21.288  0.00  0.00     0.251 C 
HETATM   38  O   UNL     1      12.835  13.392  20.305  0.00  0.00    -0.268 OA
HETATM   39  N   UNL     1      13.200  14.635  22.149  0.00  0.00    -0.366 N 
HETATM   40  H   UNL     1      12.917  14.969  23.061  0.00  0.00     0.159 HD
HETATM   41  H   UNL     1      14.192  14.631  21.946  0.00  0.00     0.159 HD
ENDBRANCH   4  37
TORSDOF 6
ENDMDL
MODEL 4
REMARK VINA RESULT:   -10.690      2.043      3.598
REMARK INTER + INTRA:         -15.840
REMARK INTER:                 -14.044
REMARK INTRA:                  -1.796
REMARK UNBOUND:                -1.712
REMARK  6 active torsions:
REMARK  status: ('A' for Active; 'I' for Inactive)
REMARK    1  A    between atoms: C_9  and  C_11 
REMARK    2  A    between atoms: N_17  and  C_21 
REMARK    3  A    between atoms: C_24  and  C_25 
REMARK       I    between atoms: C_25  and  N_27 
REMARK    4  A    between atoms: C_29  and  N_30 
REMARK    5  A    between atoms: N_30  and  C_31 
REMARK    6  A    between atoms: C_34  and  O_35 
ROOT
HETATM    1  C   UNL     1       8.161  13.285  25.240  0.00  0.00     0.060 C 
HETATM    2  C   UNL     1       8.567  14.324  26.083  0.00  0.00     0.033 C 
HETATM    3  C   UNL     1       9.921  14.569  26.295  0.00  0.00     0.021 C 
HETATM    4  C   UNL     1      10.896  13.824  25.611  0.00  0.00     0.053 C 
HETATM    5  C   UNL     1       9.124  12.501  24.603  0.00  0.00     0.056 C 
HETATM    6  C   UNL     1      10.486  12.806  24.697  0.00  0.00     0.026 C 
ENDROOT
BRANCH   1   7
HETATM    7  N   UNL     1       6.784  13.151  24.907  0.00  0.00    -0.233 N 
HETATM    8  C   UNL     1       5.871  14.095  24.454  0.00  0.00     0.072 A 
HETATM    9  C   UNL     1       6.081  15.374  23.910  0.00  0.00     0.032 A 
HETATM   10  C   UNL     1       4.586  13.519  24.587  0.00  0.00     0.030 A 
HETATM   11  C   UNL     1       4.981  16.110  23.510  0.00  0.00     0.003 A 
HETATM   12  C   UNL     1       3.704  15.588  23.660  0.00  0.00     0.013 A 
HETATM   13  C   UNL     1       3.434  14.304  24.214  0.00  0.00    -0.010 A 
HETATM   14  C   UNL     1       4.890  12.205  25.092  0.00  0.00     0.065 C 
HETATM   15  N   UNL     1       6.202  11.965  25.131  0.00  0.00    -0.171 NA
HETATM   16  C   UNL     1       4.039  11.061  25.508  0.00  0.00     0.073 C 
BRANCH  13  17
HETATM   17  C   UNL     1       2.010  13.870  24.313  0.00  0.00    -0.006 A 
HETATM   18  C   UNL     1       1.378  13.519  25.496  0.00  0.00     0.129 A 
HETATM   19  N   UNL     1       0.085  13.117  25.641  0.00  0.00    -0.259 NA
HETATM   20  C   UNL     1      -0.640  12.912  24.535  0.00  0.00     0.066 A 
HETATM   21  C   UNL     1      -1.942  12.437  24.643  0.00  0.00     0.032 A 
HETATM   22  C   UNL     1      -0.096  13.119  23.257  0.00  0.00    -0.007 A 
HETATM   23  C   UNL     1      -2.688  12.087  23.515  0.00  0.00     0.002 A 
HETATM   24  C   UNL     1      -2.128  12.222  22.250  0.00  0.00     0.001 A 
HETATM   25  C   UNL     1      -0.847  12.759  22.116  0.00  0.00     0.014 A 
HETATM   26  C   UNL     1       1.205  13.657  23.174  0.00  0.00     0.027 A 
ENDBRANCH  13  17
ENDBRANCH   1   7
BRANCH   6  27
HETATM   27  N   UNL     1      11.409  12.073  23.884  0.00  0.00    -0.288 NA
HETATM   28  H   UNL     1      12.348  12.461  24.085  0.00  0.00     0.128 HD
BRANCH  27  29
HETATM   29  C   UNL     1      11.132  12.119  22.419  0.00  0.00     0.060 C 
HETATM   30  C   UNL     1      12.044  13.147  21.754  0.00  0.00     0.022 C 
HETATM   31  C   UNL     1      13.498  12.693  21.846  0.00  0.00     0.033 C 
HETATM   32  C   UNL     1      13.703  11.453  20.984  0.00  0.00     0.118 C 
HETATM   33  C   UNL     1      12.721  10.327  21.314  0.00  0.00     0.033 C 
HETATM   34  C   UNL     1      11.302  10.746  21.736  0.00  0.00     0.022 C 
BRANCH  32  35
HETATM   35  O   UNL     1      13.551  11.823  19.613  0.00  0.00    -0.396 OA
HETATM   36  H   UNL     1      13.266  11.027  19.129  0.00  0.00     0.210 HD
ENDBRANCH  32  35
ENDBRANCH  27  29
ENDBRANCH   6  27
BRANCH   4  37
HETATM   37  C   UNL     1      12.337  14.203  25.768  0.00  0.00     0.251 C 
HETATM   38  O   UNL     1      12.998  14.602  24.820  0.00  0.00    -0.268 OA
HETATM   39  N   UNL     1      12.893  14.135  27.022  0.00  0.00    -0.366 N 
HETATM   40  H   UNL     1      12.467  13.658  27.806  0.00  0.00     0.159 HD
HETATM   41  H   UNL     1      13.865  14.404  27.118  0.00  0.00     0.159 HD
ENDBRANCH   4  37
TORSDOF 6
ENDMDL
MODEL 5
REMARK VINA RESULT:   -10.537      4.165     10.464
REMARK INTER + INTRA:         -15.638
REMARK INTER:                 -14.121
REMARK INTRA:                  -1.517
REMARK UNBOUND:                -1.712
REMARK  6 active torsions:
REMARK  status: ('A' for Active; 'I' for Inactive)
REMARK    1  A    between atoms: C_9  and  C_11 
REMARK    2  A    between atoms: N_17  and  C_21 
REMARK    3  A    between atoms: C_24  and  C_25 
REMARK       I    between atoms: C_25  and  N_27 
REMARK    4  A    between atoms: C_29  and  N_30 
REMARK    5  A    between atoms: N_30  and  C_31 
REMARK    6  A    between atoms: C_34  and  O_35 
ROOT
HETATM    1  C   UNL     1       1.830  12.186  23.623  0.00  0.00     0.060 C 
HETATM    2  C   UNL     1       0.823  13.073  23.229  0.00  0.00     0.033 C 
HETATM    3  C   UNL     1      -0.511  12.792  23.513  0.00  0.00     0.021 C 
HETATM    4  C   UNL     1      -0.857  11.653  24.258  0.00  0.00     0.053 C 
HETATM    5  C   UNL     1       1.489  11.021  24.311  0.00  0.00     0.056 C 
HETATM    6  C   UNL     1       0.173  10.779  24.720  0.00  0.00     0.026 C 
ENDROOT
BRANCH   1   7
HETATM    7  N   UNL     1       3.194  12.563  23.471  0.00  0.00    -0.233 N 
HETATM    8  C   UNL     1       3.796  13.813  23.541  0.00  0.00     0.072 A 
HETATM    9  C   UNL     1       3.314  15.025  24.065  0.00  0.00     0.032 A 
HETATM   10  C   UNL     1       5.097  13.672  23.004  0.00  0.00     0.030 A 
HETATM   11  C   UNL     1       4.140  16.134  24.031  0.00  0.00     0.003 A 
HETATM   12  C   UNL     1       5.408  16.038  23.478  0.00  0.00     0.013 A 
HETATM   13  C   UNL     1       5.942  14.839  22.924  0.00  0.00    -0.010 A 
HETATM   14  C   UNL     1       5.150  12.267  22.694  0.00  0.00     0.065 C 
HETATM   15  N   UNL     1       4.068  11.610  23.117  0.00  0.00    -0.171 NA
HETATM   16  C   UNL     1       6.187  11.410  22.065  0.00  0.00     0.073 C 
BRANCH  13  17
HETATM   17  C   UNL     1       7.325  14.881  22.365  0.00  0.00    -0.006 A 
HETATM   18  C   UNL     1       7.632  14.720  21.023  0.00  0.00     0.129 A 
HETATM   19  N   UNL     1       8.873  14.750  20.463  0.00  0.00    -0.259 NA
HETATM   20  C   UNL     1       9.933  14.816  21.277  0.00  0.00     0.066 A 
HETATM   21  C   UNL     1      11.216  14.781  20.743  0.00  0.00     0.032 A 
HETATM   22  C   UNL     1       9.779  14.871  22.672  0.00  0.00    -0.007 A 
HETATM   23  C   UNL     1      12.346  14.716  21.561  0.00  0.00     0.002 A 
HETATM   24  C   UNL     1      12.196  14.697  22.944  0.00  0.00     0.001 A 
HETATM   25  C   UNL     1      10.921  14.800  23.500  0.00  0.00     0.014 A 
HETATM   26  C   UNL     1       8.469  14.966  23.187  0.00  0.00     0.027 A 
ENDBRANCH  13  17
ENDBRANCH   1   7
BRANCH   6  27
HETATM   27  N   UNL     1      -0.083   9.656  25.571  0.00  0.00    -0.288 NA
HETATM   28  H   UNL     1      -0.023  10.006  26.544  0.00  0.00     0.128 HD
BRANCH  27  29
HETATM   29  C   UNL     1       0.837   8.498  25.379  0.00  0.00     0.060 C 
HETATM   30  C   UNL     1       1.607   8.232  26.671  0.00  0.00     0.022 C 
HETATM   31  C   UNL     1       0.648   7.772  27.766  0.00  0.00     0.033 C 
HETATM   32  C   UNL     1       0.092   6.397  27.415  0.00  0.00     0.118 C 
HETATM   33  C   UNL     1      -0.546   6.346  26.025  0.00  0.00     0.033 C 
HETATM   34  C   UNL     1       0.100   7.217  24.934  0.00  0.00     0.022 C 
BRANCH  32  35
HETATM   35  O   UNL     1       1.157   5.447  27.478  0.00  0.00    -0.396 OA
HETATM   36  H   UNL     1       0.801   4.642  27.894  0.00  0.00     0.210 HD
ENDBRANCH  32  35
ENDBRANCH  27  29
ENDBRANCH   6  27
BRANCH   4  37
HETATM   37  C   UNL     1      -2.289  11.455  24.651  0.00  0.00     0.251 C 
HETATM   38  O   UNL     1      -2.639  11.488  25.822  0.00  0.00    -0.268 OA
HETATM   39  N   UNL     1      -3.217  11.279  23.654  0.00  0.00    -0.366 N 
HETATM   40  H   UNL     1      -2.984  11.070  22.692  0.00  0.00     0.159 HD
HETATM   41  H   UNL     1      -4.184  11.156  23.931  0.00  0.00     0.159 HD
ENDBRANCH   4  37
TORSDOF 6
ENDMDL
MODEL 6
REMARK VINA RESULT:   -10.199      4.087     10.283
REMARK INTER + INTRA:         -15.191
REMARK INTER:                 -13.786
REMARK INTRA:                  -1.405
REMARK UNBOUND:                -1.712
REMARK  6 active torsions:
REMARK  status: ('A' for Active; 'I' for Inactive)
REMARK    1  A    between atoms: C_9  and  C_11 
REMARK    2  A    between atoms: N_17  and  C_21 
REMARK    3  A    between atoms: C_24  and  C_25 
REMARK       I    between atoms: C_25  and  N_27 
REMARK    4  A    between atoms: C_29  and  N_30 
REMARK    5  A    between atoms: N_30  and  C_31 
REMARK    6  A    between atoms: C_34  and  O_35 
ROOT
HETATM    1  C   UNL     1       1.884  12.538  24.476  0.00  0.00     0.060 C 
HETATM    2  C   UNL     1       1.160  13.421  25.284  0.00  0.00     0.033 C 
HETATM    3  C   UNL     1      -0.175  13.163  25.585  0.00  0.00     0.021 C 
HETATM    4  C   UNL     1      -0.791  11.981  25.142  0.00  0.00     0.053 C 
HETATM    5  C   UNL     1       1.262  11.391  23.981  0.00  0.00     0.056 C 
HETATM    6  C   UNL     1      -0.036  11.044  24.373  0.00  0.00     0.026 C 
ENDROOT
BRANCH   1   7
HETATM    7  N   UNL     1       3.285  12.729  24.312  0.00  0.00    -0.233 N 
HETATM    8  C   UNL     1       4.002  13.856  23.930  0.00  0.00     0.072 A 
HETATM    9  C   UNL     1       3.612  15.205  23.877  0.00  0.00     0.032 A 
HETATM   10  C   UNL     1       5.311  13.422  23.617  0.00  0.00     0.030 A 
HETATM   11  C   UNL     1       4.544  16.146  23.477  0.00  0.00     0.003 A 
HETATM   12  C   UNL     1       5.826  15.748  23.129  0.00  0.00     0.013 A 
HETATM   13  C   UNL     1       6.271  14.395  23.154  0.00  0.00    -0.010 A 
HETATM   14  C   UNL     1       5.243  12.011  23.903  0.00  0.00     0.065 C 
HETATM   15  N   UNL     1       4.079  11.658  24.451  0.00  0.00    -0.171 NA
HETATM   16  C   UNL     1       6.225  10.906  23.768  0.00  0.00     0.073 C 
BRANCH  13  17
HETATM   17  C   UNL     1       7.680  14.113  22.754  0.00  0.00    -0.006 A 
HETATM   18  C   UNL     1       8.788  14.754  23.285  0.00  0.00     0.129 A 
HETATM   19  N   UNL     1      10.091  14.535  22.957  0.00  0.00    -0.259 NA
HETATM   20  C   UNL     1      10.355  13.713  21.935  0.00  0.00     0.066 A 
HETATM   21  C   UNL     1      11.670  13.518  21.528  0.00  0.00     0.032 A 
HETATM   22  C   UNL     1       9.324  13.076  21.226  0.00  0.00    -0.007 A 
HETATM   23  C   UNL     1      11.980  12.772  20.389  0.00  0.00     0.002 A 
HETATM   24  C   UNL     1      10.957  12.199  19.641  0.00  0.00     0.001 A 
HETATM   25  C   UNL     1       9.636  12.327  20.070  0.00  0.00     0.014 A 
HETATM   26  C   UNL     1       8.003  13.241  21.693  0.00  0.00     0.027 A 
ENDBRANCH  13  17
ENDBRANCH   1   7
BRANCH   6  27
HETATM   27  N   UNL     1      -0.554   9.771  23.971  0.00  0.00    -0.288 NA
HETATM   28  H   UNL     1      -1.569   9.904  23.816  0.00  0.00     0.128 HD
BRANCH  27  29
HETATM   29  C   UNL     1      -0.318   8.662  24.939  0.00  0.00     0.060 C 
HETATM   30  C   UNL     1      -0.347   7.323  24.206  0.00  0.00     0.022 C 
HETATM   31  C   UNL     1       0.829   7.231  23.238  0.00  0.00     0.033 C 
HETATM   32  C   UNL     1       2.133   7.158  24.023  0.00  0.00     0.118 C 
HETATM   33  C   UNL     1       2.294   8.303  25.024  0.00  0.00     0.033 C 
HETATM   34  C   UNL     1       1.012   8.812  25.707  0.00  0.00     0.022 C 
BRANCH  32  35
HETATM   35  O   UNL     1       2.174   5.913  24.722  0.00  0.00    -0.396 OA
HETATM   36  H   UNL     1       1.797   6.066  25.606  0.00  0.00     0.210 HD
ENDBRANCH  32  35
ENDBRANCH  27  29
ENDBRANCH   6  27
BRANCH   4  37
HETATM   37  C   UNL     1      -2.187  11.681  25.594  0.00  0.00     0.251 C 
HETATM   38  O   UNL     1      -2.466  11.588  26.780  0.00  0.00    -0.268 OA
HETATM   39  N   UNL     1      -3.166  11.555  24.639  0.00  0.00    -0.366 N 
HETATM   40  H   UNL     1      -2.982  11.448  23.649  0.00  0.00     0.159 HD
HETATM   41  H   UNL     1      -4.108  11.362  24.957  0.00  0.00     0.159 HD
ENDBRANCH   4  37
TORSDOF 6
ENDMDL
MODEL 7
REMARK VINA RESULT:   -10.034      1.762      3.478
REMARK INTER + INTRA:         -14.973
REMARK INTER:                 -13.378
REMARK INTRA:                  -1.595
REMARK UNBOUND:                -1.712
REMARK  6 active torsions:
REMARK  status: ('A' for Active; 'I' for Inactive)
REMARK    1  A    between atoms: C_9  and  C_11 
REMARK    2  A    between atoms: N_17  and  C_21 
REMARK    3  A    between atoms: C_24  and  C_25 
REMARK       I    between atoms: C_25  and  N_27 
REMARK    4  A    between atoms: C_29  and  N_30 
REMARK    5  A    between atoms: N_30  and  C_31 
REMARK    6  A    between atoms: C_34  and  O_35 
ROOT
HETATM    1  C   UNL     1       8.178  12.200  24.317  0.00  0.00     0.060 C 
HETATM    2  C   UNL     1       8.629  12.026  25.629  0.00  0.00     0.033 C 
HETATM    3  C   UNL     1       9.992  12.053  25.912  0.00  0.00     0.021 C 
HETATM    4  C   UNL     1      10.926  12.324  24.899  0.00  0.00     0.053 C 
HETATM    5  C   UNL     1       9.103  12.409  23.293  0.00  0.00     0.056 C 
HETATM    6  C   UNL     1      10.466  12.569  23.570  0.00  0.00     0.026 C 
ENDROOT
BRANCH   1   7
HETATM    7  N   UNL     1       6.783  12.332  24.068  0.00  0.00    -0.233 N 
HETATM    8  C   UNL     1       5.997  13.469  23.926  0.00  0.00     0.072 A 
HETATM    9  C   UNL     1       6.366  14.804  23.689  0.00  0.00     0.032 A 
HETATM   10  C   UNL     1       4.649  13.049  24.015  0.00  0.00     0.030 A 
HETATM   11  C   UNL     1       5.368  15.752  23.562  0.00  0.00     0.003 A 
HETATM   12  C   UNL     1       4.037  15.379  23.680  0.00  0.00     0.013 A 
HETATM   13  C   UNL     1       3.608  14.044  23.930  0.00  0.00    -0.010 A 
HETATM   14  C   UNL     1       4.782  11.622  24.166  0.00  0.00     0.065 C 
HETATM   15  N   UNL     1       6.046  11.212  24.046  0.00  0.00    -0.171 NA
HETATM   16  C   UNL     1       3.793  10.532  24.361  0.00  0.00     0.073 C 
BRANCH  13  17
HETATM   17  C   UNL     1       2.141  13.787  24.031  0.00  0.00    -0.006 A 
HETATM   18  C   UNL     1       1.460  13.597  25.223  0.00  0.00     0.129 A 
HETATM   19  N   UNL     1       0.127  13.360  25.370  0.00  0.00    -0.259 NA
HETATM   20  C   UNL     1      -0.605  13.163  24.267  0.00  0.00     0.066 A 
HETATM   21  C   UNL     1      -1.955  12.852  24.383  0.00  0.00     0.032 A 
HETATM   22  C   UNL     1      -0.026  13.214  22.989  0.00  0.00    -0.007 A 
HETATM   23  C   UNL     1      -2.724  12.512  23.268  0.00  0.00     0.002 A 
HETATM   24  C   UNL     1      -2.138  12.490  22.007  0.00  0.00     0.001 A 
HETATM   25  C   UNL     1      -0.802  12.864  21.862  0.00  0.00     0.014 A 
HETATM   26  C   UNL     1       1.330  13.589  22.894  0.00  0.00     0.027 A 
ENDBRANCH  13  17
ENDBRANCH   1   7
BRANCH   6  27
HETATM   27  N   UNL     1      11.339  12.954  22.502  0.00  0.00    -0.288 NA
HETATM   28  H   UNL     1      12.148  12.307  22.538  0.00  0.00     0.128 HD
BRANCH  27  29
HETATM   29  C   UNL     1      11.805  14.370  22.550  0.00  0.00     0.060 C 
HETATM   30  C   UNL     1      11.656  15.008  21.171  0.00  0.00     0.022 C 
HETATM   31  C   UNL     1      10.180  15.111  20.799  0.00  0.00     0.033 C 
HETATM   32  C   UNL     1       9.491  16.118  21.713  0.00  0.00     0.118 C 
HETATM   33  C   UNL     1       9.696  15.815  23.199  0.00  0.00     0.033 C 
HETATM   34  C   UNL     1      11.051  15.211  23.602  0.00  0.00     0.022 C 
BRANCH  32  35
HETATM   35  O   UNL     1      10.003  17.419  21.424  0.00  0.00    -0.396 OA
HETATM   36  H   UNL     1       9.341  17.875  20.875  0.00  0.00     0.210 HD
ENDBRANCH  32  35
ENDBRANCH  27  29
ENDBRANCH   6  27
BRANCH   4  37
HETATM   37  C   UNL     1      12.370  12.472  25.269  0.00  0.00     0.251 C 
HETATM   38  O   UNL     1      12.728  13.242  26.147  0.00  0.00    -0.268 OA
HETATM   39  N   UNL     1      13.289  11.681  24.622  0.00  0.00    -0.366 N 
HETATM   40  H   UNL     1      13.094  11.157  23.779  0.00  0.00     0.159 HD
HETATM   41  H   UNL     1      14.262  11.782  24.887  0.00  0.00     0.159 HD
ENDBRANCH   4  37
TORSDOF 6
ENDMDL
MODEL 8
REMARK VINA RESULT:    -9.951      4.183     10.634
REMARK INTER + INTRA:         -14.863
REMARK INTER:                 -13.150
REMARK INTRA:                  -1.712
REMARK UNBOUND:                -1.712
REMARK  6 active torsions:
REMARK  status: ('A' for Active; 'I' for Inactive)
REMARK    1  A    between atoms: C_9  and  C_11 
REMARK    2  A    between atoms: N_17  and  C_21 
REMARK    3  A    between atoms: C_24  and  C_25 
REMARK       I    between atoms: C_25  and  N_27 
REMARK    4  A    between atoms: C_29  and  N_30 
REMARK    5  A    between atoms: N_30  and  C_31 
REMARK    6  A    between atoms: C_34  and  O_35 
ROOT
HETATM    1  C   UNL     1       1.687  12.721  23.412  0.00  0.00     0.060 C 
HETATM    2  C   UNL     1       0.569  13.454  23.002  0.00  0.00     0.033 C 
HETATM    3  C   UNL     1      -0.712  13.040  23.358  0.00  0.00     0.021 C 
HETATM    4  C   UNL     1      -0.895  11.924  24.191  0.00  0.00     0.053 C 
HETATM    5  C   UNL     1       1.511  11.576  24.190  0.00  0.00     0.056 C 
HETATM    6  C   UNL     1       0.247  11.212  24.668  0.00  0.00     0.026 C 
ENDROOT
BRANCH   1   7
HETATM    7  N   UNL     1       2.990  13.244  23.180  0.00  0.00    -0.233 N 
HETATM    8  C   UNL     1       4.114  12.647  22.622  0.00  0.00     0.072 A 
HETATM    9  C   UNL     1       4.234  11.473  21.859  0.00  0.00     0.032 A 
HETATM   10  C   UNL     1       5.213  13.487  22.918  0.00  0.00     0.030 A 
HETATM   11  C   UNL     1       5.486  11.110  21.398  0.00  0.00     0.003 A 
HETATM   12  C   UNL     1       6.591  11.893  21.701  0.00  0.00     0.013 A 
HETATM   13  C   UNL     1       6.528  13.085  22.478  0.00  0.00    -0.010 A 
HETATM   14  C   UNL     1       4.586  14.576  23.621  0.00  0.00     0.065 C 
HETATM   15  N   UNL     1       3.255  14.478  23.632  0.00  0.00    -0.171 NA
HETATM   16  C   UNL     1       5.122  15.800  24.270  0.00  0.00     0.073 C 
BRANCH  13  17
HETATM   17  C   UNL     1       7.797  13.829  22.724  0.00  0.00    -0.006 A 
HETATM   18  C   UNL     1       8.178  14.974  22.043  0.00  0.00     0.129 A 
HETATM   19  N   UNL     1       9.322  15.689  22.229  0.00  0.00    -0.259 NA
HETATM   20  C   UNL     1      10.250  15.194  23.057  0.00  0.00     0.066 A 
HETATM   21  C   UNL     1      11.458  15.863  23.218  0.00  0.00     0.032 A 
HETATM   22  C   UNL     1      10.050  13.980  23.733  0.00  0.00    -0.007 A 
HETATM   23  C   UNL     1      12.501  15.317  23.969  0.00  0.00     0.002 A 
HETATM   24  C   UNL     1      12.334  14.080  24.583  0.00  0.00     0.001 A 
HETATM   25  C   UNL     1      11.106  13.424  24.488  0.00  0.00     0.014 A 
HETATM   26  C   UNL     1       8.794  13.351  23.601  0.00  0.00     0.027 A 
ENDBRANCH  13  17
ENDBRANCH   1   7
BRANCH   6  27
HETATM   27  N   UNL     1       0.155  10.130  25.602  0.00  0.00    -0.288 NA
HETATM   28  H   UNL     1       0.285  10.543  26.543  0.00  0.00     0.128 HD
BRANCH  27  29
HETATM   29  C   UNL     1       1.132   9.025  25.383  0.00  0.00     0.060 C 
HETATM   30  C   UNL     1       1.283   8.208  26.664  0.00  0.00     0.022 C 
HETATM   31  C   UNL     1      -0.026   7.493  26.986  0.00  0.00     0.033 C 
HETATM   32  C   UNL     1      -0.297   6.423  25.934  0.00  0.00     0.118 C 
HETATM   33  C   UNL     1      -0.269   6.969  24.505  0.00  0.00     0.033 C 
HETATM   34  C   UNL     1       0.734   8.099  24.214  0.00  0.00     0.022 C 
BRANCH  32  35
HETATM   35  O   UNL     1       0.689   5.398  26.065  0.00  0.00    -0.396 OA
HETATM   36  H   UNL     1       1.420   5.622  25.462  0.00  0.00     0.210 HD
ENDBRANCH  32  35
ENDBRANCH  27  29
ENDBRANCH   6  27
BRANCH   4  37
HETATM   37  C   UNL     1      -2.279  11.588  24.656  0.00  0.00     0.251 C 
HETATM   38  O   UNL     1      -2.583  11.634  25.839  0.00  0.00    -0.268 OA
HETATM   39  N   UNL     1      -3.221  11.269  23.709  0.00  0.00    -0.366 N 
HETATM   40  H   UNL     1      -3.005  11.044  22.746  0.00  0.00     0.159 HD
HETATM   41  H   UNL     1      -4.156  11.053  24.034  0.00  0.00     0.159 HD
ENDBRANCH   4  37
TORSDOF 6
ENDMDL
MODEL 9
REMARK VINA RESULT:    -9.928      4.301     10.521
REMARK INTER + INTRA:         -14.833
REMARK INTER:                 -13.490
REMARK INTRA:                  -1.343
REMARK UNBOUND:                -1.712
REMARK  6 active torsions:
REMARK  status: ('A' for Active; 'I' for Inactive)
REMARK    1  A    between atoms: C_9  and  C_11 
REMARK    2  A    between atoms: N_17  and  C_21 
REMARK    3  A    between atoms: C_24  and  C_25 
REMARK       I    between atoms: C_25  and  N_27 
REMARK    4  A    between atoms: C_29  and  N_30 
REMARK    5  A    between atoms: N_30  and  C_31 
REMARK    6  A    between atoms: C_34  and  O_35 
ROOT
HETATM    1  C   UNL     1       1.805  12.072  23.825  0.00  0.00     0.060 C 
HETATM    2  C   UNL     1       0.898  12.997  23.301  0.00  0.00     0.033 C 
HETATM    3  C   UNL     1      -0.472  12.762  23.381  0.00  0.00     0.021 C 
HETATM    4  C   UNL     1      -0.962  11.629  24.051  0.00  0.00     0.053 C 
HETATM    5  C   UNL     1       1.328  10.913  24.439  0.00  0.00     0.056 C 
HETATM    6  C   UNL     1      -0.041  10.714  24.647  0.00  0.00     0.026 C 
ENDROOT
BRANCH   1   7
HETATM    7  N   UNL     1       3.189  12.402  23.880  0.00  0.00    -0.233 N 
HETATM    8  C   UNL     1       3.828  13.628  23.749  0.00  0.00     0.072 A 
HETATM    9  C   UNL     1       3.312  14.933  23.819  0.00  0.00     0.032 A 
HETATM   10  C   UNL     1       5.204  13.355  23.564  0.00  0.00     0.030 A 
HETATM   11  C   UNL     1       4.184  15.997  23.677  0.00  0.00     0.003 A 
HETATM   12  C   UNL     1       5.534  15.763  23.458  0.00  0.00     0.013 A 
HETATM   13  C   UNL     1       6.108  14.462  23.367  0.00  0.00    -0.010 A 
HETATM   14  C   UNL     1       5.246  11.918  23.652  0.00  0.00     0.065 C 
HETATM   15  N   UNL     1       4.065  11.393  23.986  0.00  0.00    -0.171 NA
HETATM   16  C   UNL     1       6.345  10.930  23.510  0.00  0.00     0.073 C 
BRANCH  13  17
HETATM   17  C   UNL     1       7.578  14.360  23.131  0.00  0.00    -0.006 A 
HETATM   18  C   UNL     1       8.538  15.041  23.863  0.00  0.00     0.129 A 
HETATM   19  N   UNL     1       9.887  14.983  23.689  0.00  0.00    -0.259 NA
HETATM   20  C   UNL     1      10.360  14.307  22.635  0.00  0.00     0.066 A 
HETATM   21  C   UNL     1      11.728  14.283  22.389  0.00  0.00     0.032 A 
HETATM   22  C   UNL     1       9.496  13.657  21.739  0.00  0.00    -0.007 A 
HETATM   23  C   UNL     1      12.251  13.700  21.232  0.00  0.00     0.002 A 
HETATM   24  C   UNL     1      11.394  13.118  20.305  0.00  0.00     0.001 A 
HETATM   25  C   UNL     1      10.025  13.072  20.567  0.00  0.00     0.014 A 
HETATM   26  C   UNL     1       8.119  13.644  22.042  0.00  0.00     0.027 A 
ENDBRANCH  13  17
ENDBRANCH   1   7
BRANCH   6  27
HETATM   27  N   UNL     1      -0.458   9.593  25.435  0.00  0.00    -0.288 NA
HETATM   28  H   UNL     1      -0.995   9.979  26.232  0.00  0.00     0.128 HD
BRANCH  27  29
HETATM   29  C   UNL     1       0.650   8.725  25.928  0.00  0.00     0.060 C 
HETATM   30  C   UNL     1       0.472   8.461  27.421  0.00  0.00     0.022 C 
HETATM   31  C   UNL     1      -0.788   7.633  27.660  0.00  0.00     0.033 C 
HETATM   32  C   UNL     1      -0.596   6.233  27.090  0.00  0.00     0.118 C 
HETATM   33  C   UNL     1      -0.174   6.237  25.619  0.00  0.00     0.033 C 
HETATM   34  C   UNL     1       0.743   7.386  25.165  0.00  0.00     0.022 C 
BRANCH  32  35
HETATM   35  O   UNL     1       0.400   5.561  27.862  0.00  0.00    -0.396 OA
HETATM   36  H   UNL     1       0.956   5.057  27.241  0.00  0.00     0.210 HD
ENDBRANCH  32  35
ENDBRANCH  27  29
ENDBRANCH   6  27
BRANCH   4  37
HETATM   37  C   UNL     1      -2.442  11.478  24.228  0.00  0.00     0.251 C 
HETATM   38  O   UNL     1      -3.171  11.196  23.288  0.00  0.00    -0.268 OA
HETATM   39  N   UNL     1      -2.963  11.622  25.491  0.00  0.00    -0.366 N 
HETATM   40  H   UNL     1      -2.456  12.020  26.271  0.00  0.00     0.159 HD
HETATM   41  H   UNL     1      -3.963  11.508  25.600  0.00  0.00     0.159 HD
ENDBRANCH   4  37
TORSDOF 6
ENDMDL
