MODEL 1
REMARK VINA RESULT:    -8.653      0.000      0.000
REMARK INTER + INTRA:         -11.875
REMARK INTER:                 -11.124
REMARK INTRA:                  -0.751
REMARK UNBOUND:                -0.945
REMARK  5 active torsions:
REMARK  status: ('A' for Active; 'I' for Inactive)
REMARK       I    between atoms: C_2  and  N_3 
REMARK    1  A    between atoms: C_2  and  C_12 
REMARK    2  A    between atoms: N_3  and  C_5 
REMARK    3  A    between atoms: C_13  and  O_14 
REMARK    4  A    between atoms: C_20  and  C_21 
REMARK    5  A    between atoms: C_21  and  C_22 
ROOT
HETATM    1  C   UNL     1       1.785   8.368  26.332  0.00  0.00     0.066 C 
HETATM    2  C   UNL     1       2.075   8.567  27.686  0.00  0.00     0.083 C 
HETATM    3  C   UNL     1       1.120   9.074  28.572  0.00  0.00     0.069 C 
HETATM    4  C   UNL     1      -0.097   9.505  28.037  0.00  0.00     0.065 A 
HETATM    5  N   UNL     1      -1.171  10.097  28.635  0.00  0.00    -0.277 N 
HETATM    6  H   UNL     1      -1.286  10.319  29.616  0.00  0.00     0.189 HD
HETATM    7  N   UNL     1      -2.133  10.476  27.789  0.00  0.00    -0.178 NA
HETATM    8  C   UNL     1      -1.673  10.118  26.576  0.00  0.00     0.071 A 
HETATM    9  C   UNL     1      -0.404   9.452  26.681  0.00  0.00     0.020 A 
HETATM   10  C   UNL     1       0.551   8.862  25.821  0.00  0.00     0.035 C 
ENDROOT
BRANCH   1  11
HETATM   11  C   UNL     1       2.734   7.768  25.338  0.00  0.00     0.260 C 
HETATM   12  O   UNL     1       2.915   6.557  25.489  0.00  0.00    -0.267 OA
HETATM   13  N   UNL     1       3.382   8.543  24.330  0.00  0.00    -0.318 N 
HETATM   14  C   UNL     1       3.453  10.011  24.365  0.00  0.00     0.159 C 
BRANCH  13  15
HETATM   15  C   UNL     1       4.159   7.885  23.283  0.00  0.00     0.037 A 
HETATM   16  C   UNL     1       3.927   8.141  21.923  0.00  0.00     0.030 A 
HETATM   17  C   UNL     1       4.610   7.455  20.907  0.00  0.00     0.009 A 
HETATM   18  C   UNL     1       5.569   6.494  21.218  0.00  0.00    -0.062 A 
HETATM   19  C   UNL     1       6.257   5.706  20.146  0.00  0.00     0.048 C 
HETATM   20  C   UNL     1       5.860   6.263  22.561  0.00  0.00     0.009 A 
HETATM   21  C   UNL     1       5.177   6.957  23.574  0.00  0.00     0.030 A 
ENDBRANCH  13  15
ENDBRANCH   1  11
BRANCH   2  22
HETATM   22  O   UNL     1       3.305   8.344  28.249  0.00  0.00    -0.360 OA
HETATM   23  H   UNL     1       3.465   7.383  28.277  0.00  0.00     0.217 HD
ENDBRANCH   2  22
BRANCH   8  24
HETATM   24  C   UNL     1      -2.425  10.631  25.392  0.00  0.00     0.100 C 
BRANCH  24  25
HETATM   25  C   UNL     1      -1.689  11.742  24.694  0.00  0.00    -0.052 A 
HETATM   26  C   UNL     1      -1.944  11.967  23.336  0.00  0.00     0.014 A 
HETATM   27  C   UNL     1      -1.095  12.765  22.563  0.00  0.00    -0.061 A 
HETATM   28  C   UNL     1      -1.298  12.827  21.079  0.00  0.00     0.048 C 
HETATM   29  C   UNL     1      -0.050  13.452  23.185  0.00  0.00     0.007 A 
HETATM   30  C   UNL     1       0.187  13.287  24.553  0.00  0.00     0.001 A 
HETATM   31  C   UNL     1      -0.618  12.421  25.296  0.00  0.00     0.007 A 
ENDBRANCH  24  25
ENDBRANCH   8  24
TORSDOF 5
ENDMDL
MODEL 2
REMARK VINA RESULT:    -8.616      1.430      2.270
REMARK INTER + INTRA:         -11.827
REMARK INTER:                 -10.962
REMARK INTRA:                  -0.865
REMARK UNBOUND:                -0.945
REMARK  5 active torsions:
REMARK  status: ('A' for Active; 'I' for Inactive)
REMARK       I    between atoms: C_2  and  N_3 
REMARK    1  A    between atoms: C_2  and  C_12 
REMARK    2  A    between atoms: N_3  and  C_5 
REMARK    3  A    between atoms: C_13  and  O_14 
REMARK    4  A    between atoms: C_20  and  C_21 
REMARK    5  A    between atoms: C_21  and  C_22 
ROOT
HETATM    1  C   UNL     1       2.490   8.467  25.882  0.00  0.00     0.066 C 
HETATM    2  C   UNL     1       2.996   7.753  26.974  0.00  0.00     0.083 C 
HETATM    3  C   UNL     1       2.260   7.601  28.153  0.00  0.00     0.069 C 
HETATM    4  C   UNL     1       1.055   8.300  28.260  0.00  0.00     0.065 A 
HETATM    5  N   UNL     1       0.174   8.399  29.297  0.00  0.00    -0.277 N 
HETATM    6  H   UNL     1       0.233   7.949  30.202  0.00  0.00     0.189 HD
HETATM    7  N   UNL     1      -0.832   9.252  29.086  0.00  0.00    -0.178 NA
HETATM    8  C   UNL     1      -0.607   9.738  27.851  0.00  0.00     0.071 A 
HETATM    9  C   UNL     1       0.554   9.129  27.261  0.00  0.00     0.020 A 
HETATM   10  C   UNL     1       1.281   9.201  26.050  0.00  0.00     0.035 C 
ENDROOT
BRANCH   1  11
HETATM   11  C   UNL     1       3.191   8.617  24.565  0.00  0.00     0.260 C 
HETATM   12  O   UNL     1       3.553   9.772  24.321  0.00  0.00    -0.267 OA
HETATM   13  N   UNL     1       3.393   7.523  23.673  0.00  0.00    -0.318 N 
HETATM   14  C   UNL     1       2.667   6.248  23.785  0.00  0.00     0.159 C 
BRANCH  13  15
HETATM   15  C   UNL     1       4.230   7.685  22.487  0.00  0.00     0.037 A 
HETATM   16  C   UNL     1       5.426   6.970  22.327  0.00  0.00     0.030 A 
HETATM   17  C   UNL     1       6.280   7.178  21.232  0.00  0.00     0.009 A 
HETATM   18  C   UNL     1       5.955   8.103  20.243  0.00  0.00    -0.062 A 
HETATM   19  C   UNL     1       6.887   8.384  19.104  0.00  0.00     0.048 C 
HETATM   20  C   UNL     1       4.743   8.784  20.348  0.00  0.00     0.009 A 
HETATM   21  C   UNL     1       3.890   8.567  21.443  0.00  0.00     0.030 A 
ENDBRANCH  13  15
ENDBRANCH   1  11
BRANCH   2  22
HETATM   22  O   UNL     1       4.248   7.195  27.014  0.00  0.00    -0.360 OA
HETATM   23  H   UNL     1       4.571   7.089  26.100  0.00  0.00     0.217 HD
ENDBRANCH   2  22
BRANCH   8  24
HETATM   24  C   UNL     1      -1.437  10.903  27.423  0.00  0.00     0.100 C 
BRANCH  24  25
HETATM   25  C   UNL     1      -1.245  11.229  25.967  0.00  0.00    -0.052 A 
HETATM   26  C   UNL     1      -0.378  12.273  25.622  0.00  0.00     0.014 A 
HETATM   27  C   UNL     1      -0.383  12.821  24.335  0.00  0.00    -0.061 A 
HETATM   28  C   UNL     1       0.422  14.055  24.062  0.00  0.00     0.048 C 
HETATM   29  C   UNL     1      -1.172  12.231  23.345  0.00  0.00     0.007 A 
HETATM   30  C   UNL     1      -2.000  11.149  23.654  0.00  0.00     0.001 A 
HETATM   31  C   UNL     1      -2.049  10.666  24.964  0.00  0.00     0.007 A 
ENDBRANCH  24  25
ENDBRANCH   8  24
TORSDOF 5
ENDMDL
MODEL 3
REMARK VINA RESULT:    -8.561      1.215      1.889
REMARK INTER + INTRA:         -11.758
REMARK INTER:                 -11.035
REMARK INTRA:                  -0.723
REMARK UNBOUND:                -0.945
REMARK  5 active torsions:
REMARK  status: ('A' for Active; 'I' for Inactive)
REMARK       I    between atoms: C_2  and  N_3 
REMARK    1  A    between atoms: C_2  and  C_12 
REMARK    2  A    between atoms: N_3  and  C_5 
REMARK    3  A    between atoms: C_13  and  O_14 
REMARK    4  A    between atoms: C_20  and  C_21 
REMARK    5  A    between atoms: C_21  and  C_22 
ROOT
HETATM    1  C   UNL     1       2.082   7.869  25.285  0.00  0.00     0.066 C 
HETATM    2  C   UNL     1       2.761   7.885  26.507  0.00  0.00     0.083 C 
HETATM    3  C   UNL     1       2.151   8.347  27.677  0.00  0.00     0.069 C 
HETATM    4  C   UNL     1       0.882   8.920  27.564  0.00  0.00     0.065 A 
HETATM    5  N   UNL     1       0.085   9.508  28.503  0.00  0.00    -0.277 N 
HETATM    6  H   UNL     1       0.275   9.619  29.491  0.00  0.00     0.189 HD
HETATM    7  N   UNL     1      -1.034  10.050  28.014  0.00  0.00    -0.178 NA
HETATM    8  C   UNL     1      -0.974   9.809  26.692  0.00  0.00     0.071 A 
HETATM    9  C   UNL     1       0.200   9.050  26.358  0.00  0.00     0.020 A 
HETATM   10  C   UNL     1       0.809   8.503  25.205  0.00  0.00     0.035 C 
ENDROOT
BRANCH   1  11
HETATM   11  C   UNL     1       2.647   7.329  24.004  0.00  0.00     0.260 C 
HETATM   12  O   UNL     1       2.361   6.147  23.792  0.00  0.00    -0.267 OA
HETATM   13  N   UNL     1       3.460   8.112  23.133  0.00  0.00    -0.318 N 
HETATM   14  C   UNL     1       4.091   9.377  23.540  0.00  0.00     0.159 C 
BRANCH  13  15
HETATM   15  C   UNL     1       3.840   7.596  21.820  0.00  0.00     0.037 A 
HETATM   16  C   UNL     1       3.837   8.413  20.680  0.00  0.00     0.030 A 
HETATM   17  C   UNL     1       4.121   7.910  19.400  0.00  0.00     0.009 A 
HETATM   18  C   UNL     1       4.436   6.566  19.218  0.00  0.00    -0.062 A 
HETATM   19  C   UNL     1       4.674   6.001  17.852  0.00  0.00     0.048 C 
HETATM   20  C   UNL     1       4.503   5.746  20.343  0.00  0.00     0.009 A 
HETATM   21  C   UNL     1       4.224   6.257  21.622  0.00  0.00     0.030 A 
ENDBRANCH  13  15
ENDBRANCH   1  11
BRANCH   2  22
HETATM   22  O   UNL     1       4.072   7.513  26.663  0.00  0.00    -0.360 OA
HETATM   23  H   UNL     1       4.573   7.801  25.879  0.00  0.00     0.217 HD
ENDBRANCH   2  22
BRANCH   8  24
HETATM   24  C   UNL     1      -1.975  10.509  25.832  0.00  0.00     0.100 C 
BRANCH  24  25
HETATM   25  C   UNL     1      -1.318  11.346  24.768  0.00  0.00    -0.052 A 
HETATM   26  C   UNL     1      -0.264  12.192  25.135  0.00  0.00     0.014 A 
HETATM   27  C   UNL     1       0.183  13.203  24.278  0.00  0.00    -0.061 A 
HETATM   28  C   UNL     1       1.182  14.201  24.782  0.00  0.00     0.048 C 
HETATM   29  C   UNL     1      -0.342  13.285  22.986  0.00  0.00     0.007 A 
HETATM   30  C   UNL     1      -1.354  12.411  22.580  0.00  0.00     0.001 A 
HETATM   31  C   UNL     1      -1.851  11.461  23.474  0.00  0.00     0.007 A 
ENDBRANCH  24  25
ENDBRANCH   8  24
TORSDOF 5
ENDMDL
MODEL 4
REMARK VINA RESULT:    -8.404      3.458      8.268
REMARK INTER + INTRA:         -11.560
REMARK INTER:                 -10.453
REMARK INTRA:                  -1.107
REMARK UNBOUND:                -0.945
REMARK  5 active torsions:
REMARK  status: ('A' for Active; 'I' for Inactive)
REMARK       I    between atoms: C_2  and  N_3 
REMARK    1  A    between atoms: C_2  and  C_12 
REMARK    2  A    between atoms: N_3  and  C_5 
REMARK    3  A    between atoms: C_13  and  O_14 
REMARK    4  A    between atoms: C_20  and  C_21 
REMARK    5  A    between atoms: C_21  and  C_22 
ROOT
HETATM    1  C   UNL     1       4.139   7.917  22.860  0.00  0.00     0.066 C 
HETATM    2  C   UNL     1       5.213   7.043  23.062  0.00  0.00     0.083 C 
HETATM    3  C   UNL     1       5.988   6.579  21.995  0.00  0.00     0.069 C 
HETATM    4  C   UNL     1       5.575   6.907  20.702  0.00  0.00     0.065 A 
HETATM    5  N   UNL     1       6.082   6.545  19.487  0.00  0.00    -0.277 N 
HETATM    6  H   UNL     1       6.893   5.966  19.305  0.00  0.00     0.189 HD
HETATM    7  N   UNL     1       5.361   6.962  18.443  0.00  0.00    -0.178 NA
HETATM    8  C   UNL     1       4.330   7.630  18.992  0.00  0.00     0.071 A 
HETATM    9  C   UNL     1       4.443   7.668  20.424  0.00  0.00     0.020 A 
HETATM   10  C   UNL     1       3.724   8.189  21.525  0.00  0.00     0.035 C 
ENDROOT
BRANCH   1  11
HETATM   11  C   UNL     1       3.305   8.508  23.958  0.00  0.00     0.260 C 
HETATM   12  O   UNL     1       3.663   9.637  24.304  0.00  0.00    -0.267 OA
HETATM   13  N   UNL     1       2.215   7.808  24.556  0.00  0.00    -0.318 N 
HETATM   14  C   UNL     1       2.009   6.359  24.407  0.00  0.00     0.159 C 
BRANCH  13  15
HETATM   15  C   UNL     1       1.330   8.491  25.497  0.00  0.00     0.037 A 
HETATM   16  C   UNL     1       1.518   8.397  26.884  0.00  0.00     0.030 A 
HETATM   17  C   UNL     1       0.628   8.980  27.799  0.00  0.00     0.009 A 
HETATM   18  C   UNL     1      -0.481   9.696  27.354  0.00  0.00    -0.062 A 
HETATM   19  C   UNL     1      -1.476  10.266  28.318  0.00  0.00     0.048 C 
HETATM   20  C   UNL     1      -0.658   9.853  25.981  0.00  0.00     0.009 A 
HETATM   21  C   UNL     1       0.240   9.272  25.070  0.00  0.00     0.030 A 
ENDBRANCH  13  15
ENDBRANCH   1  11
BRANCH   2  22
HETATM   22  O   UNL     1       5.566   6.528  24.283  0.00  0.00    -0.360 OA
HETATM   23  H   UNL     1       5.827   5.597  24.164  0.00  0.00     0.217 HD
ENDBRANCH   2  22
BRANCH   8  24
HETATM   24  C   UNL     1       3.211   8.013  18.079  0.00  0.00     0.100 C 
BRANCH  24  25
HETATM   25  C   UNL     1       2.289   6.857  17.802  0.00  0.00    -0.052 A 
HETATM   26  C   UNL     1       2.210   6.360  16.495  0.00  0.00     0.014 A 
HETATM   27  C   UNL     1       1.172   5.507  16.107  0.00  0.00    -0.061 A 
HETATM   28  C   UNL     1       1.020   5.149  14.659  0.00  0.00     0.048 C 
HETATM   29  C   UNL     1       0.275   5.041  17.072  0.00  0.00     0.007 A 
HETATM   30  C   UNL     1       0.371   5.480  18.395  0.00  0.00     0.001 A 
HETATM   31  C   UNL     1       1.362   6.398  18.751  0.00  0.00     0.007 A 
ENDBRANCH  24  25
ENDBRANCH   8  24
TORSDOF 5
ENDMDL
MODEL 5
REMARK VINA RESULT:    -8.257      3.726      8.194
REMARK INTER + INTRA:         -11.375
REMARK INTER:                 -10.592
REMARK INTRA:                  -0.783
REMARK UNBOUND:                -0.945
REMARK  5 active torsions:
REMARK  status: ('A' for Active; 'I' for Inactive)
REMARK       I    between atoms: C_2  and  N_3 
REMARK    1  A    between atoms: C_2  and  C_12 
REMARK    2  A    between atoms: N_3  and  C_5 
REMARK    3  A    between atoms: C_13  and  O_14 
REMARK    4  A    between atoms: C_20  and  C_21 
REMARK    5  A    between atoms: C_21  and  C_22 
ROOT
HETATM    1  C   UNL     1       4.427   6.803  22.970  0.00  0.00     0.066 C 
HETATM    2  C   UNL     1       5.716   6.288  22.799  0.00  0.00     0.083 C 
HETATM    3  C   UNL     1       6.469   6.566  21.655  0.00  0.00     0.069 C 
HETATM    4  C   UNL     1       5.843   7.266  20.620  0.00  0.00     0.065 A 
HETATM    5  N   UNL     1       6.295   7.615  19.381  0.00  0.00    -0.277 N 
HETATM    6  H   UNL     1       7.210   7.435  18.985  0.00  0.00     0.189 HD
HETATM    7  N   UNL     1       5.378   8.195  18.602  0.00  0.00    -0.178 NA
HETATM    8  C   UNL     1       4.268   8.233  19.362  0.00  0.00     0.071 A 
HETATM    9  C   UNL     1       4.521   7.699  20.673  0.00  0.00     0.020 A 
HETATM   10  C   UNL     1       3.810   7.472  21.874  0.00  0.00     0.035 C 
ENDROOT
BRANCH   1  11
HETATM   11  C   UNL     1       3.586   6.603  24.196  0.00  0.00     0.260 C 
HETATM   12  O   UNL     1       3.345   5.419  24.448  0.00  0.00    -0.267 OA
HETATM   13  N   UNL     1       3.094   7.691  24.976  0.00  0.00    -0.318 N 
HETATM   14  C   UNL     1       3.070   9.081  24.496  0.00  0.00     0.159 C 
BRANCH  13  15
HETATM   15  C   UNL     1       2.428   7.439  26.252  0.00  0.00     0.037 A 
HETATM   16  C   UNL     1       3.155   7.258  27.438  0.00  0.00     0.030 A 
HETATM   17  C   UNL     1       2.532   6.934  28.653  0.00  0.00     0.009 A 
HETATM   18  C   UNL     1       1.148   6.796  28.728  0.00  0.00    -0.062 A 
HETATM   19  C   UNL     1       0.475   6.385  30.002  0.00  0.00     0.048 C 
HETATM   20  C   UNL     1       0.398   7.029  27.577  0.00  0.00     0.009 A 
HETATM   21  C   UNL     1       1.027   7.359  26.364  0.00  0.00     0.030 A 
ENDBRANCH  13  15
ENDBRANCH   1  11
BRANCH   2  22
HETATM   22  O   UNL     1       6.329   5.440  23.686  0.00  0.00    -0.360 OA
HETATM   23  H   UNL     1       5.771   5.365  24.481  0.00  0.00     0.217 HD
ENDBRANCH   2  22
BRANCH   8  24
HETATM   24  C   UNL     1       2.995   8.611  18.679  0.00  0.00     0.100 C 
BRANCH  24  25
HETATM   25  C   UNL     1       2.403   7.460  17.911  0.00  0.00    -0.052 A 
HETATM   26  C   UNL     1       2.531   6.167  18.435  0.00  0.00     0.014 A 
HETATM   27  C   UNL     1       2.281   5.040  17.647  0.00  0.00    -0.061 A 
HETATM   28  C   UNL     1       2.608   3.681  18.188  0.00  0.00     0.048 C 
HETATM   29  C   UNL     1       1.769   5.208  16.358  0.00  0.00     0.007 A 
HETATM   30  C   UNL     1       1.579   6.490  15.836  0.00  0.00     0.001 A 
HETATM   31  C   UNL     1       1.913   7.607  16.604  0.00  0.00     0.007 A 
ENDBRANCH  24  25
ENDBRANCH   8  24
TORSDOF 5
ENDMDL
MODEL 6
REMARK VINA RESULT:    -8.238      3.230      8.266
REMARK INTER + INTRA:         -11.351
REMARK INTER:                 -10.199
REMARK INTRA:                  -1.152
REMARK UNBOUND:                -0.945
REMARK  5 active torsions:
REMARK  status: ('A' for Active; 'I' for Inactive)
REMARK       I    between atoms: C_2  and  N_3 
REMARK    1  A    between atoms: C_2  and  C_12 
REMARK    2  A    between atoms: N_3  and  C_5 
REMARK    3  A    between atoms: C_13  and  O_14 
REMARK    4  A    between atoms: C_20  and  C_21 
REMARK    5  A    between atoms: C_21  and  C_22 
ROOT
HETATM    1  C   UNL     1       4.163   8.016  22.874  0.00  0.00     0.066 C 
HETATM    2  C   UNL     1       5.215   7.114  23.060  0.00  0.00     0.083 C 
HETATM    3  C   UNL     1       5.986   6.659  21.986  0.00  0.00     0.069 C 
HETATM    4  C   UNL     1       5.586   7.027  20.699  0.00  0.00     0.065 A 
HETATM    5  N   UNL     1       6.091   6.684  19.478  0.00  0.00    -0.277 N 
HETATM    6  H   UNL     1       6.890   6.092  19.285  0.00  0.00     0.189 HD
HETATM    7  N   UNL     1       5.385   7.142  18.441  0.00  0.00    -0.178 NA
HETATM    8  C   UNL     1       4.366   7.820  19.001  0.00  0.00     0.071 A 
HETATM    9  C   UNL     1       4.473   7.820  20.435  0.00  0.00     0.020 A 
HETATM   10  C   UNL     1       3.761   8.330  21.545  0.00  0.00     0.035 C 
ENDROOT
BRANCH   1  11
HETATM   11  C   UNL     1       3.336   8.599  23.983  0.00  0.00     0.260 C 
HETATM   12  O   UNL     1       3.718   9.710  24.359  0.00  0.00    -0.267 OA
HETATM   13  N   UNL     1       2.228   7.910  24.558  0.00  0.00    -0.318 N 
HETATM   14  C   UNL     1       1.989   6.470  24.372  0.00  0.00     0.159 C 
BRANCH  13  15
HETATM   15  C   UNL     1       1.354   8.589  25.511  0.00  0.00     0.037 A 
HETATM   16  C   UNL     1       1.535   8.461  26.896  0.00  0.00     0.030 A 
HETATM   17  C   UNL     1       0.653   9.041  27.822  0.00  0.00     0.009 A 
HETATM   18  C   UNL     1      -0.439   9.789  27.390  0.00  0.00    -0.062 A 
HETATM   19  C   UNL     1      -1.426  10.357  28.363  0.00  0.00     0.048 C 
HETATM   20  C   UNL     1      -0.608   9.980  26.020  0.00  0.00     0.009 A 
HETATM   21  C   UNL     1       0.281   9.402  25.099  0.00  0.00     0.030 A 
ENDBRANCH  13  15
ENDBRANCH   1  11
BRANCH   2  22
HETATM   22  O   UNL     1       5.551   6.562  24.269  0.00  0.00    -0.360 OA
HETATM   23  H   UNL     1       4.740   6.456  24.799  0.00  0.00     0.217 HD
ENDBRANCH   2  22
BRANCH   8  24
HETATM   24  C   UNL     1       3.262   8.250  18.093  0.00  0.00     0.100 C 
BRANCH  24  25
HETATM   25  C   UNL     1       2.375   7.100  17.700  0.00  0.00    -0.052 A 
HETATM   26  C   UNL     1       1.632   6.453  18.696  0.00  0.00     0.014 A 
HETATM   27  C   UNL     1       1.035   5.211  18.461  0.00  0.00    -0.061 A 
HETATM   28  C   UNL     1       0.410   4.471  19.605  0.00  0.00     0.048 C 
HETATM   29  C   UNL     1       1.071   4.669  17.174  0.00  0.00     0.007 A 
HETATM   30  C   UNL     1       1.757   5.327  16.150  0.00  0.00     0.001 A 
HETATM   31  C   UNL     1       2.421   6.526  16.419  0.00  0.00     0.007 A 
ENDBRANCH  24  25
ENDBRANCH   8  24
TORSDOF 5
ENDMDL
MODEL 7
REMARK VINA RESULT:    -8.167      3.013      8.143
REMARK INTER + INTRA:         -11.261
REMARK INTER:                 -10.202
REMARK INTRA:                  -1.058
REMARK UNBOUND:                -0.945
REMARK  5 active torsions:
REMARK  status: ('A' for Active; 'I' for Inactive)
REMARK       I    between atoms: C_2  and  N_3 
REMARK    1  A    between atoms: C_2  and  C_12 
REMARK    2  A    between atoms: N_3  and  C_5 
REMARK    3  A    between atoms: C_13  and  O_14 
REMARK    4  A    between atoms: C_20  and  C_21 
REMARK    5  A    between atoms: C_21  and  C_22 
ROOT
HETATM    1  C   UNL     1       3.965   7.268  23.042  0.00  0.00     0.066 C 
HETATM    2  C   UNL     1       5.183   6.613  23.255  0.00  0.00     0.083 C 
HETATM    3  C   UNL     1       6.136   6.493  22.239  0.00  0.00     0.069 C 
HETATM    4  C   UNL     1       5.780   6.929  20.961  0.00  0.00     0.065 A 
HETATM    5  N   UNL     1       6.463   6.877  19.780  0.00  0.00    -0.277 N 
HETATM    6  H   UNL     1       7.395   6.513  19.623  0.00  0.00     0.189 HD
HETATM    7  N   UNL     1       5.766   7.296  18.721  0.00  0.00    -0.178 NA
HETATM    8  C   UNL     1       4.567   7.644  19.224  0.00  0.00     0.071 A 
HETATM    9  C   UNL     1       4.538   7.477  20.651  0.00  0.00     0.020 A 
HETATM   10  C   UNL     1       3.624   7.657  21.715  0.00  0.00     0.035 C 
ENDROOT
BRANCH   1  11
HETATM   11  C   UNL     1       2.924   7.494  24.098  0.00  0.00     0.260 C 
HETATM   12  O   UNL     1       2.252   6.492  24.358  0.00  0.00    -0.267 OA
HETATM   13  N   UNL     1       2.723   8.761  24.720  0.00  0.00    -0.318 N 
HETATM   14  C   UNL     1       3.258  10.019  24.178  0.00  0.00     0.159 C 
BRANCH  13  15
HETATM   15  C   UNL     1       1.818   8.886  25.861  0.00  0.00     0.037 A 
HETATM   16  C   UNL     1       0.487   9.299  25.702  0.00  0.00     0.030 A 
HETATM   17  C   UNL     1      -0.368   9.502  26.797  0.00  0.00     0.009 A 
HETATM   18  C   UNL     1       0.079   9.280  28.097  0.00  0.00    -0.062 A 
HETATM   19  C   UNL     1      -0.800   9.556  29.279  0.00  0.00     0.048 C 
HETATM   20  C   UNL     1       1.379   8.812  28.278  0.00  0.00     0.009 A 
HETATM   21  C   UNL     1       2.228   8.605  27.178  0.00  0.00     0.030 A 
ENDBRANCH  13  15
ENDBRANCH   1  11
BRANCH   2  22
HETATM   22  O   UNL     1       5.528   5.994  24.429  0.00  0.00    -0.360 OA
HETATM   23  H   UNL     1       6.485   6.107  24.571  0.00  0.00     0.217 HD
ENDBRANCH   2  22
BRANCH   8  24
HETATM   24  C   UNL     1       3.480   7.929  18.240  0.00  0.00     0.100 C 
BRANCH  24  25
HETATM   25  C   UNL     1       2.416   6.866  18.252  0.00  0.00    -0.052 A 
HETATM   26  C   UNL     1       2.809   5.522  18.294  0.00  0.00     0.014 A 
HETATM   27  C   UNL     1       1.905   4.495  18.006  0.00  0.00    -0.061 A 
HETATM   28  C   UNL     1       2.410   3.089  17.879  0.00  0.00     0.048 C 
HETATM   29  C   UNL     1       0.559   4.808  17.800  0.00  0.00     0.007 A 
HETATM   30  C   UNL     1       0.134   6.139  17.813  0.00  0.00     0.001 A 
HETATM   31  C   UNL     1       1.063   7.161  18.018  0.00  0.00     0.007 A 
ENDBRANCH  24  25
ENDBRANCH   8  24
TORSDOF 5
ENDMDL
MODEL 8
REMARK VINA RESULT:    -8.140      4.407      8.225
REMARK INTER + INTRA:         -11.227
REMARK INTER:                 -10.170
REMARK INTRA:                  -1.057
REMARK UNBOUND:                -0.945
REMARK  5 active torsions:
REMARK  status: ('A' for Active; 'I' for Inactive)
REMARK       I    between atoms: C_2  and  N_3 
REMARK    1  A    between atoms: C_2  and  C_12 
REMARK    2  A    between atoms: N_3  and  C_5 
REMARK    3  A    between atoms: C_13  and  O_14 
REMARK    4  A    between atoms: C_20  and  C_21 
REMARK    5  A    between atoms: C_21  and  C_22 
ROOT
HETATM    1  C   UNL     1       4.637   6.923  22.959  0.00  0.00     0.066 C 
HETATM    2  C   UNL     1       5.889   6.357  22.696  0.00  0.00     0.083 C 
HETATM    3  C   UNL     1       6.539   6.554  21.473  0.00  0.00     0.069 C 
HETATM    4  C   UNL     1       5.838   7.225  20.468  0.00  0.00     0.065 A 
HETATM    5  N   UNL     1       6.182   7.498  19.175  0.00  0.00    -0.277 N 
HETATM    6  H   UNL     1       7.050   7.269  18.706  0.00  0.00     0.189 HD
HETATM    7  N   UNL     1       5.213   8.072  18.457  0.00  0.00    -0.178 NA
HETATM    8  C   UNL     1       4.181   8.183  19.314  0.00  0.00     0.071 A 
HETATM    9  C   UNL     1       4.541   7.705  20.620  0.00  0.00     0.020 A 
HETATM   10  C   UNL     1       3.940   7.559  21.892  0.00  0.00     0.035 C 
ENDROOT
BRANCH   1  11
HETATM   11  C   UNL     1       3.910   6.810  24.266  0.00  0.00     0.260 C 
HETATM   12  O   UNL     1       4.097   7.766  25.025  0.00  0.00    -0.267 OA
HETATM   13  N   UNL     1       3.100   5.685  24.600  0.00  0.00    -0.318 N 
HETATM   14  C   UNL     1       3.157   4.407  23.873  0.00  0.00     0.159 C 
BRANCH  13  15
HETATM   15  C   UNL     1       2.278   5.702  25.808  0.00  0.00     0.037 A 
HETATM   16  C   UNL     1       1.062   6.399  25.860  0.00  0.00     0.030 A 
HETATM   17  C   UNL     1       0.305   6.491  27.039  0.00  0.00     0.009 A 
HETATM   18  C   UNL     1       0.733   5.871  28.209  0.00  0.00    -0.062 A 
HETATM   19  C   UNL     1      -0.029   6.016  29.491  0.00  0.00     0.048 C 
HETATM   20  C   UNL     1       1.908   5.123  28.168  0.00  0.00     0.009 A 
HETATM   21  C   UNL     1       2.659   5.029  26.984  0.00  0.00     0.030 A 
ENDBRANCH  13  15
ENDBRANCH   1  11
BRANCH   2  22
HETATM   22  O   UNL     1       6.557   5.532  23.563  0.00  0.00    -0.360 OA
HETATM   23  H   UNL     1       5.969   4.794  23.807  0.00  0.00     0.217 HD
ENDBRANCH   2  22
BRANCH   8  24
HETATM   24  C   UNL     1       2.861   8.572  18.733  0.00  0.00     0.100 C 
BRANCH  24  25
HETATM   25  C   UNL     1       2.264   7.469  17.902  0.00  0.00    -0.052 A 
HETATM   26  C   UNL     1       2.226   6.174  18.432  0.00  0.00     0.014 A 
HETATM   27  C   UNL     1       1.971   5.066  17.618  0.00  0.00    -0.061 A 
HETATM   28  C   UNL     1       2.124   3.688  18.188  0.00  0.00     0.048 C 
HETATM   29  C   UNL     1       1.621   5.268  16.281  0.00  0.00     0.007 A 
HETATM   30  C   UNL     1       1.595   6.558  15.746  0.00  0.00     0.001 A 
HETATM   31  C   UNL     1       1.935   7.649  16.549  0.00  0.00     0.007 A 
ENDBRANCH  24  25
ENDBRANCH   8  24
TORSDOF 5
ENDMDL
MODEL 9
REMARK VINA RESULT:    -7.891      3.588      5.836
REMARK INTER + INTRA:         -10.913
REMARK INTER:                  -9.968
REMARK INTRA:                  -0.945
REMARK UNBOUND:                -0.945
REMARK  5 active torsions:
REMARK  status: ('A' for Active; 'I' for Inactive)
REMARK       I    between atoms: C_2  and  N_3 
REMARK    1  A    between atoms: C_2  and  C_12 
REMARK    2  A    between atoms: N_3  and  C_5 
REMARK    3  A    between atoms: C_13  and  O_14 
REMARK    4  A    between atoms: C_20  and  C_21 
REMARK    5  A    between atoms: C_21  and  C_22 
ROOT
HETATM    1  C   UNL     1       3.786   6.212  21.693  0.00  0.00     0.066 C 
HETATM    2  C   UNL     1       5.168   6.209  21.904  0.00  0.00     0.083 C 
HETATM    3  C   UNL     1       5.716   6.422  23.172  0.00  0.00     0.069 C 
HETATM    4  C   UNL     1       4.842   6.775  24.204  0.00  0.00     0.065 A 
HETATM    5  N   UNL     1       5.090   7.106  25.505  0.00  0.00    -0.277 N 
HETATM    6  H   UNL     1       5.987   7.136  25.974  0.00  0.00     0.189 HD
HETATM    7  N   UNL     1       4.011   7.497  26.189  0.00  0.00    -0.178 NA
HETATM    8  C   UNL     1       3.003   7.420  25.300  0.00  0.00     0.071 A 
HETATM    9  C   UNL     1       3.468   6.919  24.035  0.00  0.00     0.020 A 
HETATM   10  C   UNL     1       2.935   6.620  22.760  0.00  0.00     0.035 C 
ENDROOT
BRANCH   1  11
HETATM   11  C   UNL     1       3.125   5.926  20.377  0.00  0.00     0.260 C 
HETATM   12  O   UNL     1       2.852   4.735  20.204  0.00  0.00    -0.267 OA
HETATM   13  N   UNL     1       2.864   6.943  19.412  0.00  0.00    -0.318 N 
HETATM   14  C   UNL     1       3.493   8.272  19.451  0.00  0.00     0.159 C 
BRANCH  13  15
HETATM   15  C   UNL     1       2.066   6.644  18.225  0.00  0.00     0.037 A 
HETATM   16  C   UNL     1       0.676   6.466  18.299  0.00  0.00     0.030 A 
HETATM   17  C   UNL     1      -0.090   6.097  17.181  0.00  0.00     0.009 A 
HETATM   18  C   UNL     1       0.511   5.909  15.939  0.00  0.00    -0.062 A 
HETATM   19  C   UNL     1      -0.282   5.450  14.753  0.00  0.00     0.048 C 
HETATM   20  C   UNL     1       1.881   6.136  15.827  0.00  0.00     0.009 A 
HETATM   21  C   UNL     1       2.641   6.511  16.947  0.00  0.00     0.030 A 
ENDBRANCH  13  15
ENDBRANCH   1  11
BRANCH   2  22
HETATM   22  O   UNL     1       6.098   6.055  20.907  0.00  0.00    -0.360 OA
HETATM   23  H   UNL     1       6.517   6.918  20.737  0.00  0.00     0.217 HD
ENDBRANCH   2  22
BRANCH   8  24
HETATM   24  C   UNL     1       1.700   8.027  25.704  0.00  0.00     0.100 C 
BRANCH  24  25
HETATM   25  C   UNL     1       1.622   9.486  25.342  0.00  0.00    -0.052 A 
HETATM   26  C   UNL     1       0.367  10.109  25.334  0.00  0.00     0.014 A 
HETATM   27  C   UNL     1       0.182  11.354  24.726  0.00  0.00    -0.061 A 
HETATM   28  C   UNL     1      -1.207  11.897  24.578  0.00  0.00     0.048 C 
HETATM   29  C   UNL     1       1.292  12.045  24.234  0.00  0.00     0.007 A 
HETATM   30  C   UNL     1       2.563  11.466  24.284  0.00  0.00     0.001 A 
HETATM   31  C   UNL     1       2.720  10.185  24.818  0.00  0.00     0.007 A 
ENDBRANCH  24  25
ENDBRANCH   8  24
TORSDOF 5
ENDMDL
