REMARK  5 active torsions:
REMARK  status: ('A' for Active; 'I' for Inactive)
REMARK       I    between atoms: C_2  and  N_3 
REMARK    1  A    between atoms: C_2  and  C_12 
REMARK    2  A    between atoms: N_3  and  C_5 
REMARK    3  A    between atoms: C_13  and  O_14 
REMARK    4  A    between atoms: C_20  and  C_21 
REMARK    5  A    between atoms: C_21  and  C_22 
ROOT
HETATM    1  C   UNL     1       3.052  -0.935  -1.189  0.00  0.00     0.066 C 
HETATM    2  C   UNL     1       3.085  -2.082  -1.989  0.00  0.00     0.083 C 
HETATM    3  C   UNL     1       3.785  -2.110  -3.199  0.00  0.00     0.069 C 
HETATM    4  C   UNL     1       4.341  -0.912  -3.654  0.00  0.00     0.065 A 
HETATM    5  N   UNL     1       5.007  -0.623  -4.810  0.00  0.00    -0.277 N 
HETATM    6  H   UNL     1       5.240  -1.259  -5.563  0.00  0.00     0.189 HD
HETATM    7  N   UNL     1       5.308   0.669  -4.964  0.00  0.00    -0.178 NA
HETATM    8  C   UNL     1       4.820   1.262  -3.859  0.00  0.00     0.071 A 
HETATM    9  C   UNL     1       4.238   0.295  -2.969  0.00  0.00     0.020 A 
HETATM   10  C   UNL     1       3.592   0.275  -1.711  0.00  0.00     0.035 C 
ENDROOT
BRANCH   1  11
HETATM   11  C   UNL     1       2.379  -0.850   0.149  0.00  0.00     0.260 C 
HETATM   12  O   UNL     1       1.836   0.237   0.366  0.00  0.00    -0.267 OA
HETATM   13  N   UNL     1       2.394  -1.925   1.086  0.00  0.00    -0.318 N 
HETATM   14  C   UNL     1       3.320  -3.064   0.991  0.00  0.00     0.159 C 
BRANCH  13  15
HETATM   15  C   UNL     1       1.581  -1.856   2.298  0.00  0.00     0.037 A 
HETATM   16  C   UNL     1       0.428  -1.060   2.366  0.00  0.00     0.030 A 
HETATM   17  C   UNL     1      -0.315  -0.921   3.549  0.00  0.00     0.009 A 
HETATM   18  C   UNL     1       0.064  -1.592   4.709  0.00  0.00    -0.062 A 
HETATM   19  C   UNL     1      -0.679  -1.401   5.996  0.00  0.00     0.048 C 
HETATM   20  C   UNL     1       1.172  -2.435   4.652  0.00  0.00     0.009 A 
HETATM   21  C   UNL     1       1.908  -2.575   3.463  0.00  0.00     0.030 A 
ENDBRANCH  13  15
ENDBRANCH   1  11
BRANCH   2  22
HETATM   22  O   UNL     1       2.409  -3.240  -1.701  0.00  0.00    -0.360 OA
HETATM   23  H   UNL     1       1.702  -3.037  -1.062  0.00  0.00     0.217 HD
ENDBRANCH   2  22
BRANCH   8  24
HETATM   24  C   UNL     1       4.790   2.755  -3.852  0.00  0.00     0.100 C 
BRANCH  24  25
HETATM   25  C   UNL     1       5.545   3.329  -2.684  0.00  0.00    -0.052 A 
HETATM   26  C   UNL     1       4.821   3.927  -1.645  0.00  0.00     0.014 A 
HETATM   27  C   UNL     1       5.453   4.735  -0.695  0.00  0.00    -0.061 A 
HETATM   28  C   UNL     1       4.618   5.503   0.285  0.00  0.00     0.048 C 
HETATM   29  C   UNL     1       6.846   4.841  -0.707  0.00  0.00     0.007 A 
HETATM   30  C   UNL     1       7.593   4.204  -1.701  0.00  0.00     0.001 A 
HETATM   31  C   UNL     1       6.942   3.469  -2.694  0.00  0.00     0.007 A 
ENDBRANCH  24  25
ENDBRANCH   8  24
TORSDOF 5
