MODEL 1
REMARK VINA RESULT:    -8.337      0.000      0.000
REMARK INTER + INTRA:         -11.678
REMARK INTER:                 -10.332
REMARK INTRA:                  -1.346
REMARK UNBOUND:                -1.148
REMARK  5 active torsions:
REMARK  status: ('A' for Active; 'I' for Inactive)
REMARK    1  A    between atoms: C_2  and  N_3 
REMARK       I    between atoms: N_3  and  C_4 
REMARK    2  A    between atoms: C_4  and  C_6 
REMARK    3  A    between atoms: C_6  and  C_10 
REMARK    4  A    between atoms: C_17  and  N_18 
REMARK    5  A    between atoms: C_20  and  C_21 
REMARK       I    between atoms: C_21  and  N_23 
ROOT
HETATM    1  C   UNL     1       3.711   6.116  22.992  0.00  0.00    -0.039 A 
HETATM    2  C   UNL     1       2.710   6.601  23.856  0.00  0.00     0.024 A 
HETATM    3  C   UNL     1       2.935   6.844  25.240  0.00  0.00     0.028 A 
HETATM    4  C   UNL     1       4.187   6.578  25.791  0.00  0.00     0.073 A 
HETATM    5  C   UNL     1       5.173   6.074  24.959  0.00  0.00     0.033 A 
HETATM    6  C   UNL     1       4.948   5.840  23.597  0.00  0.00     0.011 A 
HETATM    7  N   UNL     1       4.478   6.772  27.082  0.00  0.00    -0.218 NA
HETATM    8  C   UNL     1       3.529   7.266  27.871  0.00  0.00     0.200 A 
HETATM    9  N   UNL     1       2.292   7.530  27.482  0.00  0.00    -0.212 NA
HETATM   10  C   UNL     1       2.009   7.314  26.174  0.00  0.00     0.140 A 
ENDROOT
BRANCH  10  11
HETATM   11  C   UNL     1       0.584   7.627  25.802  0.00  0.00     0.274 C 
HETATM   12  O   UNL     1      -0.304   6.800  25.996  0.00  0.00    -0.266 OA
HETATM   13  N   UNL     1       0.331   8.864  25.232  0.00  0.00    -0.338 N 
HETATM   14  C   UNL     1      -0.970   9.191  24.647  0.00  0.00     0.165 C 
HETATM   15  C   UNL     1       1.181  10.044  25.386  0.00  0.00     0.165 C 
HETATM   16  C   UNL     1      -0.820  10.630  24.255  0.00  0.00    -0.032 A 
HETATM   17  C   UNL     1      -1.695  11.448  23.562  0.00  0.00     0.009 A 
HETATM   18  C   UNL     1       0.410  11.123  24.704  0.00  0.00    -0.032 A 
HETATM   19  C   UNL     1      -1.317  12.775  23.331  0.00  0.00     0.001 A 
HETATM   20  C   UNL     1      -0.086  13.267  23.794  0.00  0.00     0.001 A 
HETATM   21  C   UNL     1       0.791  12.436  24.490  0.00  0.00     0.009 A 
ENDBRANCH  10  11
BRANCH   8  22
HETATM   22  N   UNL     1       3.830   7.455  29.199  0.00  0.00    -0.271 NA
HETATM   23  H   UNL     1       4.756   7.846  29.307  0.00  0.00     0.127 HD
HETATM   24  H   UNL     1       3.596   6.638  29.743  0.00  0.00     0.127 HD
ENDBRANCH   8  22
BRANCH   1  25
HETATM   25  C   UNL     1       3.447   5.875  21.418  0.00  0.00     0.068 C 
HETATM   26  C   UNL     1       2.151   5.055  21.039  0.00  0.00     0.024 C 
HETATM   27  C   UNL     1       3.018   3.790  20.979  0.00  0.00     0.003 C 
HETATM   28  C   UNL     1       4.229   4.695  20.722  0.00  0.00     0.024 C 
BRANCH  25  29
HETATM   29  C   UNL     1       3.570   7.288  20.700  0.00  0.00     0.231 C 
HETATM   30  N   UNL     1       2.921   7.349  19.477  0.00  0.00    -0.360 N 
HETATM   31  H   UNL     1       2.521   6.504  19.093  0.00  0.00     0.162 HD
HETATM   32  O   UNL     1       4.175   8.260  21.158  0.00  0.00    -0.272 OA
BRANCH  30  33
HETATM   33  C   UNL     1       2.931   8.539  18.654  0.00  0.00     0.118 C 
HETATM   34  C   UNL     1       1.815   8.517  17.626  0.00  0.00     0.026 C 
ENDBRANCH  30  33
ENDBRANCH  25  29
ENDBRANCH   1  25
TORSDOF 5
ENDMDL
MODEL 2
REMARK VINA RESULT:    -8.106      1.207      1.820
REMARK INTER + INTRA:         -11.387
REMARK INTER:                 -10.116
REMARK INTRA:                  -1.270
REMARK UNBOUND:                -1.148
REMARK  5 active torsions:
REMARK  status: ('A' for Active; 'I' for Inactive)
REMARK    1  A    between atoms: C_2  and  N_3 
REMARK       I    between atoms: N_3  and  C_4 
REMARK    2  A    between atoms: C_4  and  C_6 
REMARK    3  A    between atoms: C_6  and  C_10 
REMARK    4  A    between atoms: C_17  and  N_18 
REMARK    5  A    between atoms: C_20  and  C_21 
REMARK       I    between atoms: C_21  and  N_23 
ROOT
HETATM    1  C   UNL     1       4.031   6.962  22.865  0.00  0.00    -0.039 A 
HETATM    2  C   UNL     1       2.920   7.282  23.667  0.00  0.00     0.024 A 
HETATM    3  C   UNL     1       2.958   7.252  25.090  0.00  0.00     0.028 A 
HETATM    4  C   UNL     1       4.132   6.873  25.738  0.00  0.00     0.073 A 
HETATM    5  C   UNL     1       5.225   6.528  24.962  0.00  0.00     0.033 A 
HETATM    6  C   UNL     1       5.183   6.563  23.562  0.00  0.00     0.011 A 
HETATM    7  N   UNL     1       4.250   6.811  27.070  0.00  0.00    -0.218 NA
HETATM    8  C   UNL     1       3.198   7.153  27.808  0.00  0.00     0.200 A 
HETATM    9  N   UNL     1       2.019   7.499  27.318  0.00  0.00    -0.212 NA
HETATM   10  C   UNL     1       1.912   7.542  25.968  0.00  0.00     0.140 A 
ENDROOT
BRANCH  10  11
HETATM   11  C   UNL     1       0.543   7.935  25.480  0.00  0.00     0.274 C 
HETATM   12  O   UNL     1      -0.378   7.121  25.494  0.00  0.00    -0.266 OA
HETATM   13  N   UNL     1       0.379   9.229  25.014  0.00  0.00    -0.338 N 
HETATM   14  C   UNL     1      -0.843   9.653  24.331  0.00  0.00     0.165 C 
HETATM   15  C   UNL     1       1.231  10.361  25.376  0.00  0.00     0.165 C 
HETATM   16  C   UNL     1      -0.622  11.118  24.104  0.00  0.00    -0.032 A 
HETATM   17  C   UNL     1      -1.399  12.027  23.408  0.00  0.00     0.009 A 
HETATM   18  C   UNL     1       0.562  11.526  24.729  0.00  0.00    -0.032 A 
HETATM   19  C   UNL     1      -0.971  13.358  23.353  0.00  0.00     0.001 A 
HETATM   20  C   UNL     1       0.213  13.763  23.992  0.00  0.00     0.001 A 
HETATM   21  C   UNL     1       0.990  12.840  24.690  0.00  0.00     0.009 A 
ENDBRANCH  10  11
BRANCH   8  22
HETATM   22  N   UNL     1       3.321   7.079  29.175  0.00  0.00    -0.271 NA
HETATM   23  H   UNL     1       2.488   7.424  29.632  0.00  0.00     0.127 HD
HETATM   24  H   UNL     1       4.213   7.444  29.479  0.00  0.00     0.127 HD
ENDBRANCH   8  22
BRANCH   1  25
HETATM   25  C   UNL     1       3.978   7.032  21.253  0.00  0.00     0.068 C 
HETATM   26  C   UNL     1       5.367   6.988  20.501  0.00  0.00     0.024 C 
HETATM   27  C   UNL     1       5.349   8.522  20.462  0.00  0.00     0.003 C 
HETATM   28  C   UNL     1       3.822   8.454  20.591  0.00  0.00     0.024 C 
BRANCH  25  29
HETATM   29  C   UNL     1       2.929   5.940  20.771  0.00  0.00     0.231 C 
HETATM   30  N   UNL     1       2.166   6.342  19.686  0.00  0.00    -0.360 N 
HETATM   31  H   UNL     1       2.249   7.294  19.356  0.00  0.00     0.162 HD
HETATM   32  O   UNL     1       2.782   4.829  21.285  0.00  0.00    -0.272 OA
BRANCH  30  33
HETATM   33  C   UNL     1       1.138   5.503  19.108  0.00  0.00     0.118 C 
HETATM   34  C   UNL     1       0.283   6.271  18.118  0.00  0.00     0.026 C 
ENDBRANCH  30  33
ENDBRANCH  25  29
ENDBRANCH   1  25
TORSDOF 5
ENDMDL
MODEL 3
REMARK VINA RESULT:    -8.007      3.134      7.157
REMARK INTER + INTRA:         -11.261
REMARK INTER:                 -10.241
REMARK INTRA:                  -1.020
REMARK UNBOUND:                -1.148
REMARK  5 active torsions:
REMARK  status: ('A' for Active; 'I' for Inactive)
REMARK    1  A    between atoms: C_2  and  N_3 
REMARK       I    between atoms: N_3  and  C_4 
REMARK    2  A    between atoms: C_4  and  C_6 
REMARK    3  A    between atoms: C_6  and  C_10 
REMARK    4  A    between atoms: C_17  and  N_18 
REMARK    5  A    between atoms: C_20  and  C_21 
REMARK       I    between atoms: C_21  and  N_23 
ROOT
HETATM    1  C   UNL     1       1.198  11.164  24.712  0.00  0.00    -0.039 A 
HETATM    2  C   UNL     1       1.193   9.855  25.229  0.00  0.00     0.024 A 
HETATM    3  C   UNL     1       2.280   8.950  25.056  0.00  0.00     0.028 A 
HETATM    4  C   UNL     1       3.399   9.352  24.330  0.00  0.00     0.073 A 
HETATM    5  C   UNL     1       3.405  10.627  23.790  0.00  0.00     0.033 A 
HETATM    6  C   UNL     1       2.336  11.514  23.967  0.00  0.00     0.011 A 
HETATM    7  N   UNL     1       4.457   8.562  24.115  0.00  0.00    -0.218 NA
HETATM    8  C   UNL     1       4.447   7.343  24.645  0.00  0.00     0.200 A 
HETATM    9  N   UNL     1       3.435   6.830  25.326  0.00  0.00    -0.212 NA
HETATM   10  C   UNL     1       2.365   7.637  25.522  0.00  0.00     0.140 A 
ENDROOT
BRANCH  10  11
HETATM   11  C   UNL     1       1.249   6.987  26.296  0.00  0.00     0.274 C 
HETATM   12  O   UNL     1       0.317   6.445  25.706  0.00  0.00    -0.266 OA
HETATM   13  N   UNL     1       1.317   7.041  27.679  0.00  0.00    -0.338 N 
HETATM   14  C   UNL     1       0.196   6.628  28.523  0.00  0.00     0.165 C 
HETATM   15  C   UNL     1       2.548   7.228  28.447  0.00  0.00     0.165 C 
HETATM   16  C   UNL     1       0.744   6.756  29.912  0.00  0.00    -0.032 A 
HETATM   17  C   UNL     1       0.102   6.599  31.128  0.00  0.00     0.009 A 
HETATM   18  C   UNL     1       2.104   7.078  29.863  0.00  0.00    -0.032 A 
HETATM   19  C   UNL     1       0.852   6.764  32.298  0.00  0.00     0.001 A 
HETATM   20  C   UNL     1       2.220   7.076  32.241  0.00  0.00     0.001 A 
HETATM   21  C   UNL     1       2.858   7.235  31.012  0.00  0.00     0.009 A 
ENDBRANCH  10  11
BRANCH   8  22
HETATM   22  N   UNL     1       5.533   6.532  24.414  0.00  0.00    -0.271 NA
HETATM   23  H   UNL     1       5.849   6.099  25.270  0.00  0.00     0.127 HD
HETATM   24  H   UNL     1       6.218   7.000  23.839  0.00  0.00     0.127 HD
ENDBRANCH   8  22
BRANCH   1  25
HETATM   25  C   UNL     1      -0.030  12.186  24.944  0.00  0.00     0.068 C 
HETATM   26  C   UNL     1      -0.664  12.829  23.648  0.00  0.00     0.024 C 
HETATM   27  C   UNL     1       0.249  14.046  23.854  0.00  0.00     0.003 C 
HETATM   28  C   UNL     1       0.325  13.671  25.339  0.00  0.00     0.024 C 
BRANCH  25  29
HETATM   29  C   UNL     1      -1.071  11.459  25.900  0.00  0.00     0.231 C 
HETATM   30  N   UNL     1      -0.806  11.637  27.248  0.00  0.00    -0.360 N 
HETATM   31  H   UNL     1       0.047  12.104  27.521  0.00  0.00     0.162 HD
HETATM   32  O   UNL     1      -2.036  10.795  25.515  0.00  0.00    -0.272 OA
BRANCH  30  33
HETATM   33  C   UNL     1      -1.622  11.039  28.283  0.00  0.00     0.118 C 
HETATM   34  C   UNL     1      -0.895   9.905  28.982  0.00  0.00     0.026 C 
ENDBRANCH  30  33
ENDBRANCH  25  29
ENDBRANCH   1  25
TORSDOF 5
ENDMDL
MODEL 4
REMARK VINA RESULT:    -7.774      4.757      7.938
REMARK INTER + INTRA:         -10.967
REMARK INTER:                  -9.215
REMARK INTRA:                  -1.752
REMARK UNBOUND:                -1.148
REMARK  5 active torsions:
REMARK  status: ('A' for Active; 'I' for Inactive)
REMARK    1  A    between atoms: C_2  and  N_3 
REMARK       I    between atoms: N_3  and  C_4 
REMARK    2  A    between atoms: C_4  and  C_6 
REMARK    3  A    between atoms: C_6  and  C_10 
REMARK    4  A    between atoms: C_17  and  N_18 
REMARK    5  A    between atoms: C_20  and  C_21 
REMARK       I    between atoms: C_21  and  N_23 
ROOT
HETATM    1  C   UNL     1       2.173   3.742  17.773  0.00  0.00    -0.039 A 
HETATM    2  C   UNL     1       2.997   4.792  18.222  0.00  0.00     0.024 A 
HETATM    3  C   UNL     1       2.667   6.165  18.043  0.00  0.00     0.028 A 
HETATM    4  C   UNL     1       1.490   6.509  17.380  0.00  0.00     0.073 A 
HETATM    5  C   UNL     1       0.684   5.487  16.907  0.00  0.00     0.033 A 
HETATM    6  C   UNL     1       1.012   4.137  17.089  0.00  0.00     0.011 A 
HETATM    7  N   UNL     1       1.111   7.773  17.164  0.00  0.00    -0.218 NA
HETATM    8  C   UNL     1       1.886   8.748  17.630  0.00  0.00     0.200 A 
HETATM    9  N   UNL     1       3.041   8.558  18.246  0.00  0.00    -0.212 NA
HETATM   10  C   UNL     1       3.418   7.271  18.444  0.00  0.00     0.140 A 
ENDROOT
BRANCH  10  11
HETATM   11  C   UNL     1       4.744   7.129  19.142  0.00  0.00     0.274 C 
HETATM   12  O   UNL     1       5.790   7.382  18.548  0.00  0.00    -0.266 OA
HETATM   13  N   UNL     1       4.728   6.696  20.458  0.00  0.00    -0.338 N 
HETATM   14  C   UNL     1       5.956   6.327  21.163  0.00  0.00     0.165 C 
HETATM   15  C   UNL     1       3.586   6.819  21.363  0.00  0.00     0.165 C 
HETATM   16  C   UNL     1       5.480   6.029  22.552  0.00  0.00    -0.032 A 
HETATM   17  C   UNL     1       6.183   5.530  23.635  0.00  0.00     0.009 A 
HETATM   18  C   UNL     1       4.120   6.337  22.670  0.00  0.00    -0.032 A 
HETATM   19  C   UNL     1       5.499   5.350  24.842  0.00  0.00     0.001 A 
HETATM   20  C   UNL     1       4.137   5.672  24.956  0.00  0.00     0.001 A 
HETATM   21  C   UNL     1       3.435   6.172  23.860  0.00  0.00     0.009 A 
ENDBRANCH  10  11
BRANCH   8  22
HETATM   22  N   UNL     1       1.496  10.046  17.398  0.00  0.00    -0.271 NA
HETATM   23  H   UNL     1       1.264  10.514  18.263  0.00  0.00     0.127 HD
HETATM   24  H   UNL     1       0.829  10.094  16.641  0.00  0.00     0.127 HD
ENDBRANCH   8  22
BRANCH   1  25
HETATM   25  C   UNL     1       2.549   2.191  18.012  0.00  0.00     0.068 C 
HETATM   26  C   UNL     1       3.841   1.658  17.277  0.00  0.00     0.024 C 
HETATM   27  C   UNL     1       2.940   1.156  16.141  0.00  0.00     0.003 C 
HETATM   28  C   UNL     1       1.783   1.116  17.148  0.00  0.00     0.024 C 
BRANCH  25  29
HETATM   29  C   UNL     1       2.528   1.939  19.581  0.00  0.00     0.231 C 
HETATM   30  N   UNL     1       3.758   1.573  20.102  0.00  0.00    -0.360 N 
HETATM   31  H   UNL     1       4.525   1.396  19.468  0.00  0.00     0.162 HD
HETATM   32  O   UNL     1       1.532   2.053  20.299  0.00  0.00    -0.272 OA
BRANCH  30  33
HETATM   33  C   UNL     1       3.948   1.277  21.506  0.00  0.00     0.118 C 
HETATM   34  C   UNL     1       4.428   2.494  22.273  0.00  0.00     0.026 C 
ENDBRANCH  30  33
ENDBRANCH  25  29
ENDBRANCH   1  25
TORSDOF 5
ENDMDL
MODEL 5
REMARK VINA RESULT:    -7.658      3.466      9.071
REMARK INTER + INTRA:         -10.821
REMARK INTER:                  -9.558
REMARK INTRA:                  -1.263
REMARK UNBOUND:                -1.148
REMARK  5 active torsions:
REMARK  status: ('A' for Active; 'I' for Inactive)
REMARK    1  A    between atoms: C_2  and  N_3 
REMARK       I    between atoms: N_3  and  C_4 
REMARK    2  A    between atoms: C_4  and  C_6 
REMARK    3  A    between atoms: C_6  and  C_10 
REMARK    4  A    between atoms: C_17  and  N_18 
REMARK    5  A    between atoms: C_20  and  C_21 
REMARK       I    between atoms: C_21  and  N_23 
ROOT
HETATM    1  C   UNL     1       3.698   7.491  19.887  0.00  0.00    -0.039 A 
HETATM    2  C   UNL     1       3.001   6.277  19.731  0.00  0.00     0.024 A 
HETATM    3  C   UNL     1       2.069   6.050  18.679  0.00  0.00     0.028 A 
HETATM    4  C   UNL     1       1.805   7.066  17.763  0.00  0.00     0.073 A 
HETATM    5  C   UNL     1       2.462   8.275  17.920  0.00  0.00     0.033 A 
HETATM    6  C   UNL     1       3.381   8.492  18.955  0.00  0.00     0.011 A 
HETATM    7  N   UNL     1       0.939   6.937  16.750  0.00  0.00    -0.218 NA
HETATM    8  C   UNL     1       0.321   5.769  16.601  0.00  0.00     0.200 A 
HETATM    9  N   UNL     1       0.457   4.738  17.418  0.00  0.00    -0.212 NA
HETATM   10  C   UNL     1       1.326   4.891  18.447  0.00  0.00     0.140 A 
ENDROOT
BRANCH  10  11
HETATM   11  C   UNL     1       1.426   3.683  19.341  0.00  0.00     0.274 C 
HETATM   12  O   UNL     1       0.518   3.414  20.124  0.00  0.00    -0.266 OA
HETATM   13  N   UNL     1       2.574   2.913  19.246  0.00  0.00    -0.338 N 
HETATM   14  C   UNL     1       2.867   1.845  20.202  0.00  0.00     0.165 C 
HETATM   15  C   UNL     1       3.453   2.867  18.078  0.00  0.00     0.165 C 
HETATM   16  C   UNL     1       4.123   1.233  19.662  0.00  0.00    -0.032 A 
HETATM   17  C   UNL     1       4.924   0.245  20.207  0.00  0.00     0.009 A 
HETATM   18  C   UNL     1       4.444   1.808  18.427  0.00  0.00    -0.032 A 
HETATM   19  C   UNL     1       6.053  -0.163  19.487  0.00  0.00     0.001 A 
HETATM   20  C   UNL     1       6.363   0.410  18.243  0.00  0.00     0.001 A 
HETATM   21  C   UNL     1       5.551   1.406  17.702  0.00  0.00     0.009 A 
ENDBRANCH  10  11
BRANCH   8  22
HETATM   22  N   UNL     1      -0.574   5.645  15.565  0.00  0.00    -0.271 NA
HETATM   23  H   UNL     1      -1.519   5.550  15.913  0.00  0.00     0.127 HD
HETATM   24  H   UNL     1      -0.251   4.973  14.885  0.00  0.00     0.127 HD
ENDBRANCH   8  22
BRANCH   1  25
HETATM   25  C   UNL     1       4.773   7.720  21.068  0.00  0.00     0.068 C 
HETATM   26  C   UNL     1       6.211   8.201  20.626  0.00  0.00     0.024 C 
HETATM   27  C   UNL     1       6.663   6.735  20.644  0.00  0.00     0.003 C 
HETATM   28  C   UNL     1       5.521   6.450  21.627  0.00  0.00     0.024 C 
BRANCH  25  29
HETATM   29  C   UNL     1       4.077   8.635  22.165  0.00  0.00     0.231 C 
HETATM   30  N   UNL     1       3.453   7.918  23.174  0.00  0.00    -0.360 N 
HETATM   31  H   UNL     1       3.394   6.912  23.093  0.00  0.00     0.162 HD
HETATM   32  O   UNL     1       4.074   9.868  22.156  0.00  0.00    -0.272 OA
BRANCH  30  33
HETATM   33  C   UNL     1       2.741   8.563  24.257  0.00  0.00     0.118 C 
HETATM   34  C   UNL     1       1.796   7.602  24.953  0.00  0.00     0.026 C 
ENDBRANCH  30  33
ENDBRANCH  25  29
ENDBRANCH   1  25
TORSDOF 5
ENDMDL
MODEL 6
REMARK VINA RESULT:    -7.555      3.192      6.109
REMARK INTER + INTRA:         -10.690
REMARK INTER:                  -9.542
REMARK INTRA:                  -1.148
REMARK UNBOUND:                -1.148
REMARK  5 active torsions:
REMARK  status: ('A' for Active; 'I' for Inactive)
REMARK    1  A    between atoms: C_2  and  N_3 
REMARK       I    between atoms: N_3  and  C_4 
REMARK    2  A    between atoms: C_4  and  C_6 
REMARK    3  A    between atoms: C_6  and  C_10 
REMARK    4  A    between atoms: C_17  and  N_18 
REMARK    5  A    between atoms: C_20  and  C_21 
REMARK       I    between atoms: C_21  and  N_23 
ROOT
HETATM    1  C   UNL     1       2.996   4.373  19.593  0.00  0.00    -0.039 A 
HETATM    2  C   UNL     1       3.825   5.024  20.527  0.00  0.00     0.024 A 
HETATM    3  C   UNL     1       4.706   6.085  20.173  0.00  0.00     0.028 A 
HETATM    4  C   UNL     1       4.781   6.501  18.846  0.00  0.00     0.073 A 
HETATM    5  C   UNL     1       3.993   5.852  17.911  0.00  0.00     0.033 A 
HETATM    6  C   UNL     1       3.125   4.811  18.265  0.00  0.00     0.011 A 
HETATM    7  N   UNL     1       5.587   7.485  18.429  0.00  0.00    -0.218 NA
HETATM    8  C   UNL     1       6.334   8.109  19.335  0.00  0.00     0.200 A 
HETATM    9  N   UNL     1       6.379   7.790  20.618  0.00  0.00    -0.212 NA
HETATM   10  C   UNL     1       5.568   6.782  21.021  0.00  0.00     0.140 A 
ENDROOT
BRANCH  10  11
HETATM   11  C   UNL     1       5.677   6.466  22.489  0.00  0.00     0.274 C 
HETATM   12  O   UNL     1       6.577   5.740  22.903  0.00  0.00    -0.266 OA
HETATM   13  N   UNL     1       4.723   7.016  23.332  0.00  0.00    -0.338 N 
HETATM   14  C   UNL     1       4.610   6.614  24.734  0.00  0.00     0.165 C 
HETATM   15  C   UNL     1       3.937   8.212  23.034  0.00  0.00     0.165 C 
HETATM   16  C   UNL     1       3.542   7.518  25.267  0.00  0.00    -0.032 A 
HETATM   17  C   UNL     1       2.938   7.527  26.513  0.00  0.00     0.009 A 
HETATM   18  C   UNL     1       3.174   8.453  24.293  0.00  0.00    -0.032 A 
HETATM   19  C   UNL     1       1.961   8.496  26.768  0.00  0.00     0.001 A 
HETATM   20  C   UNL     1       1.605   9.438  25.789  0.00  0.00     0.001 A 
HETATM   21  C   UNL     1       2.216   9.421  24.536  0.00  0.00     0.009 A 
ENDBRANCH  10  11
BRANCH   8  22
HETATM   22  N   UNL     1       7.167   9.112  18.900  0.00  0.00    -0.271 NA
HETATM   23  H   UNL     1       6.929   9.993  19.336  0.00  0.00     0.127 HD
HETATM   24  H   UNL     1       7.265   9.092  17.896  0.00  0.00     0.127 HD
ENDBRANCH   8  22
BRANCH   1  25
HETATM   25  C   UNL     1       1.981   3.193  20.018  0.00  0.00     0.068 C 
HETATM   26  C   UNL     1       2.137   2.623  21.482  0.00  0.00     0.024 C 
HETATM   27  C   UNL     1       3.025   1.510  20.912  0.00  0.00     0.003 C 
HETATM   28  C   UNL     1       2.337   1.727  19.558  0.00  0.00     0.024 C 
BRANCH  25  29
HETATM   29  C   UNL     1       0.513   3.681  19.649  0.00  0.00     0.231 C 
HETATM   30  N   UNL     1      -0.325   2.660  19.231  0.00  0.00    -0.360 N 
HETATM   31  H   UNL     1       0.062   1.736  19.094  0.00  0.00     0.162 HD
HETATM   32  O   UNL     1       0.121   4.847  19.721  0.00  0.00    -0.272 OA
BRANCH  30  33
HETATM   33  C   UNL     1      -1.694   2.897  18.829  0.00  0.00     0.118 C 
HETATM   34  C   UNL     1      -2.637   1.866  19.422  0.00  0.00     0.026 C 
ENDBRANCH  30  33
ENDBRANCH  25  29
ENDBRANCH   1  25
TORSDOF 5
ENDMDL
MODEL 7
REMARK VINA RESULT:    -7.523      2.403      7.300
REMARK INTER + INTRA:         -10.651
REMARK INTER:                  -9.351
REMARK INTRA:                  -1.300
REMARK UNBOUND:                -1.148
REMARK  5 active torsions:
REMARK  status: ('A' for Active; 'I' for Inactive)
REMARK    1  A    between atoms: C_2  and  N_3 
REMARK       I    between atoms: N_3  and  C_4 
REMARK    2  A    between atoms: C_4  and  C_6 
REMARK    3  A    between atoms: C_6  and  C_10 
REMARK    4  A    between atoms: C_17  and  N_18 
REMARK    5  A    between atoms: C_20  and  C_21 
REMARK       I    between atoms: C_21  and  N_23 
ROOT
HETATM    1  C   UNL     1       2.878   8.139  24.183  0.00  0.00    -0.039 A 
HETATM    2  C   UNL     1       3.228   7.092  23.309  0.00  0.00     0.024 A 
HETATM    3  C   UNL     1       3.992   7.294  22.125  0.00  0.00     0.028 A 
HETATM    4  C   UNL     1       4.405   8.581  21.785  0.00  0.00     0.073 A 
HETATM    5  C   UNL     1       4.044   9.625  22.619  0.00  0.00     0.033 A 
HETATM    6  C   UNL     1       3.296   9.420  23.786  0.00  0.00     0.011 A 
HETATM    7  N   UNL     1       5.119   8.857  20.687  0.00  0.00    -0.218 NA
HETATM    8  C   UNL     1       5.469   7.847  19.897  0.00  0.00     0.200 A 
HETATM    9  N   UNL     1       5.115   6.587  20.089  0.00  0.00    -0.212 NA
HETATM   10  C   UNL     1       4.380   6.326  21.197  0.00  0.00     0.140 A 
ENDROOT
BRANCH  10  11
HETATM   11  C   UNL     1       4.005   4.875  21.348  0.00  0.00     0.274 C 
HETATM   12  O   UNL     1       4.689   4.126  22.040  0.00  0.00    -0.266 OA
HETATM   13  N   UNL     1       2.880   4.434  20.670  0.00  0.00    -0.338 N 
HETATM   14  C   UNL     1       2.543   3.013  20.578  0.00  0.00     0.165 C 
HETATM   15  C   UNL     1       1.781   5.293  20.229  0.00  0.00     0.165 C 
HETATM   16  C   UNL     1       1.227   3.016  19.862  0.00  0.00    -0.032 A 
HETATM   17  C   UNL     1       0.473   1.950  19.403  0.00  0.00     0.009 A 
HETATM   18  C   UNL     1       0.780   4.330  19.685  0.00  0.00    -0.032 A 
HETATM   19  C   UNL     1      -0.743   2.224  18.767  0.00  0.00     0.001 A 
HETATM   20  C   UNL     1      -1.190   3.545  18.603  0.00  0.00     0.001 A 
HETATM   21  C   UNL     1      -0.424   4.613  19.066  0.00  0.00     0.009 A 
ENDBRANCH  10  11
BRANCH   8  22
HETATM   22  N   UNL     1       6.194   8.138  18.766  0.00  0.00    -0.271 NA
HETATM   23  H   UNL     1       5.583   8.331  17.985  0.00  0.00     0.127 HD
HETATM   24  H   UNL     1       6.939   7.469  18.631  0.00  0.00     0.127 HD
ENDBRANCH   8  22
BRANCH   1  25
HETATM   25  C   UNL     1       2.038   7.887  25.537  0.00  0.00     0.068 C 
HETATM   26  C   UNL     1       2.598   8.563  26.849  0.00  0.00     0.024 C 
HETATM   27  C   UNL     1       3.315   7.246  27.174  0.00  0.00     0.003 C 
HETATM   28  C   UNL     1       2.279   6.528  26.300  0.00  0.00     0.024 C 
BRANCH  25  29
HETATM   29  C   UNL     1       0.518   8.224  25.215  0.00  0.00     0.231 C 
HETATM   30  N   UNL     1       0.145   9.510  25.573  0.00  0.00    -0.360 N 
HETATM   31  H   UNL     1       0.801  10.084  26.085  0.00  0.00     0.162 HD
HETATM   32  O   UNL     1      -0.282   7.443  24.695  0.00  0.00    -0.272 OA
BRANCH  30  33
HETATM   33  C   UNL     1      -1.201  10.007  25.385  0.00  0.00     0.118 C 
HETATM   34  C   UNL     1      -1.323  10.821  24.111  0.00  0.00     0.026 C 
ENDBRANCH  30  33
ENDBRANCH  25  29
ENDBRANCH   1  25
TORSDOF 5
ENDMDL
MODEL 8
REMARK VINA RESULT:    -7.516      2.528      7.613
REMARK INTER + INTRA:         -10.641
REMARK INTER:                  -9.050
REMARK INTRA:                  -1.591
REMARK UNBOUND:                -1.148
REMARK  5 active torsions:
REMARK  status: ('A' for Active; 'I' for Inactive)
REMARK    1  A    between atoms: C_2  and  N_3 
REMARK       I    between atoms: N_3  and  C_4 
REMARK    2  A    between atoms: C_4  and  C_6 
REMARK    3  A    between atoms: C_6  and  C_10 
REMARK    4  A    between atoms: C_17  and  N_18 
REMARK    5  A    between atoms: C_20  and  C_21 
REMARK       I    between atoms: C_21  and  N_23 
ROOT
HETATM    1  C   UNL     1       0.957   8.467  28.614  0.00  0.00    -0.039 A 
HETATM    2  C   UNL     1       1.484   8.925  27.391  0.00  0.00     0.024 A 
HETATM    3  C   UNL     1       0.685   9.539  26.386  0.00  0.00     0.028 A 
HETATM    4  C   UNL     1      -0.686   9.687  26.592  0.00  0.00     0.073 A 
HETATM    5  C   UNL     1      -1.223   9.216  27.778  0.00  0.00     0.033 A 
HETATM    6  C   UNL     1      -0.431   8.616  28.766  0.00  0.00     0.011 A 
HETATM    7  N   UNL     1      -1.508  10.246  25.696  0.00  0.00    -0.218 NA
HETATM    8  C   UNL     1      -0.982  10.704  24.564  0.00  0.00     0.200 A 
HETATM    9  N   UNL     1       0.294  10.597  24.233  0.00  0.00    -0.212 NA
HETATM   10  C   UNL     1       1.111  10.015  25.145  0.00  0.00     0.140 A 
ENDROOT
BRANCH  10  11
HETATM   11  C   UNL     1       2.546   9.919  24.699  0.00  0.00     0.274 C 
HETATM   12  O   UNL     1       3.323  10.849  24.901  0.00  0.00    -0.266 OA
HETATM   13  N   UNL     1       2.936   8.757  24.051  0.00  0.00    -0.338 N 
HETATM   14  C   UNL     1       4.239   8.640  23.398  0.00  0.00     0.165 C 
HETATM   15  C   UNL     1       2.261   7.466  24.176  0.00  0.00     0.165 C 
HETATM   16  C   UNL     1       4.265   7.215  22.934  0.00  0.00    -0.032 A 
HETATM   17  C   UNL     1       5.208   6.559  22.161  0.00  0.00     0.009 A 
HETATM   18  C   UNL     1       3.136   6.537  23.405  0.00  0.00    -0.032 A 
HETATM   19  C   UNL     1       5.001   5.205  21.874  0.00  0.00     0.001 A 
HETATM   20  C   UNL     1       3.871   4.528  22.359  0.00  0.00     0.001 A 
HETATM   21  C   UNL     1       2.925   5.197  23.134  0.00  0.00     0.009 A 
ENDBRANCH  10  11
BRANCH   8  22
HETATM   22  N   UNL     1      -1.832  11.269  23.644  0.00  0.00    -0.271 NA
HETATM   23  H   UNL     1      -1.328  11.558  22.816  0.00  0.00     0.127 HD
HETATM   24  H   UNL     1      -2.447  11.940  24.082  0.00  0.00     0.127 HD
ENDBRANCH   8  22
BRANCH   1  25
HETATM   25  C   UNL     1       1.883   7.801  29.755  0.00  0.00     0.068 C 
HETATM   26  C   UNL     1       1.222   7.611  31.177  0.00  0.00     0.024 C 
HETATM   27  C   UNL     1       1.845   8.948  31.601  0.00  0.00     0.003 C 
HETATM   28  C   UNL     1       2.901   8.742  30.508  0.00  0.00     0.024 C 
BRANCH  25  29
HETATM   29  C   UNL     1       2.513   6.479  29.136  0.00  0.00     0.231 C 
HETATM   30  N   UNL     1       3.849   6.608  28.790  0.00  0.00    -0.360 N 
HETATM   31  H   UNL     1       4.285   7.518  28.854  0.00  0.00     0.162 HD
HETATM   32  O   UNL     1       1.903   5.421  28.967  0.00  0.00    -0.272 OA
BRANCH  30  33
HETATM   33  C   UNL     1       4.602   5.527  28.190  0.00  0.00     0.118 C 
HETATM   34  C   UNL     1       4.485   5.539  26.678  0.00  0.00     0.026 C 
ENDBRANCH  30  33
ENDBRANCH  25  29
ENDBRANCH   1  25
TORSDOF 5
ENDMDL
MODEL 9
REMARK VINA RESULT:    -7.491      2.681      7.668
REMARK INTER + INTRA:         -10.610
REMARK INTER:                  -9.473
REMARK INTRA:                  -1.138
REMARK UNBOUND:                -1.148
REMARK  5 active torsions:
REMARK  status: ('A' for Active; 'I' for Inactive)
REMARK    1  A    between atoms: C_2  and  N_3 
REMARK       I    between atoms: N_3  and  C_4 
REMARK    2  A    between atoms: C_4  and  C_6 
REMARK    3  A    between atoms: C_6  and  C_10 
REMARK    4  A    between atoms: C_17  and  N_18 
REMARK    5  A    between atoms: C_20  and  C_21 
REMARK       I    between atoms: C_21  and  N_23 
ROOT
HETATM    1  C   UNL     1       3.046   8.101  24.144  0.00  0.00    -0.039 A 
HETATM    2  C   UNL     1       3.354   7.056  23.252  0.00  0.00     0.024 A 
HETATM    3  C   UNL     1       4.075   7.259  22.042  0.00  0.00     0.028 A 
HETATM    4  C   UNL     1       4.489   8.544  21.695  0.00  0.00     0.073 A 
HETATM    5  C   UNL     1       4.168   9.586  22.548  0.00  0.00     0.033 A 
HETATM    6  C   UNL     1       3.461   9.380  23.740  0.00  0.00     0.011 A 
HETATM    7  N   UNL     1       5.164   8.821  20.574  0.00  0.00    -0.218 NA
HETATM    8  C   UNL     1       5.476   7.812  19.765  0.00  0.00     0.200 A 
HETATM    9  N   UNL     1       5.116   6.554  19.962  0.00  0.00    -0.212 NA
HETATM   10  C   UNL     1       4.420   6.293  21.095  0.00  0.00     0.140 A 
ENDROOT
BRANCH  10  11
HETATM   11  C   UNL     1       4.036   4.845  21.250  0.00  0.00     0.274 C 
HETATM   12  O   UNL     1       4.728   4.089  21.929  0.00  0.00    -0.266 OA
HETATM   13  N   UNL     1       2.895   4.414  20.592  0.00  0.00    -0.338 N 
HETATM   14  C   UNL     1       2.546   2.996  20.504  0.00  0.00     0.165 C 
HETATM   15  C   UNL     1       1.795   5.282  20.173  0.00  0.00     0.165 C 
HETATM   16  C   UNL     1       1.217   3.010  19.813  0.00  0.00    -0.032 A 
HETATM   17  C   UNL     1       0.447   1.950  19.366  0.00  0.00     0.009 A 
HETATM   18  C   UNL     1       0.777   4.328  19.646  0.00  0.00    -0.032 A 
HETATM   19  C   UNL     1      -0.778   2.235  18.753  0.00  0.00     0.001 A 
HETATM   20  C   UNL     1      -1.218   3.560  18.599  0.00  0.00     0.001 A 
HETATM   21  C   UNL     1      -0.436   4.622  19.050  0.00  0.00     0.009 A 
ENDBRANCH  10  11
BRANCH   8  22
HETATM   22  N   UNL     1       6.162   8.104  18.610  0.00  0.00    -0.271 NA
HETATM   23  H   UNL     1       7.153   8.184  18.789  0.00  0.00     0.127 HD
HETATM   24  H   UNL     1       5.712   8.849  18.099  0.00  0.00     0.127 HD
ENDBRANCH   8  22
BRANCH   1  25
HETATM   25  C   UNL     1       2.253   7.848  25.527  0.00  0.00     0.068 C 
HETATM   26  C   UNL     1       0.995   6.896  25.452  0.00  0.00     0.024 C 
HETATM   27  C   UNL     1       0.112   8.141  25.297  0.00  0.00     0.003 C 
HETATM   28  C   UNL     1       1.220   8.948  25.985  0.00  0.00     0.024 C 
BRANCH  25  29
HETATM   29  C   UNL     1       3.333   7.435  26.618  0.00  0.00     0.231 C 
HETATM   30  N   UNL     1       3.128   8.025  27.855  0.00  0.00    -0.360 N 
HETATM   31  H   UNL     1       2.404   8.725  27.949  0.00  0.00     0.162 HD
HETATM   32  O   UNL     1       4.274   6.664  26.420  0.00  0.00    -0.272 OA
BRANCH  30  33
HETATM   33  C   UNL     1       4.011   7.798  28.978  0.00  0.00     0.118 C 
HETATM   34  C   UNL     1       4.012   8.975  29.935  0.00  0.00     0.026 C 
ENDBRANCH  30  33
ENDBRANCH  25  29
ENDBRANCH   1  25
TORSDOF 5
ENDMDL
