MODEL 1
REMARK VINA RESULT:    -7.543      0.000      0.000
REMARK INTER + INTRA:         -10.997
REMARK INTER:                  -9.514
REMARK INTRA:                  -1.483
REMARK UNBOUND:                -1.469
REMARK  6 active torsions:
REMARK  status: ('A' for Active; 'I' for Inactive)
REMARK    1  A    between atoms: O_1  and  C_2 
REMARK    2  A    between atoms: C_2  and  C_4 
REMARK    3  A    between atoms: C_6  and  C_7 
REMARK    4  A    between atoms: N_13  and  C_14 
REMARK    5  A    between atoms: C_21  and  O_22 
REMARK    6  A    between atoms: C_25  and  O_26 
ROOT
HETATM    1  C   UNL     1      -2.669  13.918  26.196  0.00  0.00     0.073 C 
HETATM    2  C   UNL     1      -2.900  14.431  24.905  0.00  0.00     0.039 C 
HETATM    3  C   UNL     1      -3.724  13.765  23.984  0.00  0.00     0.048 C 
HETATM    4  C   UNL     1      -4.263  12.526  24.356  0.00  0.00     0.100 C 
HETATM    5  C   UNL     1      -4.157  12.078  25.680  0.00  0.00     0.079 C 
HETATM    6 BR   UNL     1      -5.059  10.496  26.242  0.00  0.00    -0.045 Br
HETATM    7  C   UNL     1      -3.357  12.768  26.595  0.00  0.00     0.102 C 
ENDROOT
BRANCH   3   8
HETATM    8  C   UNL     1      -3.877  14.392  22.642  0.00  0.00     0.172 A 
HETATM    9  N   UNL     1      -4.928  15.121  22.360  0.00  0.00    -0.151 NA
HETATM   10  N   UNL     1      -4.682  15.616  21.113  0.00  0.00    -0.226 N 
HETATM   11  H   UNL     1      -5.345  16.191  20.610  0.00  0.00     0.194 HD
HETATM   12  C   UNL     1      -3.457  15.175  20.633  0.00  0.00     0.349 A 
HETATM   13  O   UNL     1      -2.983  15.452  19.542  0.00  0.00    -0.245 OA
HETATM   14  N   UNL     1      -2.949  14.362  21.630  0.00  0.00    -0.241 N 
BRANCH  14  15
HETATM   15  C   UNL     1      -1.779  13.600  21.471  0.00  0.00     0.084 A 
HETATM   16  C   UNL     1      -1.862  12.346  20.846  0.00  0.00     0.033 A 
HETATM   17  C   UNL     1      -0.699  11.647  20.516  0.00  0.00     0.002 A 
HETATM   18  C   UNL     1       0.551  12.159  20.867  0.00  0.00     0.003 A 
HETATM   19  C   UNL     1       0.638  13.368  21.556  0.00  0.00     0.044 A 
HETATM   20  C   UNL     1      -0.521  14.085  21.843  0.00  0.00     0.143 A 
HETATM   21  F   UNL     1      -0.412  15.248  22.501  0.00  0.00    -0.204 F 
ENDBRANCH  14  15
ENDBRANCH   3   8
BRANCH   4  22
HETATM   22  O   UNL     1      -4.822  11.660  23.455  0.00  0.00    -0.358 OA
HETATM   23  H   UNL     1      -4.761  12.033  22.558  0.00  0.00     0.217 HD
ENDBRANCH   4  22
BRANCH   1  24
HETATM   24  C   UNL     1      -1.662  14.616  27.043  0.00  0.00     0.179 C 
HETATM   25  O   UNL     1      -0.553  14.912  26.626  0.00  0.00    -0.646 OA
BRANCH  24  26
HETATM   26  O   UNL     1      -2.030  14.849  28.321  0.00  0.00    -0.773 OA
HETATM   27  H   UNL     1      -1.436  14.418  28.974  0.00  0.00     0.167 HD
ENDBRANCH  24  26
ENDBRANCH   1  24
BRANCH   7  28
HETATM   28  O   UNL     1      -3.207  12.299  27.879  0.00  0.00    -0.358 OA
HETATM   29  H   UNL     1      -2.614  11.518  27.838  0.00  0.00     0.217 HD
ENDBRANCH   7  28
TORSDOF 6
ENDMDL
MODEL 2
REMARK VINA RESULT:    -7.057      3.657      6.676
REMARK INTER + INTRA:         -10.382
REMARK INTER:                  -9.289
REMARK INTRA:                  -1.093
REMARK UNBOUND:                -1.469
REMARK  6 active torsions:
REMARK  status: ('A' for Active; 'I' for Inactive)
REMARK    1  A    between atoms: O_1  and  C_2 
REMARK    2  A    between atoms: C_2  and  C_4 
REMARK    3  A    between atoms: C_6  and  C_7 
REMARK    4  A    between atoms: N_13  and  C_14 
REMARK    5  A    between atoms: C_21  and  O_22 
REMARK    6  A    between atoms: C_25  and  O_26 
ROOT
HETATM    1  C   UNL     1       1.500  12.554  19.785  0.00  0.00     0.073 C 
HETATM    2  C   UNL     1       0.430  11.931  20.454  0.00  0.00     0.039 C 
HETATM    3  C   UNL     1       0.032  12.330  21.740  0.00  0.00     0.048 C 
HETATM    4  C   UNL     1       0.777  13.328  22.381  0.00  0.00     0.100 C 
HETATM    5  C   UNL     1       1.749  14.050  21.673  0.00  0.00     0.079 C 
HETATM    6 BR   UNL     1       2.622  15.542  22.474  0.00  0.00    -0.045 Br
HETATM    7  C   UNL     1       2.114  13.659  20.381  0.00  0.00     0.102 C 
ENDROOT
BRANCH   3   8
HETATM    8  C   UNL     1      -1.100  11.583  22.357  0.00  0.00     0.172 A 
HETATM    9  N   UNL     1      -0.902  10.426  22.935  0.00  0.00    -0.151 NA
HETATM   10  N   UNL     1      -2.110  10.097  23.475  0.00  0.00    -0.226 N 
HETATM   11  H   UNL     1      -2.276   9.224  23.958  0.00  0.00     0.194 HD
HETATM   12  C   UNL     1      -3.057  11.078  23.217  0.00  0.00     0.349 A 
HETATM   13  O   UNL     1      -4.225  11.045  23.572  0.00  0.00    -0.245 OA
HETATM   14  N   UNL     1      -2.393  12.034  22.470  0.00  0.00    -0.241 N 
BRANCH  14  15
HETATM   15  C   UNL     1      -3.044  13.131  21.882  0.00  0.00     0.084 A 
HETATM   16  C   UNL     1      -3.204  13.162  20.488  0.00  0.00     0.033 A 
HETATM   17  C   UNL     1      -3.998  14.145  19.893  0.00  0.00     0.002 A 
HETATM   18  C   UNL     1      -4.581  15.143  20.674  0.00  0.00     0.003 A 
HETATM   19  C   UNL     1      -4.364  15.164  22.051  0.00  0.00     0.044 A 
HETATM   20  C   UNL     1      -3.610  14.156  22.647  0.00  0.00     0.143 A 
HETATM   21  F   UNL     1      -3.420  14.193  23.974  0.00  0.00    -0.204 F 
ENDBRANCH  14  15
ENDBRANCH   3   8
BRANCH   4  22
HETATM   22  O   UNL     1       0.674  13.586  23.722  0.00  0.00    -0.358 OA
HETATM   23  H   UNL     1       1.255  12.983  24.218  0.00  0.00     0.217 HD
ENDBRANCH   4  22
BRANCH   1  24
HETATM   24  C   UNL     1       1.942  11.959  18.493  0.00  0.00     0.179 C 
HETATM   25  O   UNL     1       1.817  10.770  18.247  0.00  0.00    -0.646 OA
BRANCH  24  26
HETATM   26  O   UNL     1       2.546  12.807  17.633  0.00  0.00    -0.773 OA
HETATM   27  H   UNL     1       3.511  12.891  17.793  0.00  0.00     0.167 HD
ENDBRANCH  24  26
ENDBRANCH   1  24
BRANCH   7  28
HETATM   28  O   UNL     1       3.106  14.332  19.707  0.00  0.00    -0.358 OA
HETATM   29  H   UNL     1       3.011  15.285  19.920  0.00  0.00     0.217 HD
ENDBRANCH   7  28
TORSDOF 6
ENDMDL
MODEL 3
REMARK VINA RESULT:    -7.050      2.792      3.661
REMARK INTER + INTRA:         -10.374
REMARK INTER:                  -8.929
REMARK INTRA:                  -1.446
REMARK UNBOUND:                -1.469
REMARK  6 active torsions:
REMARK  status: ('A' for Active; 'I' for Inactive)
REMARK    1  A    between atoms: O_1  and  C_2 
REMARK    2  A    between atoms: C_2  and  C_4 
REMARK    3  A    between atoms: C_6  and  C_7 
REMARK    4  A    between atoms: N_13  and  C_14 
REMARK    5  A    between atoms: C_21  and  O_22 
REMARK    6  A    between atoms: C_25  and  O_26 
ROOT
HETATM    1  C   UNL     1      -2.652  10.972  26.139  0.00  0.00     0.073 C 
HETATM    2  C   UNL     1      -2.832  11.559  24.872  0.00  0.00     0.039 C 
HETATM    3  C   UNL     1      -1.979  11.268  23.796  0.00  0.00     0.048 C 
HETATM    4  C   UNL     1      -0.886  10.422  24.031  0.00  0.00     0.100 C 
HETATM    5  C   UNL     1      -0.780   9.723  25.241  0.00  0.00     0.079 C 
HETATM    6 BR   UNL     1       0.587   8.419  25.491  0.00  0.00    -0.045 Br
HETATM    7  C   UNL     1      -1.656  10.003  26.295  0.00  0.00     0.102 C 
ENDROOT
BRANCH   3   8
HETATM    8  C   UNL     1      -2.254  11.966  22.510  0.00  0.00     0.172 A 
HETATM    9  N   UNL     1      -3.015  11.413  21.598  0.00  0.00    -0.151 NA
HETATM   10  N   UNL     1      -3.137  12.363  20.626  0.00  0.00    -0.226 N 
HETATM   11  H   UNL     1      -3.644  12.205  19.765  0.00  0.00     0.194 HD
HETATM   12  C   UNL     1      -2.435  13.512  20.960  0.00  0.00     0.349 A 
HETATM   13  O   UNL     1      -2.360  14.519  20.273  0.00  0.00    -0.245 OA
HETATM   14  N   UNL     1      -1.847  13.236  22.180  0.00  0.00    -0.241 N 
BRANCH  14  15
HETATM   15  C   UNL     1      -0.926  14.100  22.797  0.00  0.00     0.084 A 
HETATM   16  C   UNL     1      -1.376  14.972  23.800  0.00  0.00     0.033 A 
HETATM   17  C   UNL     1      -0.461  15.713  24.551  0.00  0.00     0.002 A 
HETATM   18  C   UNL     1       0.902  15.642  24.263  0.00  0.00     0.003 A 
HETATM   19  C   UNL     1       1.351  14.836  23.218  0.00  0.00     0.044 A 
HETATM   20  C   UNL     1       0.440  14.063  22.500  0.00  0.00     0.143 A 
HETATM   21  F   UNL     1       0.895  13.290  21.504  0.00  0.00    -0.204 F 
ENDBRANCH  14  15
ENDBRANCH   3   8
BRANCH   4  22
HETATM   22  O   UNL     1       0.162  10.305  23.158  0.00  0.00    -0.358 OA
HETATM   23  H   UNL     1      -0.091   9.731  22.414  0.00  0.00     0.217 HD
ENDBRANCH   4  22
BRANCH   1  24
HETATM   24  C   UNL     1      -3.512  11.460  27.251  0.00  0.00     0.179 C 
HETATM   25  O   UNL     1      -4.406  10.780  27.731  0.00  0.00    -0.646 OA
BRANCH  24  26
HETATM   26  O   UNL     1      -3.283  12.727  27.658  0.00  0.00    -0.773 OA
HETATM   27  H   UNL     1      -3.381  12.841  28.629  0.00  0.00     0.167 HD
ENDBRANCH  24  26
ENDBRANCH   1  24
BRANCH   7  28
HETATM   28  O   UNL     1      -1.518   9.358  27.502  0.00  0.00    -0.358 OA
HETATM   29  H   UNL     1      -2.399   9.359  27.936  0.00  0.00     0.217 HD
ENDBRANCH   7  28
TORSDOF 6
ENDMDL
MODEL 4
REMARK VINA RESULT:    -6.848      4.137      5.453
REMARK INTER + INTRA:         -10.118
REMARK INTER:                  -8.845
REMARK INTRA:                  -1.273
REMARK UNBOUND:                -1.469
REMARK  6 active torsions:
REMARK  status: ('A' for Active; 'I' for Inactive)
REMARK    1  A    between atoms: O_1  and  C_2 
REMARK    2  A    between atoms: C_2  and  C_4 
REMARK    3  A    between atoms: C_6  and  C_7 
REMARK    4  A    between atoms: N_13  and  C_14 
REMARK    5  A    between atoms: C_21  and  O_22 
REMARK    6  A    between atoms: C_25  and  O_26 
ROOT
HETATM    1  C   UNL     1       0.016   8.670  24.766  0.00  0.00     0.073 C 
HETATM    2  C   UNL     1      -0.908   9.599  24.252  0.00  0.00     0.039 C 
HETATM    3  C   UNL     1      -1.763  10.330  25.092  0.00  0.00     0.048 C 
HETATM    4  C   UNL     1      -1.727  10.060  26.466  0.00  0.00     0.100 C 
HETATM    5  C   UNL     1      -0.719   9.245  27.001  0.00  0.00     0.079 C 
HETATM    6 BR   UNL     1      -0.539   9.037  28.887  0.00  0.00    -0.045 Br
HETATM    7  C   UNL     1       0.146   8.547  26.152  0.00  0.00     0.102 C 
ENDROOT
BRANCH   3   8
HETATM    8  C   UNL     1      -2.713  11.269  24.433  0.00  0.00     0.172 A 
HETATM    9  N   UNL     1      -3.727  10.818  23.738  0.00  0.00    -0.151 NA
HETATM   10  N   UNL     1      -4.429  11.934  23.387  0.00  0.00    -0.226 N 
HETATM   11  H   UNL     1      -5.256  11.901  22.804  0.00  0.00     0.194 HD
HETATM   12  C   UNL     1      -3.825  13.081  23.881  0.00  0.00     0.349 A 
HETATM   13  O   UNL     1      -4.230  14.221  23.713  0.00  0.00    -0.245 OA
HETATM   14  N   UNL     1      -2.696  12.639  24.545  0.00  0.00    -0.241 N 
BRANCH  14  15
HETATM   15  C   UNL     1      -1.727  13.512  25.068  0.00  0.00     0.084 A 
HETATM   16  C   UNL     1      -0.680  13.942  24.240  0.00  0.00     0.033 A 
HETATM   17  C   UNL     1       0.194  14.942  24.674  0.00  0.00     0.002 A 
HETATM   18  C   UNL     1       0.072  15.471  25.959  0.00  0.00     0.003 A 
HETATM   19  C   UNL     1      -0.919  14.994  26.816  0.00  0.00     0.044 A 
HETATM   20  C   UNL     1      -1.817  14.029  26.364  0.00  0.00     0.143 A 
HETATM   21  F   UNL     1      -2.766  13.590  27.203  0.00  0.00    -0.204 F 
ENDBRANCH  14  15
ENDBRANCH   3   8
BRANCH   4  22
HETATM   22  O   UNL     1      -2.701  10.481  27.331  0.00  0.00    -0.358 OA
HETATM   23  H   UNL     1      -2.456  10.246  28.243  0.00  0.00     0.217 HD
ENDBRANCH   4  22
BRANCH   1  24
HETATM   24  C   UNL     1       0.769   7.836  23.787  0.00  0.00     0.179 C 
HETATM   25  O   UNL     1       1.875   8.152  23.377  0.00  0.00    -0.646 OA
BRANCH  24  26
HETATM   26  O   UNL     1       0.127   6.738  23.335  0.00  0.00    -0.773 OA
HETATM   27  H   UNL     1       0.739   6.049  22.998  0.00  0.00     0.167 HD
ENDBRANCH  24  26
ENDBRANCH   1  24
BRANCH   7  28
HETATM   28  O   UNL     1       1.100   7.704  26.674  0.00  0.00    -0.358 OA
HETATM   29  H   UNL     1       1.770   7.553  25.974  0.00  0.00     0.217 HD
ENDBRANCH   7  28
TORSDOF 6
ENDMDL
MODEL 5
REMARK VINA RESULT:    -6.818      3.954      4.960
REMARK INTER + INTRA:         -10.081
REMARK INTER:                  -8.876
REMARK INTRA:                  -1.205
REMARK UNBOUND:                -1.469
REMARK  6 active torsions:
REMARK  status: ('A' for Active; 'I' for Inactive)
REMARK    1  A    between atoms: O_1  and  C_2 
REMARK    2  A    between atoms: C_2  and  C_4 
REMARK    3  A    between atoms: C_6  and  C_7 
REMARK    4  A    between atoms: N_13  and  C_14 
REMARK    5  A    between atoms: C_21  and  O_22 
REMARK    6  A    between atoms: C_25  and  O_26 
ROOT
HETATM    1  C   UNL     1      -0.424   8.808  25.330  0.00  0.00     0.073 C 
HETATM    2  C   UNL     1      -1.333   9.817  24.962  0.00  0.00     0.039 C 
HETATM    3  C   UNL     1      -2.016  10.580  25.922  0.00  0.00     0.048 C 
HETATM    4  C   UNL     1      -1.826  10.263  27.274  0.00  0.00     0.100 C 
HETATM    5  C   UNL     1      -0.823   9.361  27.655  0.00  0.00     0.079 C 
HETATM    6 BR   UNL     1      -0.421   9.079  29.496  0.00  0.00    -0.045 Br
HETATM    7  C   UNL     1      -0.128   8.630  26.685  0.00  0.00     0.102 C 
ENDROOT
BRANCH   3   8
HETATM    8  C   UNL     1      -2.968  11.607  25.414  0.00  0.00     0.172 A 
HETATM    9  N   UNL     1      -4.151  11.750  25.957  0.00  0.00    -0.151 NA
HETATM   10  N   UNL     1      -4.692  12.832  25.328  0.00  0.00    -0.226 N 
HETATM   11  H   UNL     1      -5.630  13.163  25.514  0.00  0.00     0.194 HD
HETATM   12  C   UNL     1      -3.816  13.353  24.386  0.00  0.00     0.349 A 
HETATM   13  O   UNL     1      -4.040  14.316  23.669  0.00  0.00    -0.245 OA
HETATM   14  N   UNL     1      -2.703  12.535  24.437  0.00  0.00    -0.241 N 
BRANCH  14  15
HETATM   15  C   UNL     1      -1.636  12.641  23.528  0.00  0.00     0.084 A 
HETATM   16  C   UNL     1      -0.497  13.373  23.896  0.00  0.00     0.033 A 
HETATM   17  C   UNL     1       0.644  13.350  23.092  0.00  0.00     0.002 A 
HETATM   18  C   UNL     1       0.636  12.654  21.883  0.00  0.00     0.003 A 
HETATM   19  C   UNL     1      -0.517  11.987  21.473  0.00  0.00     0.044 A 
HETATM   20  C   UNL     1      -1.639  11.974  22.299  0.00  0.00     0.143 A 
HETATM   21  F   UNL     1      -2.735  11.320  21.887  0.00  0.00    -0.204 F 
ENDBRANCH  14  15
ENDBRANCH   3   8
BRANCH   4  22
HETATM   22  O   UNL     1      -2.648  10.725  28.267  0.00  0.00    -0.358 OA
HETATM   23  H   UNL     1      -2.114  11.000  29.033  0.00  0.00     0.217 HD
ENDBRANCH   4  22
BRANCH   1  24
HETATM   24  C   UNL     1       0.133   7.955  24.244  0.00  0.00     0.179 C 
HETATM   25  O   UNL     1       0.950   8.375  23.439  0.00  0.00    -0.646 OA
BRANCH  24  26
HETATM   26  O   UNL     1      -0.367   6.703  24.166  0.00  0.00    -0.773 OA
HETATM   27  H   UNL     1      -1.015   6.595  23.436  0.00  0.00     0.167 HD
ENDBRANCH  24  26
ENDBRANCH   1  24
BRANCH   7  28
HETATM   28  O   UNL     1       0.817   7.704  27.059  0.00  0.00    -0.358 OA
HETATM   29  H   UNL     1       0.622   7.444  27.985  0.00  0.00     0.217 HD
ENDBRANCH   7  28
TORSDOF 6
ENDMDL
MODEL 6
REMARK VINA RESULT:    -6.796      2.679      3.513
REMARK INTER + INTRA:         -10.053
REMARK INTER:                  -8.509
REMARK INTRA:                  -1.544
REMARK UNBOUND:                -1.469
REMARK  6 active torsions:
REMARK  status: ('A' for Active; 'I' for Inactive)
REMARK    1  A    between atoms: O_1  and  C_2 
REMARK    2  A    between atoms: C_2  and  C_4 
REMARK    3  A    between atoms: C_6  and  C_7 
REMARK    4  A    between atoms: N_13  and  C_14 
REMARK    5  A    between atoms: C_21  and  O_22 
REMARK    6  A    between atoms: C_25  and  O_26 
ROOT
HETATM    1  C   UNL     1      -1.209  10.369  24.173  0.00  0.00     0.073 C 
HETATM    2  C   UNL     1      -1.500  11.263  23.126  0.00  0.00     0.039 C 
HETATM    3  C   UNL     1      -2.555  12.184  23.214  0.00  0.00     0.048 C 
HETATM    4  C   UNL     1      -3.369  12.147  24.354  0.00  0.00     0.100 C 
HETATM    5  C   UNL     1      -3.005  11.364  25.459  0.00  0.00     0.079 C 
HETATM    6 BR   UNL     1      -3.992  11.463  27.086  0.00  0.00    -0.045 Br
HETATM    7  C   UNL     1      -1.931  10.472  25.366  0.00  0.00     0.102 C 
ENDROOT
BRANCH   3   8
HETATM    8  C   UNL     1      -2.781  13.065  22.035  0.00  0.00     0.172 A 
HETATM    9  N   UNL     1      -3.829  12.900  21.267  0.00  0.00    -0.151 NA
HETATM   10  N   UNL     1      -3.772  13.932  20.377  0.00  0.00    -0.226 N 
HETATM   11  H   UNL     1      -4.439  14.046  19.625  0.00  0.00     0.194 HD
HETATM   12  C   UNL     1      -2.666  14.736  20.613  0.00  0.00     0.349 A 
HETATM   13  O   UNL     1      -2.359  15.725  19.967  0.00  0.00    -0.245 OA
HETATM   14  N   UNL     1      -2.016  14.151  21.685  0.00  0.00    -0.241 N 
BRANCH  14  15
HETATM   15  C   UNL     1      -0.761  14.585  22.145  0.00  0.00     0.084 A 
HETATM   16  C   UNL     1      -0.702  15.632  23.078  0.00  0.00     0.033 A 
HETATM   17  C   UNL     1       0.511  15.965  23.685  0.00  0.00     0.002 A 
HETATM   18  C   UNL     1       1.683  15.305  23.318  0.00  0.00     0.003 A 
HETATM   19  C   UNL     1       1.646  14.316  22.336  0.00  0.00     0.044 A 
HETATM   20  C   UNL     1       0.428  13.954  21.765  0.00  0.00     0.143 A 
HETATM   21  F   UNL     1       0.415  12.995  20.828  0.00  0.00    -0.204 F 
ENDBRANCH  14  15
ENDBRANCH   3   8
BRANCH   4  22
HETATM   22  O   UNL     1      -4.583  12.777  24.420  0.00  0.00    -0.358 OA
HETATM   23  H   UNL     1      -4.451  13.740  24.476  0.00  0.00     0.217 HD
ENDBRANCH   4  22
BRANCH   1  24
HETATM   24  C   UNL     1      -0.171   9.331  23.923  0.00  0.00     0.179 C 
HETATM   25  O   UNL     1       0.919   9.602  23.442  0.00  0.00    -0.646 OA
BRANCH  24  26
HETATM   26  O   UNL     1      -0.531   8.061  24.203  0.00  0.00    -0.773 OA
HETATM   27  H   UNL     1      -1.098   7.992  25.002  0.00  0.00     0.167 HD
ENDBRANCH  24  26
ENDBRANCH   1  24
BRANCH   7  28
HETATM   28  O   UNL     1      -1.607   9.663  26.429  0.00  0.00    -0.358 OA
HETATM   29  H   UNL     1      -2.199   9.907  27.173  0.00  0.00     0.217 HD
ENDBRANCH   7  28
TORSDOF 6
ENDMDL
MODEL 7
REMARK VINA RESULT:    -6.783      3.659      4.651
REMARK INTER + INTRA:         -10.037
REMARK INTER:                  -8.690
REMARK INTRA:                  -1.347
REMARK UNBOUND:                -1.469
REMARK  6 active torsions:
REMARK  status: ('A' for Active; 'I' for Inactive)
REMARK    1  A    between atoms: O_1  and  C_2 
REMARK    2  A    between atoms: C_2  and  C_4 
REMARK    3  A    between atoms: C_6  and  C_7 
REMARK    4  A    between atoms: N_13  and  C_14 
REMARK    5  A    between atoms: C_21  and  O_22 
REMARK    6  A    between atoms: C_25  and  O_26 
ROOT
HETATM    1  C   UNL     1       0.022   9.000  24.411  0.00  0.00     0.073 C 
HETATM    2  C   UNL     1      -0.488   9.884  23.443  0.00  0.00     0.039 C 
HETATM    3  C   UNL     1      -1.470  10.837  23.758  0.00  0.00     0.048 C 
HETATM    4  C   UNL     1      -1.990  10.842  25.060  0.00  0.00     0.100 C 
HETATM    5  C   UNL     1      -1.392  10.067  26.063  0.00  0.00     0.079 C 
HETATM    6 BR   UNL     1      -1.960  10.222  27.876  0.00  0.00    -0.045 Br
HETATM    7  C   UNL     1      -0.393   9.144  25.738  0.00  0.00     0.102 C 
ENDROOT
BRANCH   3   8
HETATM    8  C   UNL     1      -1.949  11.704  22.647  0.00  0.00     0.172 A 
HETATM    9  N   UNL     1      -2.705  11.217  21.695  0.00  0.00    -0.151 NA
HETATM   10  N   UNL     1      -3.038  12.296  20.930  0.00  0.00    -0.226 N 
HETATM   11  H   UNL     1      -3.593  12.221  20.087  0.00  0.00     0.194 HD
HETATM   12  C   UNL     1      -2.472  13.459  21.432  0.00  0.00     0.349 A 
HETATM   13  O   UNL     1      -2.594  14.572  20.946  0.00  0.00    -0.245 OA
HETATM   14  N   UNL     1      -1.747  13.059  22.540  0.00  0.00    -0.241 N 
BRANCH  14  15
HETATM   15  C   UNL     1      -0.902  13.927  23.253  0.00  0.00     0.084 A 
HETATM   16  C   UNL     1      -1.430  14.669  24.320  0.00  0.00     0.033 A 
HETATM   17  C   UNL     1      -0.583  15.401  25.154  0.00  0.00     0.002 A 
HETATM   18  C   UNL     1       0.786  15.454  24.892  0.00  0.00     0.003 A 
HETATM   19  C   UNL     1       1.309  14.781  23.788  0.00  0.00     0.044 A 
HETATM   20  C   UNL     1       0.468  14.015  22.984  0.00  0.00     0.143 A 
HETATM   21  F   UNL     1       0.993  13.371  21.932  0.00  0.00    -0.204 F 
ENDBRANCH  14  15
ENDBRANCH   3   8
BRANCH   4  22
HETATM   22  O   UNL     1      -3.138  11.508  25.398  0.00  0.00    -0.358 OA
HETATM   23  H   UNL     1      -3.566  11.854  24.595  0.00  0.00     0.217 HD
ENDBRANCH   4  22
BRANCH   1  24
HETATM   24  C   UNL     1       0.946   7.928  23.945  0.00  0.00     0.179 C 
HETATM   25  O   UNL     1       2.155   7.998  24.100  0.00  0.00    -0.646 OA
BRANCH  24  26
HETATM   26  O   UNL     1       0.368   6.901  23.286  0.00  0.00    -0.773 OA
HETATM   27  H   UNL     1       0.862   6.058  23.384  0.00  0.00     0.167 HD
ENDBRANCH  24  26
ENDBRANCH   1  24
BRANCH   7  28
HETATM   28  O   UNL     1       0.156   8.343  26.713  0.00  0.00    -0.358 OA
HETATM   29  H   UNL     1      -0.585   7.976  27.241  0.00  0.00     0.217 HD
ENDBRANCH   7  28
TORSDOF 6
ENDMDL
MODEL 8
REMARK VINA RESULT:    -6.714      3.003      4.542
REMARK INTER + INTRA:          -9.950
REMARK INTER:                  -8.513
REMARK INTRA:                  -1.437
REMARK UNBOUND:                -1.469
REMARK  6 active torsions:
REMARK  status: ('A' for Active; 'I' for Inactive)
REMARK    1  A    between atoms: O_1  and  C_2 
REMARK    2  A    between atoms: C_2  and  C_4 
REMARK    3  A    between atoms: C_6  and  C_7 
REMARK    4  A    between atoms: N_13  and  C_14 
REMARK    5  A    between atoms: C_21  and  O_22 
REMARK    6  A    between atoms: C_25  and  O_26 
ROOT
HETATM    1  C   UNL     1       0.195  15.005  24.871  0.00  0.00     0.073 C 
HETATM    2  C   UNL     1      -0.859  14.995  23.938  0.00  0.00     0.039 C 
HETATM    3  C   UNL     1      -0.621  14.898  22.558  0.00  0.00     0.048 C 
HETATM    4  C   UNL     1       0.709  14.883  22.117  0.00  0.00     0.100 C 
HETATM    5  C   UNL     1       1.758  14.750  23.038  0.00  0.00     0.079 C 
HETATM    6 BR   UNL     1       3.552  14.525  22.437  0.00  0.00    -0.045 Br
HETATM    7  C   UNL     1       1.502  14.818  24.411  0.00  0.00     0.102 C 
ENDROOT
BRANCH   3   8
HETATM    8  C   UNL     1      -1.814  14.916  21.666  0.00  0.00     0.172 A 
HETATM    9  N   UNL     1      -1.919  15.802  20.708  0.00  0.00    -0.151 NA
HETATM   10  N   UNL     1      -3.056  15.456  20.038  0.00  0.00    -0.226 N 
HETATM   11  H   UNL     1      -3.420  15.990  19.260  0.00  0.00     0.194 HD
HETATM   12  C   UNL     1      -3.649  14.337  20.606  0.00  0.00     0.349 A 
HETATM   13  O   UNL     1      -4.680  13.810  20.219  0.00  0.00    -0.245 OA
HETATM   14  N   UNL     1      -2.841  14.004  21.678  0.00  0.00    -0.241 N 
BRANCH  14  15
HETATM   15  C   UNL     1      -3.178  13.004  22.606  0.00  0.00     0.084 A 
HETATM   16  C   UNL     1      -2.659  11.712  22.432  0.00  0.00     0.033 A 
HETATM   17  C   UNL     1      -2.830  10.746  23.427  0.00  0.00     0.002 A 
HETATM   18  C   UNL     1      -3.576  11.040  24.569  0.00  0.00     0.003 A 
HETATM   19  C   UNL     1      -4.160  12.298  24.713  0.00  0.00     0.044 A 
HETATM   20  C   UNL     1      -3.949  13.273  23.740  0.00  0.00     0.143 A 
HETATM   21  F   UNL     1      -4.515  14.478  23.904  0.00  0.00    -0.204 F 
ENDBRANCH  14  15
ENDBRANCH   3   8
BRANCH   4  22
HETATM   22  O   UNL     1       1.060  15.090  20.810  0.00  0.00    -0.358 OA
HETATM   23  H   UNL     1       0.865  16.009  20.558  0.00  0.00     0.217 HD
ENDBRANCH   4  22
BRANCH   1  24
HETATM   24  C   UNL     1      -0.151  15.265  26.296  0.00  0.00     0.179 C 
HETATM   25  O   UNL     1      -1.194  14.870  26.795  0.00  0.00    -0.646 OA
BRANCH  24  26
HETATM   26  O   UNL     1       0.732  16.017  26.987  0.00  0.00    -0.773 OA
HETATM   27  H   UNL     1       0.973  15.623  27.854  0.00  0.00     0.167 HD
ENDBRANCH  24  26
ENDBRANCH   1  24
BRANCH   7  28
HETATM   28  O   UNL     1       2.536  14.744  25.315  0.00  0.00    -0.358 OA
HETATM   29  H   UNL     1       2.540  13.834  25.680  0.00  0.00     0.217 HD
ENDBRANCH   7  28
TORSDOF 6
ENDMDL
MODEL 9
REMARK VINA RESULT:    -6.705      3.572      4.585
REMARK INTER + INTRA:          -9.938
REMARK INTER:                  -8.469
REMARK INTRA:                  -1.469
REMARK UNBOUND:                -1.469
REMARK  6 active torsions:
REMARK  status: ('A' for Active; 'I' for Inactive)
REMARK    1  A    between atoms: O_1  and  C_2 
REMARK    2  A    between atoms: C_2  and  C_4 
REMARK    3  A    between atoms: C_6  and  C_7 
REMARK    4  A    between atoms: N_13  and  C_14 
REMARK    5  A    between atoms: C_21  and  O_22 
REMARK    6  A    between atoms: C_25  and  O_26 
ROOT
HETATM    1  C   UNL     1      -1.060   9.630  26.755  0.00  0.00     0.073 C 
HETATM    2  C   UNL     1      -1.947  10.476  26.063  0.00  0.00     0.039 C 
HETATM    3  C   UNL     1      -1.836  10.687  24.679  0.00  0.00     0.048 C 
HETATM    4  C   UNL     1      -0.766  10.084  24.004  0.00  0.00     0.100 C 
HETATM    5  C   UNL     1       0.033   9.132  24.652  0.00  0.00     0.079 C 
HETATM    6 BR   UNL     1       1.357   8.159  23.686  0.00  0.00    -0.045 Br
HETATM    7  C   UNL     1      -0.110   8.910  26.025  0.00  0.00     0.102 C 
ENDROOT
BRANCH   3   8
HETATM    8  C   UNL     1      -2.818  11.619  24.059  0.00  0.00     0.172 A 
HETATM    9  N   UNL     1      -3.923  11.167  23.522  0.00  0.00    -0.151 NA
HETATM   10  N   UNL     1      -4.617  12.286  23.164  0.00  0.00    -0.226 N 
HETATM   11  H   UNL     1      -5.506  12.250  22.683  0.00  0.00     0.194 HD
HETATM   12  C   UNL     1      -3.914  13.436  23.492  0.00  0.00     0.349 A 
HETATM   13  O   UNL     1      -4.289  14.579  23.280  0.00  0.00    -0.245 OA
HETATM   14  N   UNL     1      -2.734  12.990  24.057  0.00  0.00    -0.241 N 
BRANCH  14  15
HETATM   15  C   UNL     1      -1.676  13.852  24.395  0.00  0.00     0.084 A 
HETATM   16  C   UNL     1      -1.662  14.447  25.666  0.00  0.00     0.033 A 
HETATM   17  C   UNL     1      -0.542  15.163  26.094  0.00  0.00     0.002 A 
HETATM   18  C   UNL     1       0.542  15.349  25.236  0.00  0.00     0.003 A 
HETATM   19  C   UNL     1       0.504  14.826  23.945  0.00  0.00     0.044 A 
HETATM   20  C   UNL     1      -0.595  14.073  23.536  0.00  0.00     0.143 A 
HETATM   21  F   UNL     1      -0.607  13.574  22.292  0.00  0.00    -0.204 F 
ENDBRANCH  14  15
ENDBRANCH   3   8
BRANCH   4  22
HETATM   22  O   UNL     1      -0.387  10.449  22.740  0.00  0.00    -0.358 OA
HETATM   23  H   UNL     1      -0.954  11.173  22.422  0.00  0.00     0.217 HD
ENDBRANCH   4  22
BRANCH   1  24
HETATM   24  C   UNL     1      -1.166   9.592  28.240  0.00  0.00     0.179 C 
HETATM   25  O   UNL     1      -0.452   8.876  28.926  0.00  0.00    -0.646 OA
BRANCH  24  26
HETATM   26  O   UNL     1      -2.140  10.354  28.779  0.00  0.00    -0.773 OA
HETATM   27  H   UNL     1      -2.406  11.102  28.200  0.00  0.00     0.167 HD
ENDBRANCH  24  26
ENDBRANCH   1  24
BRANCH   7  28
HETATM   28  O   UNL     1       0.711   8.017  26.673  0.00  0.00    -0.358 OA
HETATM   29  H   UNL     1       0.800   8.323  27.602  0.00  0.00     0.217 HD
ENDBRANCH   7  28
TORSDOF 6
ENDMDL
