MODEL 1
REMARK VINA RESULT:   -11.367      0.000      0.000
REMARK INTER + INTRA:         -14.202
REMARK INTER:                 -13.011
REMARK INTRA:                  -1.190
REMARK UNBOUND:                -0.842
REMARK  3 active torsions:
REMARK  status: ('A' for Active; 'I' for Inactive)
REMARK    1  A    between atoms: C_10  and  C_11 
REMARK       I    between atoms: C_11  and  N_13 
REMARK    2  A    between atoms: N_13  and  C_14 
REMARK    3  A    between atoms: C_23  and  C_27 
ROOT
HETATM    1  C   UNL     1       6.876  13.000  23.351  0.00  0.00     0.153 C 
HETATM    2  C   UNL     1       6.146  11.700  23.083  0.00  0.00    -0.020 A 
HETATM    3  C   UNL     1       4.760  11.877  23.322  0.00  0.00    -0.016 A 
HETATM    4  C   UNL     1       6.696  10.456  22.792  0.00  0.00     0.010 A 
HETATM    5  C   UNL     1       5.851   9.345  22.771  0.00  0.00     0.001 A 
HETATM    6  C   UNL     1       4.495   9.490  23.076  0.00  0.00     0.001 A 
HETATM    7  C   UNL     1       3.956  10.751  23.357  0.00  0.00     0.013 A 
HETATM    8  C   UNL     1       5.726  13.995  23.383  0.00  0.00    -0.019 A 
HETATM    9  C   UNL     1       4.473  13.310  23.499  0.00  0.00    -0.003 A 
HETATM   10  C   UNL     1       3.297  14.049  23.737  0.00  0.00     0.022 A 
HETATM   11  C   UNL     1       3.431  15.455  23.829  0.00  0.00     0.016 A 
HETATM   12  C   UNL     1       4.666  16.107  23.666  0.00  0.00     0.002 A 
HETATM   13  C   UNL     1       5.827  15.378  23.443  0.00  0.00     0.010 A 
ENDROOT
BRANCH   1  14
HETATM   14  N   UNL     1       7.978  13.285  22.460  0.00  0.00    -0.344 N 
HETATM   15  C   UNL     1       9.152  13.825  22.964  0.00  0.00     0.253 C 
HETATM   16  O   UNL     1       9.244  14.265  24.105  0.00  0.00    -0.268 OA
HETATM   17  H   UNL     1       7.876  13.062  21.480  0.00  0.00     0.163 HD
BRANCH  15  18
HETATM   18  C   UNL     1      10.344  13.827  22.078  0.00  0.00     0.047 A 
HETATM   19  C   UNL     1      10.939  12.612  21.666  0.00  0.00     0.027 A 
HETATM   20  C   UNL     1      10.742  11.218  21.897  0.00  0.00     0.033 A 
HETATM   21  C   UNL     1      12.012  12.706  20.782  0.00  0.00     0.138 A 
HETATM   22  C   UNL     1      11.686  10.523  21.175  0.00  0.00     0.090 A 
HETATM   23  N   UNL     1      12.452  11.440  20.509  0.00  0.00    -0.350 N 
HETATM   24  H   UNL     1      13.222  11.241  19.882  0.00  0.00     0.166 HD
HETATM   25  N   UNL     1      12.551  13.820  20.261  0.00  0.00    -0.242 NA
HETATM   26  C   UNL     1      11.924  14.948  20.660  0.00  0.00     0.120 A 
HETATM   27  C   UNL     1      10.851  15.015  21.536  0.00  0.00     0.037 A 
ENDBRANCH  15  18
ENDBRANCH   1  14
BRANCH  10  28
HETATM   28  C   UNL     1       1.953  13.461  23.885  0.00  0.00     0.140 A 
HETATM   29  N   UNL     1       1.076  13.238  22.835  0.00  0.00    -0.338 N 
HETATM   30  H   UNL     1       1.259  13.452  21.866  0.00  0.00     0.167 HD
HETATM   31  C   UNL     1      -0.109  12.746  23.333  0.00  0.00     0.063 A 
HETATM   32  C   UNL     1       0.111  12.677  24.702  0.00  0.00     0.088 A 
HETATM   33  C   UNL     1      -1.320  12.380  22.736  0.00  0.00     0.035 A 
HETATM   34  N   UNL     1       1.394  13.045  25.004  0.00  0.00    -0.228 NA
HETATM   35  C   UNL     1      -0.923  12.284  25.557  0.00  0.00     0.076 A 
HETATM   36  C   UNL     1      -2.144  11.938  24.983  0.00  0.00     0.118 A 
HETATM   37  F   UNL     1      -3.156  11.566  25.779  0.00  0.00    -0.206 F 
HETATM   38  C   UNL     1      -2.343  11.969  23.604  0.00  0.00     0.044 A 
ENDBRANCH  10  28
TORSDOF 3
ENDMDL
MODEL 2
REMARK VINA RESULT:   -11.312      0.964      1.777
REMARK INTER + INTRA:         -14.138
REMARK INTER:                 -13.139
REMARK INTRA:                  -0.999
REMARK UNBOUND:                -0.842
REMARK  3 active torsions:
REMARK  status: ('A' for Active; 'I' for Inactive)
REMARK    1  A    between atoms: C_10  and  C_11 
REMARK       I    between atoms: C_11  and  N_13 
REMARK    2  A    between atoms: N_13  and  C_14 
REMARK    3  A    between atoms: C_23  and  C_27 
ROOT
HETATM    1  C   UNL     1       6.734  12.944  23.414  0.00  0.00     0.153 C 
HETATM    2  C   UNL     1       5.949  11.665  23.204  0.00  0.00    -0.020 A 
HETATM    3  C   UNL     1       4.575  11.905  23.455  0.00  0.00    -0.016 A 
HETATM    4  C   UNL     1       6.447  10.391  22.952  0.00  0.00     0.010 A 
HETATM    5  C   UNL     1       5.559   9.314  22.984  0.00  0.00     0.001 A 
HETATM    6  C   UNL     1       4.214   9.524  23.301  0.00  0.00     0.001 A 
HETATM    7  C   UNL     1       3.728  10.814  23.541  0.00  0.00     0.013 A 
HETATM    8  C   UNL     1       5.624  13.984  23.424  0.00  0.00    -0.019 A 
HETATM    9  C   UNL     1       4.347  13.354  23.582  0.00  0.00    -0.003 A 
HETATM   10  C   UNL     1       3.204  14.147  23.808  0.00  0.00     0.022 A 
HETATM   11  C   UNL     1       3.394  15.549  23.846  0.00  0.00     0.016 A 
HETATM   12  C   UNL     1       4.651  16.145  23.643  0.00  0.00     0.002 A 
HETATM   13  C   UNL     1       5.779  15.363  23.432  0.00  0.00     0.010 A 
ENDROOT
BRANCH   1  14
HETATM   14  N   UNL     1       7.833  13.153  22.499  0.00  0.00    -0.344 N 
HETATM   15  C   UNL     1       9.129  12.864  22.899  0.00  0.00     0.253 C 
HETATM   16  O   UNL     1       9.426  12.626  24.064  0.00  0.00    -0.268 OA
HETATM   17  H   UNL     1       7.629  13.488  21.568  0.00  0.00     0.163 HD
BRANCH  15  18
HETATM   18  C   UNL     1      10.178  12.813  21.849  0.00  0.00     0.047 A 
HETATM   19  C   UNL     1      11.437  13.424  22.056  0.00  0.00     0.027 A 
HETATM   20  C   UNL     1      12.070  14.198  23.075  0.00  0.00     0.033 A 
HETATM   21  C   UNL     1      12.384  13.270  21.047  0.00  0.00     0.138 A 
HETATM   22  C   UNL     1      13.348  14.495  22.658  0.00  0.00     0.090 A 
HETATM   23  N   UNL     1      13.521  13.930  21.424  0.00  0.00    -0.350 N 
HETATM   24  H   UNL     1      14.362  13.959  20.860  0.00  0.00     0.166 HD
HETATM   25  N   UNL     1      12.251  12.598  19.892  0.00  0.00    -0.242 NA
HETATM   26  C   UNL     1      11.044  12.007  19.760  0.00  0.00     0.120 A 
HETATM   27  C   UNL     1      10.002  12.073  20.673  0.00  0.00     0.037 A 
ENDBRANCH  15  18
ENDBRANCH   1  14
BRANCH  10  28
HETATM   28  C   UNL     1       1.840  13.618  23.995  0.00  0.00     0.140 A 
HETATM   29  N   UNL     1       1.270  13.340  25.226  0.00  0.00    -0.338 N 
HETATM   30  H   UNL     1       1.721  13.465  26.120  0.00  0.00     0.167 HD
HETATM   31  C   UNL     1       0.020  12.798  25.033  0.00  0.00     0.063 A 
HETATM   32  C   UNL     1      -0.125  12.784  23.652  0.00  0.00     0.088 A 
HETATM   33  C   UNL     1      -0.963  12.321  25.907  0.00  0.00     0.035 A 
HETATM   34  N   UNL     1       0.962  13.356  23.048  0.00  0.00    -0.228 NA
HETATM   35  C   UNL     1      -1.266  12.220  23.075  0.00  0.00     0.076 A 
HETATM   36  C   UNL     1      -2.246  11.718  23.928  0.00  0.00     0.118 A 
HETATM   37  F   UNL     1      -3.346  11.164  23.402  0.00  0.00    -0.206 F 
HETATM   38  C   UNL     1      -2.112  11.776  25.315  0.00  0.00     0.044 A 
ENDBRANCH  10  28
TORSDOF 3
ENDMDL
MODEL 3
REMARK VINA RESULT:   -11.253      3.565     10.046
REMARK INTER + INTRA:         -14.069
REMARK INTER:                 -13.196
REMARK INTRA:                  -0.873
REMARK UNBOUND:                -0.842
REMARK  3 active torsions:
REMARK  status: ('A' for Active; 'I' for Inactive)
REMARK    1  A    between atoms: C_10  and  C_11 
REMARK       I    between atoms: C_11  and  N_13 
REMARK    2  A    between atoms: N_13  and  C_14 
REMARK    3  A    between atoms: C_23  and  C_27 
ROOT
HETATM    1  C   UNL     1       3.257  12.119  23.881  0.00  0.00     0.153 C 
HETATM    2  C   UNL     1       3.623  13.574  23.669  0.00  0.00    -0.020 A 
HETATM    3  C   UNL     1       4.954  13.663  23.190  0.00  0.00    -0.016 A 
HETATM    4  C   UNL     1       2.879  14.700  24.008  0.00  0.00     0.010 A 
HETATM    5  C   UNL     1       3.486  15.952  23.903  0.00  0.00     0.001 A 
HETATM    6  C   UNL     1       4.821  16.053  23.502  0.00  0.00     0.001 A 
HETATM    7  C   UNL     1       5.552  14.911  23.154  0.00  0.00     0.013 A 
HETATM    8  C   UNL     1       4.363  11.411  23.114  0.00  0.00    -0.019 A 
HETATM    9  C   UNL     1       5.433  12.320  22.824  0.00  0.00    -0.003 A 
HETATM   10  C   UNL     1       6.639  11.825  22.289  0.00  0.00     0.022 A 
HETATM   11  C   UNL     1       6.710  10.431  22.050  0.00  0.00     0.016 A 
HETATM   12  C   UNL     1       5.629   9.567  22.302  0.00  0.00     0.002 A 
HETATM   13  C   UNL     1       4.445  10.054  22.839  0.00  0.00     0.010 A 
ENDROOT
BRANCH   1  14
HETATM   14  N   UNL     1       1.893  11.771  23.553  0.00  0.00    -0.344 N 
HETATM   15  C   UNL     1       0.879  12.018  24.466  0.00  0.00     0.253 C 
HETATM   16  O   UNL     1       1.097  12.336  25.630  0.00  0.00    -0.268 OA
HETATM   17  H   UNL     1       1.701  11.371  22.646  0.00  0.00     0.163 HD
BRANCH  15  18
HETATM   18  C   UNL     1      -0.522  11.920  23.983  0.00  0.00     0.047 A 
HETATM   19  C   UNL     1      -0.894  12.466  22.732  0.00  0.00     0.027 A 
HETATM   20  C   UNL     1      -0.266  13.202  21.683  0.00  0.00     0.033 A 
HETATM   21  C   UNL     1      -2.212  12.270  22.328  0.00  0.00     0.138 A 
HETATM   22  C   UNL     1      -1.203  13.438  20.702  0.00  0.00     0.090 A 
HETATM   23  N   UNL     1      -2.379  12.871  21.110  0.00  0.00    -0.350 N 
HETATM   24  H   UNL     1      -3.253  12.861  20.599  0.00  0.00     0.166 HD
HETATM   25  N   UNL     1      -3.182  11.612  22.981  0.00  0.00    -0.242 NA
HETATM   26  C   UNL     1      -2.765  11.082  24.152  0.00  0.00     0.120 A 
HETATM   27  C   UNL     1      -1.492  11.196  24.688  0.00  0.00     0.037 A 
ENDBRANCH  15  18
ENDBRANCH   1  14
BRANCH  10  28
HETATM   28  C   UNL     1       7.812  12.654  21.957  0.00  0.00     0.140 A 
HETATM   29  N   UNL     1       8.958  12.736  22.731  0.00  0.00    -0.338 N 
HETATM   30  H   UNL     1       9.112  12.244  23.599  0.00  0.00     0.167 HD
HETATM   31  C   UNL     1       9.820  13.649  22.168  0.00  0.00     0.063 A 
HETATM   32  C   UNL     1       9.146  14.084  21.035  0.00  0.00     0.088 A 
HETATM   33  C   UNL     1      11.080  14.131  22.538  0.00  0.00     0.035 A 
HETATM   34  N   UNL     1       7.963  13.411  20.889  0.00  0.00    -0.228 NA
HETATM   35  C   UNL     1       9.697  15.092  20.238  0.00  0.00     0.076 A 
HETATM   36  C   UNL     1      10.941  15.601  20.603  0.00  0.00     0.118 A 
HETATM   37  F   UNL     1      11.489  16.574  19.863  0.00  0.00    -0.206 F 
HETATM   38  C   UNL     1      11.630  15.128  21.718  0.00  0.00     0.044 A 
ENDBRANCH  10  28
TORSDOF 3
ENDMDL
MODEL 4
REMARK VINA RESULT:   -11.204      3.631     10.229
REMARK INTER + INTRA:         -14.010
REMARK INTER:                 -13.390
REMARK INTRA:                  -0.620
REMARK UNBOUND:                -0.842
REMARK  3 active torsions:
REMARK  status: ('A' for Active; 'I' for Inactive)
REMARK    1  A    between atoms: C_10  and  C_11 
REMARK       I    between atoms: C_11  and  N_13 
REMARK    2  A    between atoms: N_13  and  C_14 
REMARK    3  A    between atoms: C_23  and  C_27 
ROOT
HETATM    1  C   UNL     1       3.778  12.261  23.351  0.00  0.00     0.153 C 
HETATM    2  C   UNL     1       4.298  13.681  23.262  0.00  0.00    -0.020 A 
HETATM    3  C   UNL     1       5.679  13.661  22.939  0.00  0.00    -0.016 A 
HETATM    4  C   UNL     1       3.627  14.858  23.579  0.00  0.00     0.010 A 
HETATM    5  C   UNL     1       4.354  16.049  23.611  0.00  0.00     0.001 A 
HETATM    6  C   UNL     1       5.731  16.036  23.367  0.00  0.00     0.001 A 
HETATM    7  C   UNL     1       6.388  14.845  23.040  0.00  0.00     0.013 A 
HETATM    8  C   UNL     1       4.896  11.484  22.673  0.00  0.00    -0.019 A 
HETATM    9  C   UNL     1       6.071  12.296  22.554  0.00  0.00    -0.003 A 
HETATM   10  C   UNL     1       7.280  11.710  22.130  0.00  0.00     0.022 A 
HETATM   11  C   UNL     1       7.250  10.328  21.823  0.00  0.00     0.016 A 
HETATM   12  C   UNL     1       6.072   9.563  21.906  0.00  0.00     0.002 A 
HETATM   13  C   UNL     1       4.884  10.139  22.334  0.00  0.00     0.010 A 
ENDROOT
BRANCH   1  14
HETATM   14  N   UNL     1       2.435  12.064  22.854  0.00  0.00    -0.344 N 
HETATM   15  C   UNL     1       1.349  12.437  23.633  0.00  0.00     0.253 C 
HETATM   16  O   UNL     1       1.455  12.748  24.814  0.00  0.00    -0.268 OA
HETATM   17  H   UNL     1       2.314  11.673  21.931  0.00  0.00     0.163 HD
BRANCH  15  18
HETATM   18  C   UNL     1       0.017  12.489  22.977  0.00  0.00     0.047 A 
HETATM   19  C   UNL     1      -1.131  11.990  23.635  0.00  0.00     0.027 A 
HETATM   20  C   UNL     1      -1.431  11.341  24.870  0.00  0.00     0.033 A 
HETATM   21  C   UNL     1      -2.348  12.139  22.975  0.00  0.00     0.138 A 
HETATM   22  C   UNL     1      -2.787  11.109  24.917  0.00  0.00     0.090 A 
HETATM   23  N   UNL     1      -3.328  11.594  23.758  0.00  0.00    -0.350 N 
HETATM   24  H   UNL     1      -4.307  11.586  23.500  0.00  0.00     0.166 HD
HETATM   25  N   UNL     1      -2.570  12.713  21.782  0.00  0.00    -0.242 NA
HETATM   26  C   UNL     1      -1.446  13.203  21.213  0.00  0.00     0.120 A 
HETATM   27  C   UNL     1      -0.167  13.126  21.743  0.00  0.00     0.037 A 
ENDBRANCH  15  18
ENDBRANCH   1  14
BRANCH  10  28
HETATM   28  C   UNL     1       8.555  12.434  21.977  0.00  0.00     0.140 A 
HETATM   29  N   UNL     1       8.815  13.360  20.980  0.00  0.00    -0.338 N 
HETATM   30  H   UNL     1       8.167  13.635  20.255  0.00  0.00     0.167 HD
HETATM   31  C   UNL     1      10.118  13.789  21.089  0.00  0.00     0.063 A 
HETATM   32  C   UNL     1      10.602  13.095  22.190  0.00  0.00     0.088 A 
HETATM   33  C   UNL     1      10.899  14.679  20.345  0.00  0.00     0.035 A 
HETATM   34  N   UNL     1       9.614  12.337  22.756  0.00  0.00    -0.228 NA
HETATM   35  C   UNL     1      11.944  13.225  22.562  0.00  0.00     0.076 A 
HETATM   36  C   UNL     1      12.743  14.089  21.819  0.00  0.00     0.118 A 
HETATM   37  F   UNL     1      14.035  14.226  22.149  0.00  0.00    -0.206 F 
HETATM   38  C   UNL     1      12.237  14.815  20.742  0.00  0.00     0.044 A 
ENDBRANCH  10  28
TORSDOF 3
ENDMDL
MODEL 5
REMARK VINA RESULT:   -10.984      3.831      9.665
REMARK INTER + INTRA:         -13.752
REMARK INTER:                 -12.622
REMARK INTRA:                  -1.130
REMARK UNBOUND:                -0.842
REMARK  3 active torsions:
REMARK  status: ('A' for Active; 'I' for Inactive)
REMARK    1  A    between atoms: C_10  and  C_11 
REMARK       I    between atoms: C_11  and  N_13 
REMARK    2  A    between atoms: N_13  and  C_14 
REMARK    3  A    between atoms: C_23  and  C_27 
ROOT
HETATM    1  C   UNL     1       3.184  12.476  23.221  0.00  0.00     0.153 C 
HETATM    2  C   UNL     1       4.294  11.475  22.976  0.00  0.00    -0.020 A 
HETATM    3  C   UNL     1       5.498  12.163  22.681  0.00  0.00    -0.016 A 
HETATM    4  C   UNL     1       4.190  10.090  22.892  0.00  0.00     0.010 A 
HETATM    5  C   UNL     1       5.305   9.366  22.466  0.00  0.00     0.001 A 
HETATM    6  C   UNL     1       6.478  10.034  22.101  0.00  0.00     0.001 A 
HETATM    7  C   UNL     1       6.568  11.427  22.203  0.00  0.00     0.013 A 
HETATM    8  C   UNL     1       3.972  13.763  23.412  0.00  0.00    -0.019 A 
HETATM    9  C   UNL     1       5.322  13.597  22.960  0.00  0.00    -0.003 A 
HETATM   10  C   UNL     1       6.167  14.720  22.870  0.00  0.00     0.022 A 
HETATM   11  C   UNL     1       5.621  15.967  23.260  0.00  0.00     0.016 A 
HETATM   12  C   UNL     1       4.306  16.096  23.742  0.00  0.00     0.002 A 
HETATM   13  C   UNL     1       3.470  14.991  23.820  0.00  0.00     0.010 A 
ENDROOT
BRANCH   1  14
HETATM   14  N   UNL     1       2.241  12.114  24.254  0.00  0.00    -0.344 N 
HETATM   15  C   UNL     1       0.880  12.169  23.997  0.00  0.00     0.253 C 
HETATM   16  O   UNL     1       0.415  12.703  22.995  0.00  0.00    -0.268 OA
HETATM   17  H   UNL     1       2.598  11.804  25.146  0.00  0.00     0.163 HD
BRANCH  15  18
HETATM   18  C   UNL     1      -0.032  11.518  24.972  0.00  0.00     0.047 A 
HETATM   19  C   UNL     1       0.065  10.133  25.237  0.00  0.00     0.027 A 
HETATM   20  C   UNL     1       0.842   9.029  24.772  0.00  0.00     0.033 A 
HETATM   21  C   UNL     1      -0.784   9.618  26.213  0.00  0.00     0.138 A 
HETATM   22  C   UNL     1       0.443   7.902  25.454  0.00  0.00     0.090 A 
HETATM   23  N   UNL     1      -0.548   8.275  26.320  0.00  0.00    -0.350 N 
HETATM   24  H   UNL     1      -1.037   7.674  26.972  0.00  0.00     0.166 HD
HETATM   25  N   UNL     1      -1.688  10.285  26.949  0.00  0.00    -0.242 NA
HETATM   26  C   UNL     1      -1.716  11.609  26.680  0.00  0.00     0.120 A 
HETATM   27  C   UNL     1      -0.939  12.263  25.736  0.00  0.00     0.037 A 
ENDBRANCH  15  18
ENDBRANCH   1  14
BRANCH  10  28
HETATM   28  C   UNL     1       7.569  14.681  22.413  0.00  0.00     0.140 A 
HETATM   29  N   UNL     1       8.598  14.053  23.095  0.00  0.00    -0.338 N 
HETATM   30  H   UNL     1       8.502  13.561  23.972  0.00  0.00     0.167 HD
HETATM   31  C   UNL     1       9.781  14.270  22.428  0.00  0.00     0.063 A 
HETATM   32  C   UNL     1       9.406  15.030  21.328  0.00  0.00     0.088 A 
HETATM   33  C   UNL     1      11.106  13.896  22.680  0.00  0.00     0.035 A 
HETATM   34  N   UNL     1       8.049  15.203  21.302  0.00  0.00    -0.228 NA
HETATM   35  C   UNL     1      10.379  15.511  20.447  0.00  0.00     0.076 A 
HETATM   36  C   UNL     1      11.706  15.169  20.694  0.00  0.00     0.118 A 
HETATM   37  F   UNL     1      12.660  15.623  19.870  0.00  0.00    -0.206 F 
HETATM   38  C   UNL     1      12.069  14.368  21.776  0.00  0.00     0.044 A 
ENDBRANCH  10  28
TORSDOF 3
ENDMDL
MODEL 6
REMARK VINA RESULT:   -10.649      4.207      9.813
REMARK INTER + INTRA:         -13.358
REMARK INTER:                 -12.504
REMARK INTRA:                  -0.854
REMARK UNBOUND:                -0.842
REMARK  3 active torsions:
REMARK  status: ('A' for Active; 'I' for Inactive)
REMARK    1  A    between atoms: C_10  and  C_11 
REMARK       I    between atoms: C_11  and  N_13 
REMARK    2  A    between atoms: N_13  and  C_14 
REMARK    3  A    between atoms: C_23  and  C_27 
ROOT
HETATM    1  C   UNL     1       3.396  13.310  23.151  0.00  0.00     0.153 C 
HETATM    2  C   UNL     1       4.449  12.348  22.639  0.00  0.00    -0.020 A 
HETATM    3  C   UNL     1       5.697  12.644  23.244  0.00  0.00    -0.016 A 
HETATM    4  C   UNL     1       4.321  11.399  21.630  0.00  0.00     0.010 A 
HETATM    5  C   UNL     1       5.471  10.749  21.180  0.00  0.00     0.001 A 
HETATM    6  C   UNL     1       6.719  11.082  21.715  0.00  0.00     0.001 A 
HETATM    7  C   UNL     1       6.829  12.031  22.738  0.00  0.00     0.013 A 
HETATM    8  C   UNL     1       4.091  13.902  24.368  0.00  0.00    -0.019 A 
HETATM    9  C   UNL     1       5.493  13.606  24.339  0.00  0.00    -0.003 A 
HETATM   10  C   UNL     1       6.351  14.223  25.271  0.00  0.00     0.022 A 
HETATM   11  C   UNL     1       5.756  15.100  26.209  0.00  0.00     0.016 A 
HETATM   12  C   UNL     1       4.370  15.339  26.244  0.00  0.00     0.002 A 
HETATM   13  C   UNL     1       3.526  14.740  25.319  0.00  0.00     0.010 A 
ENDROOT
BRANCH   1  14
HETATM   14  N   UNL     1       2.082  12.740  23.346  0.00  0.00    -0.344 N 
HETATM   15  C   UNL     1       0.962  13.555  23.291  0.00  0.00     0.253 C 
HETATM   16  O   UNL     1       1.031  14.780  23.282  0.00  0.00    -0.268 OA
HETATM   17  H   UNL     1       2.005  11.745  23.500  0.00  0.00     0.163 HD
BRANCH  15  18
HETATM   18  C   UNL     1      -0.366  12.895  23.204  0.00  0.00     0.047 A 
HETATM   19  C   UNL     1      -1.010  12.415  24.369  0.00  0.00     0.027 A 
HETATM   20  C   UNL     1      -0.724  12.330  25.764  0.00  0.00     0.033 A 
HETATM   21  C   UNL     1      -2.281  11.871  24.204  0.00  0.00     0.138 A 
HETATM   22  C   UNL     1      -1.798  11.737  26.389  0.00  0.00     0.090 A 
HETATM   23  N   UNL     1      -2.732  11.460  25.429  0.00  0.00    -0.350 N 
HETATM   24  H   UNL     1      -3.640  11.036  25.575  0.00  0.00     0.166 HD
HETATM   25  N   UNL     1      -2.982  11.751  23.066  0.00  0.00    -0.242 NA
HETATM   26  C   UNL     1      -2.336  12.255  21.991  0.00  0.00     0.120 A 
HETATM   27  C   UNL     1      -1.070  12.822  21.996  0.00  0.00     0.037 A 
ENDBRANCH  15  18
ENDBRANCH   1  14
BRANCH  10  28
HETATM   28  C   UNL     1       7.808  14.008  25.338  0.00  0.00     0.140 A 
HETATM   29  N   UNL     1       8.411  12.902  25.914  0.00  0.00    -0.338 N 
HETATM   30  H   UNL     1       7.924  12.131  26.347  0.00  0.00     0.167 HD
HETATM   31  C   UNL     1       9.778  13.056  25.866  0.00  0.00     0.063 A 
HETATM   32  C   UNL     1       9.951  14.279  25.232  0.00  0.00     0.088 A 
HETATM   33  C   UNL     1      10.846  12.273  26.316  0.00  0.00     0.035 A 
HETATM   34  N   UNL     1       8.743  14.801  24.855  0.00  0.00    -0.228 NA
HETATM   35  C   UNL     1      11.235  14.808  25.074  0.00  0.00     0.076 A 
HETATM   36  C   UNL     1      12.310  14.054  25.536  0.00  0.00     0.118 A 
HETATM   37  F   UNL     1      13.552  14.541  25.405  0.00  0.00    -0.206 F 
HETATM   38  C   UNL     1      12.131  12.807  26.133  0.00  0.00     0.044 A 
ENDBRANCH  10  28
TORSDOF 3
ENDMDL
MODEL 7
REMARK VINA RESULT:   -10.396      3.629      9.937
REMARK INTER + INTRA:         -13.061
REMARK INTER:                 -12.604
REMARK INTRA:                  -0.457
REMARK UNBOUND:                -0.842
REMARK  3 active torsions:
REMARK  status: ('A' for Active; 'I' for Inactive)
REMARK    1  A    between atoms: C_10  and  C_11 
REMARK       I    between atoms: C_11  and  N_13 
REMARK    2  A    between atoms: N_13  and  C_14 
REMARK    3  A    between atoms: C_23  and  C_27 
ROOT
HETATM    1  C   UNL     1       3.483  12.787  25.207  0.00  0.00     0.153 C 
HETATM    2  C   UNL     1       4.101  13.906  24.394  0.00  0.00    -0.020 A 
HETATM    3  C   UNL     1       5.322  13.462  23.827  0.00  0.00    -0.016 A 
HETATM    4  C   UNL     1       3.673  15.226  24.295  0.00  0.00     0.010 A 
HETATM    5  C   UNL     1       4.498  16.144  23.645  0.00  0.00     0.001 A 
HETATM    6  C   UNL     1       5.739  15.739  23.144  0.00  0.00     0.001 A 
HETATM    7  C   UNL     1       6.149  14.404  23.242  0.00  0.00     0.013 A 
HETATM    8  C   UNL     1       4.275  11.583  24.720  0.00  0.00    -0.019 A 
HETATM    9  C   UNL     1       5.444  12.007  24.008  0.00  0.00    -0.003 A 
HETATM   10  C   UNL     1       6.414  11.054  23.638  0.00  0.00     0.022 A 
HETATM   11  C   UNL     1       6.155   9.706  23.985  0.00  0.00     0.016 A 
HETATM   12  C   UNL     1       4.978   9.311  24.644  0.00  0.00     0.002 A 
HETATM   13  C   UNL     1       4.027  10.251  25.019  0.00  0.00     0.010 A 
ENDROOT
BRANCH   1  14
HETATM   14  N   UNL     1       2.041  12.703  25.147  0.00  0.00    -0.344 N 
HETATM   15  C   UNL     1       1.412  12.491  23.930  0.00  0.00     0.253 C 
HETATM   16  O   UNL     1       2.000  12.568  22.856  0.00  0.00    -0.268 OA
HETATM   17  H   UNL     1       1.517  12.780  26.007  0.00  0.00     0.163 HD
BRANCH  15  18
HETATM   18  C   UNL     1      -0.027  12.123  23.953  0.00  0.00     0.047 A 
HETATM   19  C   UNL     1      -0.872  12.446  22.867  0.00  0.00     0.027 A 
HETATM   20  C   UNL     1      -0.760  13.131  21.619  0.00  0.00     0.033 A 
HETATM   21  C   UNL     1      -2.191  12.004  22.943  0.00  0.00     0.138 A 
HETATM   22  C   UNL     1      -1.987  13.097  20.997  0.00  0.00     0.090 A 
HETATM   23  N   UNL     1      -2.845  12.416  21.815  0.00  0.00    -0.350 N 
HETATM   24  H   UNL     1      -3.820  12.210  21.629  0.00  0.00     0.166 HD
HETATM   25  N   UNL     1      -2.763  11.294  23.928  0.00  0.00    -0.242 NA
HETATM   26  C   UNL     1      -1.904  10.984  24.924  0.00  0.00     0.120 A 
HETATM   27  C   UNL     1      -0.570  11.355  24.992  0.00  0.00     0.037 A 
ENDBRANCH  15  18
ENDBRANCH   1  14
BRANCH  10  28
HETATM   28  C   UNL     1       7.661  11.364  22.914  0.00  0.00     0.140 A 
HETATM   29  N   UNL     1       7.738  11.591  21.549  0.00  0.00    -0.338 N 
HETATM   30  H   UNL     1       6.958  11.567  20.908  0.00  0.00     0.167 HD
HETATM   31  C   UNL     1       9.054  11.782  21.196  0.00  0.00     0.063 A 
HETATM   32  C   UNL     1       9.738  11.673  22.399  0.00  0.00     0.088 A 
HETATM   33  C   UNL     1       9.694  12.017  19.975  0.00  0.00     0.035 A 
HETATM   34  N   UNL     1       8.863  11.495  23.437  0.00  0.00    -0.228 NA
HETATM   35  C   UNL     1      11.134  11.738  22.418  0.00  0.00     0.076 A 
HETATM   36  C   UNL     1      11.791  11.949  21.208  0.00  0.00     0.118 A 
HETATM   37  F   UNL     1      13.130  12.007  21.194  0.00  0.00    -0.206 F 
HETATM   38  C   UNL     1      11.094  12.100  20.010  0.00  0.00     0.044 A 
ENDBRANCH  10  28
TORSDOF 3
ENDMDL
MODEL 8
REMARK VINA RESULT:   -10.298      3.692      9.909
REMARK INTER + INTRA:         -12.945
REMARK INTER:                 -12.255
REMARK INTRA:                  -0.691
REMARK UNBOUND:                -0.842
REMARK  3 active torsions:
REMARK  status: ('A' for Active; 'I' for Inactive)
REMARK    1  A    between atoms: C_10  and  C_11 
REMARK       I    between atoms: C_11  and  N_13 
REMARK    2  A    between atoms: N_13  and  C_14 
REMARK    3  A    between atoms: C_23  and  C_27 
ROOT
HETATM    1  C   UNL     1       3.771  12.727  22.476  0.00  0.00     0.153 C 
HETATM    2  C   UNL     1       4.707  11.766  21.772  0.00  0.00    -0.020 A 
HETATM    3  C   UNL     1       6.030  12.273  21.818  0.00  0.00    -0.016 A 
HETATM    4  C   UNL     1       4.373  10.626  21.047  0.00  0.00     0.010 A 
HETATM    5  C   UNL     1       5.375   9.989  20.314  0.00  0.00     0.001 A 
HETATM    6  C   UNL     1       6.669  10.517  20.290  0.00  0.00     0.001 A 
HETATM    7  C   UNL     1       6.990  11.658  21.034  0.00  0.00     0.013 A 
HETATM    8  C   UNL     1       4.752  13.604  23.239  0.00  0.00    -0.019 A 
HETATM    9  C   UNL     1       6.083  13.417  22.742  0.00  0.00    -0.003 A 
HETATM   10  C   UNL     1       7.114  14.273  23.179  0.00  0.00     0.022 A 
HETATM   11  C   UNL     1       6.763  15.273  24.118  0.00  0.00     0.016 A 
HETATM   12  C   UNL     1       5.457  15.407  24.623  0.00  0.00     0.002 A 
HETATM   13  C   UNL     1       4.440  14.571  24.184  0.00  0.00     0.010 A 
ENDROOT
BRANCH   1  14
HETATM   14  N   UNL     1       2.704  12.110  23.231  0.00  0.00    -0.344 N 
HETATM   15  C   UNL     1       1.531  12.810  23.467  0.00  0.00     0.253 C 
HETATM   16  O   UNL     1       1.416  14.010  23.240  0.00  0.00    -0.268 OA
HETATM   17  H   UNL     1       2.829  11.162  23.557  0.00  0.00     0.163 HD
BRANCH  15  18
HETATM   18  C   UNL     1       0.366  12.047  23.984  0.00  0.00     0.047 A 
HETATM   19  C   UNL     1      -0.900  12.154  23.362  0.00  0.00     0.027 A 
HETATM   20  C   UNL     1      -1.478  12.886  22.282  0.00  0.00     0.033 A 
HETATM   21  C   UNL     1      -1.919  11.352  23.871  0.00  0.00     0.138 A 
HETATM   22  C   UNL     1      -2.803  12.527  22.178  0.00  0.00     0.090 A 
HETATM   23  N   UNL     1      -3.056  11.600  23.152  0.00  0.00    -0.350 N 
HETATM   24  H   UNL     1      -3.938  11.132  23.324  0.00  0.00     0.166 HD
HETATM   25  N   UNL     1      -1.846  10.475  24.884  0.00  0.00    -0.242 NA
HETATM   26  C   UNL     1      -0.608  10.387  25.419  0.00  0.00     0.120 A 
HETATM   27  C   UNL     1       0.501  11.120  25.025  0.00  0.00     0.037 A 
ENDBRANCH  15  18
ENDBRANCH   1  14
BRANCH  10  28
HETATM   28  C   UNL     1       8.518  14.189  22.736  0.00  0.00     0.140 A 
HETATM   29  N   UNL     1       9.127  15.097  21.886  0.00  0.00    -0.338 N 
HETATM   30  H   UNL     1       8.680  15.906  21.479  0.00  0.00     0.167 HD
HETATM   31  C   UNL     1      10.413  14.682  21.627  0.00  0.00     0.063 A 
HETATM   32  C   UNL     1      10.538  13.512  22.364  0.00  0.00     0.088 A 
HETATM   33  C   UNL     1      11.443  15.194  20.831  0.00  0.00     0.035 A 
HETATM   34  N   UNL     1       9.400  13.275  23.087  0.00  0.00    -0.228 NA
HETATM   35  C   UNL     1      11.711  12.757  22.283  0.00  0.00     0.076 A 
HETATM   36  C   UNL     1      12.740  13.239  21.478  0.00  0.00     0.118 A 
HETATM   37  F   UNL     1      13.873  12.530  21.375  0.00  0.00    -0.206 F 
HETATM   38  C   UNL     1      12.623  14.437  20.775  0.00  0.00     0.044 A 
ENDBRANCH  10  28
TORSDOF 3
ENDMDL
MODEL 9
REMARK VINA RESULT:   -10.100      1.458      3.237
REMARK INTER + INTRA:         -12.713
REMARK INTER:                 -11.871
REMARK INTRA:                  -0.842
REMARK UNBOUND:                -0.842
REMARK  3 active torsions:
REMARK  status: ('A' for Active; 'I' for Inactive)
REMARK    1  A    between atoms: C_10  and  C_11 
REMARK       I    between atoms: C_11  and  N_13 
REMARK    2  A    between atoms: N_13  and  C_14 
REMARK    3  A    between atoms: C_23  and  C_27 
ROOT
HETATM    1  C   UNL     1       6.237  13.278  22.479  0.00  0.00     0.153 C 
HETATM    2  C   UNL     1       5.295  14.261  23.144  0.00  0.00    -0.020 A 
HETATM    3  C   UNL     1       4.072  13.614  23.450  0.00  0.00    -0.016 A 
HETATM    4  C   UNL     1       5.477  15.629  23.323  0.00  0.00     0.010 A 
HETATM    5  C   UNL     1       4.400  16.386  23.786  0.00  0.00     0.001 A 
HETATM    6  C   UNL     1       3.165  15.776  24.024  0.00  0.00     0.001 A 
HETATM    7  C   UNL     1       3.003  14.397  23.849  0.00  0.00     0.013 A 
HETATM    8  C   UNL     1       5.565  11.950  22.798  0.00  0.00    -0.019 A 
HETATM    9  C   UNL     1       4.223  12.163  23.253  0.00  0.00    -0.003 A 
HETATM   10  C   UNL     1       3.364  11.060  23.420  0.00  0.00     0.022 A 
HETATM   11  C   UNL     1       3.901   9.780  23.139  0.00  0.00     0.016 A 
HETATM   12  C   UNL     1       5.235   9.595  22.737  0.00  0.00     0.002 A 
HETATM   13  C   UNL     1       6.079  10.683  22.562  0.00  0.00     0.010 A 
ENDROOT
BRANCH   1  14
HETATM   14  N   UNL     1       7.630  13.421  22.833  0.00  0.00    -0.344 N 
HETATM   15  C   UNL     1       8.481  14.146  22.012  0.00  0.00     0.253 C 
HETATM   16  O   UNL     1       8.162  14.513  20.886  0.00  0.00    -0.268 OA
HETATM   17  H   UNL     1       7.955  13.003  23.693  0.00  0.00     0.163 HD
BRANCH  15  18
HETATM   18  C   UNL     1       9.815  14.511  22.552  0.00  0.00     0.047 A 
HETATM   19  C   UNL     1      10.997  14.064  21.918  0.00  0.00     0.027 A 
HETATM   20  C   UNL     1      11.342  13.241  20.804  0.00  0.00     0.033 A 
HETATM   21  C   UNL     1      12.204  14.508  22.454  0.00  0.00     0.138 A 
HETATM   22  C   UNL     1      12.714  13.200  20.706  0.00  0.00     0.090 A 
HETATM   23  N   UNL     1      13.222  13.969  21.717  0.00  0.00    -0.350 N 
HETATM   24  H   UNL     1      14.201  14.150  21.903  0.00  0.00     0.166 HD
HETATM   25  N   UNL     1      12.385  15.325  23.503  0.00  0.00    -0.242 NA
HETATM   26  C   UNL     1      11.224  15.749  24.050  0.00  0.00     0.120 A 
HETATM   27  C   UNL     1       9.951  15.391  23.633  0.00  0.00     0.037 A 
ENDBRANCH  15  18
ENDBRANCH   1  14
BRANCH  10  28
HETATM   28  C   UNL     1       1.963  11.148  23.872  0.00  0.00     0.140 A 
HETATM   29  N   UNL     1       0.998  11.946  23.280  0.00  0.00    -0.338 N 
HETATM   30  H   UNL     1       1.146  12.549  22.484  0.00  0.00     0.167 HD
HETATM   31  C   UNL     1      -0.175  11.842  23.993  0.00  0.00     0.063 A 
HETATM   32  C   UNL     1       0.135  10.948  25.009  0.00  0.00     0.088 A 
HETATM   33  C   UNL     1      -1.434  12.437  23.858  0.00  0.00     0.035 A 
HETATM   34  N   UNL     1       1.415  10.484  24.870  0.00  0.00    -0.228 NA
HETATM   35  C   UNL     1      -0.814  10.653  25.993  0.00  0.00     0.076 A 
HETATM   36  C   UNL     1      -2.066  11.253  25.889  0.00  0.00     0.118 A 
HETATM   37  F   UNL     1      -2.991  10.996  26.823  0.00  0.00    -0.206 F 
HETATM   38  C   UNL     1      -2.382  12.116  24.841  0.00  0.00     0.044 A 
ENDBRANCH  10  28
TORSDOF 3
ENDMDL
