MODEL 1
REMARK VINA RESULT:    -7.834      0.000      0.000
REMARK INTER + INTRA:          -8.922
REMARK INTER:                  -8.471
REMARK INTRA:                  -0.451
REMARK UNBOUND:                -0.401
REMARK  2 active torsions:
REMARK  status: ('A' for Active; 'I' for Inactive)
REMARK    1  A    between atoms: C_8  and  N_9 
REMARK    2  A    between atoms: C_11  and  C_12 
REMARK       I    between atoms: C_12  and  N_14 
ROOT
HETATM    1  C   UNL     1       8.534  14.821  21.811  0.00  0.00     0.016 A 
HETATM    2  C   UNL     1       9.173  15.986  21.381  0.00  0.00     0.001 A 
HETATM    3  C   UNL     1      10.226  16.495  22.124  0.00  0.00     0.002 A 
HETATM    4  C   UNL     1      10.624  15.842  23.292  0.00  0.00     0.032 A 
HETATM    5  C   UNL     1      10.002  14.682  23.739  0.00  0.00     0.072 A 
HETATM    6  C   UNL     1       8.949  14.143  22.995  0.00  0.00     0.027 A 
HETATM    7  N   UNL     1      10.441  14.147  24.882  0.00  0.00    -0.218 NA
HETATM    8  C   UNL     1       9.857  13.035  25.319  0.00  0.00     0.200 A 
HETATM    9  N   UNL     1       8.855  12.414  24.713  0.00  0.00    -0.212 NA
HETATM   10  C   UNL     1       8.410  12.968  23.559  0.00  0.00     0.140 A 
ENDROOT
BRANCH  10  11
HETATM   11  C   UNL     1       7.281  12.211  22.889  0.00  0.00     0.273 C 
HETATM   12  O   UNL     1       7.536  11.229  22.193  0.00  0.00    -0.266 OA
HETATM   13  N   UNL     1       5.968  12.643  23.056  0.00  0.00    -0.342 N 
HETATM   14  C   UNL     1       4.836  11.946  22.446  0.00  0.00     0.139 C 
HETATM   15  C   UNL     1       5.517  13.806  23.804  0.00  0.00     0.161 C 
HETATM   16  C   UNL     1       3.834  13.060  22.153  0.00  0.00     0.056 C 
HETATM   17  C   UNL     1       4.176  14.084  23.214  0.00  0.00    -0.056 C 
HETATM   18  C   UNL     1       2.357  12.759  22.139  0.00  0.00    -0.020 C 
HETATM   19  C   UNL     1       3.304  15.043  23.570  0.00  0.00    -0.018 C 
HETATM   20  C   UNL     1       1.916  15.077  22.983  0.00  0.00     0.054 C 
HETATM   21  C   UNL     1       1.474  13.720  22.483  0.00  0.00    -0.026 C 
ENDBRANCH  10  11
BRANCH   8  22
HETATM   22  N   UNL     1      10.286  12.532  26.527  0.00  0.00    -0.271 NA
HETATM   23  H   UNL     1      11.267  12.743  26.653  0.00  0.00     0.127 HD
HETATM   24  H   UNL     1       9.656  12.800  27.269  0.00  0.00     0.127 HD
ENDBRANCH   8  22
TORSDOF 2
ENDMDL
MODEL 2
REMARK VINA RESULT:    -7.584      3.250      4.863
REMARK INTER + INTRA:          -8.651
REMARK INTER:                  -8.222
REMARK INTRA:                  -0.429
REMARK UNBOUND:                -0.401
REMARK  2 active torsions:
REMARK  status: ('A' for Active; 'I' for Inactive)
REMARK    1  A    between atoms: C_8  and  N_9 
REMARK    2  A    between atoms: C_11  and  C_12 
REMARK       I    between atoms: C_12  and  N_14 
ROOT
HETATM    1  C   UNL     1       4.814  13.476  23.327  0.00  0.00     0.016 A 
HETATM    2  C   UNL     1       4.085  14.548  23.847  0.00  0.00     0.001 A 
HETATM    3  C   UNL     1       4.631  15.821  23.808  0.00  0.00     0.002 A 
HETATM    4  C   UNL     1       5.901  16.009  23.260  0.00  0.00     0.032 A 
HETATM    5  C   UNL     1       6.644  14.956  22.738  0.00  0.00     0.072 A 
HETATM    6  C   UNL     1       6.104  13.667  22.752  0.00  0.00     0.027 A 
HETATM    7  N   UNL     1       7.859  15.237  22.258  0.00  0.00    -0.218 NA
HETATM    8  C   UNL     1       8.579  14.240  21.752  0.00  0.00     0.200 A 
HETATM    9  N   UNL     1       8.190  12.974  21.695  0.00  0.00    -0.212 NA
HETATM   10  C   UNL     1       6.960  12.697  22.191  0.00  0.00     0.140 A 
ENDROOT
BRANCH  10  11
HETATM   11  C   UNL     1       6.548  11.243  22.083  0.00  0.00     0.273 C 
HETATM   12  O   UNL     1       6.932  10.437  22.930  0.00  0.00    -0.266 OA
HETATM   13  N   UNL     1       5.754  10.829  21.016  0.00  0.00    -0.342 N 
HETATM   14  C   UNL     1       5.314   9.442  20.866  0.00  0.00     0.139 C 
HETATM   15  C   UNL     1       5.266  11.649  19.919  0.00  0.00     0.161 C 
HETATM   16  C   UNL     1       5.247   9.241  19.354  0.00  0.00     0.056 C 
HETATM   17  C   UNL     1       4.969  10.644  18.857  0.00  0.00    -0.056 C 
HETATM   18  C   UNL     1       4.273   8.251  18.768  0.00  0.00    -0.020 C 
HETATM   19  C   UNL     1       4.456  10.867  17.635  0.00  0.00    -0.018 C 
HETATM   20  C   UNL     1       4.057   9.716  16.747  0.00  0.00     0.054 C 
HETATM   21  C   UNL     1       3.763   8.461  17.537  0.00  0.00    -0.026 C 
ENDBRANCH  10  11
BRANCH   8  22
HETATM   22  N   UNL     1       9.851  14.540  21.316  0.00  0.00    -0.271 NA
HETATM   23  H   UNL     1       9.837  14.706  20.319  0.00  0.00     0.127 HD
HETATM   24  H   UNL     1      10.269  15.251  21.898  0.00  0.00     0.127 HD
ENDBRANCH   8  22
TORSDOF 2
ENDMDL
MODEL 3
REMARK VINA RESULT:    -7.495      3.870      6.805
REMARK INTER + INTRA:          -8.553
REMARK INTER:                  -8.088
REMARK INTRA:                  -0.465
REMARK UNBOUND:                -0.401
REMARK  2 active torsions:
REMARK  status: ('A' for Active; 'I' for Inactive)
REMARK    1  A    between atoms: C_8  and  N_9 
REMARK    2  A    between atoms: C_11  and  C_12 
REMARK       I    between atoms: C_12  and  N_14 
ROOT
HETATM    1  C   UNL     1       4.309  10.989  18.606  0.00  0.00     0.016 A 
HETATM    2  C   UNL     1       4.011  10.912  17.243  0.00  0.00     0.001 A 
HETATM    3  C   UNL     1       4.308   9.751  16.549  0.00  0.00     0.002 A 
HETATM    4  C   UNL     1       4.908   8.682  17.218  0.00  0.00     0.032 A 
HETATM    5  C   UNL     1       5.214   8.737  18.573  0.00  0.00     0.072 A 
HETATM    6  C   UNL     1       4.907   9.894  19.296  0.00  0.00     0.027 A 
HETATM    7  N   UNL     1       5.809   7.671  19.115  0.00  0.00    -0.218 NA
HETATM    8  C   UNL     1       6.104   7.708  20.411  0.00  0.00     0.200 A 
HETATM    9  N   UNL     1       5.864   8.734  21.216  0.00  0.00    -0.212 NA
HETATM   10  C   UNL     1       5.267   9.815  20.656  0.00  0.00     0.140 A 
ENDROOT
BRANCH  10  11
HETATM   11  C   UNL     1       4.991  10.952  21.619  0.00  0.00     0.273 C 
HETATM   12  O   UNL     1       3.897  11.023  22.179  0.00  0.00    -0.266 OA
HETATM   13  N   UNL     1       5.971  11.915  21.848  0.00  0.00    -0.342 N 
HETATM   14  C   UNL     1       5.767  13.027  22.775  0.00  0.00     0.139 C 
HETATM   15  C   UNL     1       7.284  11.991  21.228  0.00  0.00     0.161 C 
HETATM   16  C   UNL     1       6.574  14.168  22.161  0.00  0.00     0.056 C 
HETATM   17  C   UNL     1       7.655  13.425  21.405  0.00  0.00    -0.056 C 
HETATM   18  C   UNL     1       7.163  15.237  23.048  0.00  0.00    -0.020 C 
HETATM   19  C   UNL     1       8.797  14.030  21.039  0.00  0.00    -0.018 C 
HETATM   20  C   UNL     1       9.079  15.454  21.448  0.00  0.00     0.054 C 
HETATM   21  C   UNL     1       8.303  15.857  22.681  0.00  0.00    -0.026 C 
ENDBRANCH  10  11
BRANCH   8  22
HETATM   22  N   UNL     1       6.769   6.623  20.937  0.00  0.00    -0.271 NA
HETATM   23  H   UNL     1       6.566   6.547  21.925  0.00  0.00     0.127 HD
HETATM   24  H   UNL     1       6.617   5.802  20.370  0.00  0.00     0.127 HD
ENDBRANCH   8  22
TORSDOF 2
ENDMDL
MODEL 4
REMARK VINA RESULT:    -7.465      3.540      6.092
REMARK INTER + INTRA:          -8.521
REMARK INTER:                  -8.119
REMARK INTRA:                  -0.401
REMARK UNBOUND:                -0.401
REMARK  2 active torsions:
REMARK  status: ('A' for Active; 'I' for Inactive)
REMARK    1  A    between atoms: C_8  and  N_9 
REMARK    2  A    between atoms: C_11  and  C_12 
REMARK       I    between atoms: C_12  and  N_14 
ROOT
HETATM    1  C   UNL     1       5.070  10.989  18.404  0.00  0.00     0.016 A 
HETATM    2  C   UNL     1       4.245  10.680  17.321  0.00  0.00     0.001 A 
HETATM    3  C   UNL     1       3.690   9.414  17.231  0.00  0.00     0.002 A 
HETATM    4  C   UNL     1       3.972   8.467  18.217  0.00  0.00     0.032 A 
HETATM    5  C   UNL     1       4.792   8.752  19.303  0.00  0.00     0.072 A 
HETATM    6  C   UNL     1       5.348  10.029  19.421  0.00  0.00     0.027 A 
HETATM    7  N   UNL     1       5.020   7.770  20.180  0.00  0.00    -0.218 NA
HETATM    8  C   UNL     1       5.799   8.030  21.225  0.00  0.00     0.200 A 
HETATM    9  N   UNL     1       6.385   9.195  21.465  0.00  0.00    -0.212 NA
HETATM   10  C   UNL     1       6.154  10.184  20.567  0.00  0.00     0.140 A 
ENDROOT
BRANCH  10  11
HETATM   11  C   UNL     1       6.824  11.503  20.895  0.00  0.00     0.273 C 
HETATM   12  O   UNL     1       8.023  11.652  20.660  0.00  0.00    -0.266 OA
HETATM   13  N   UNL     1       6.080  12.528  21.474  0.00  0.00    -0.342 N 
HETATM   14  C   UNL     1       6.667  13.827  21.800  0.00  0.00     0.139 C 
HETATM   15  C   UNL     1       4.676  12.485  21.851  0.00  0.00     0.161 C 
HETATM   16  C   UNL     1       5.899  14.275  23.041  0.00  0.00     0.056 C 
HETATM   17  C   UNL     1       4.568  13.576  22.863  0.00  0.00    -0.056 C 
HETATM   18  C   UNL     1       5.712  15.745  23.321  0.00  0.00    -0.020 C 
HETATM   19  C   UNL     1       3.467  13.988  23.513  0.00  0.00    -0.018 C 
HETATM   20  C   UNL     1       3.501  15.222  24.379  0.00  0.00     0.054 C 
HETATM   21  C   UNL     1       4.614  16.165  23.984  0.00  0.00    -0.026 C 
ENDBRANCH  10  11
BRANCH   8  22
HETATM   22  N   UNL     1       6.068   6.989  22.085  0.00  0.00    -0.271 NA
HETATM   23  H   UNL     1       5.421   7.015  22.862  0.00  0.00     0.127 HD
HETATM   24  H   UNL     1       6.148   6.120  21.579  0.00  0.00     0.127 HD
ENDBRANCH   8  22
TORSDOF 2
ENDMDL
MODEL 5
REMARK VINA RESULT:    -7.449      3.152      5.580
REMARK INTER + INTRA:          -8.504
REMARK INTER:                  -8.385
REMARK INTRA:                  -0.119
REMARK UNBOUND:                -0.401
REMARK  2 active torsions:
REMARK  status: ('A' for Active; 'I' for Inactive)
REMARK    1  A    between atoms: C_8  and  N_9 
REMARK    2  A    between atoms: C_11  and  C_12 
REMARK       I    between atoms: C_12  and  N_14 
ROOT
HETATM    1  C   UNL     1       4.654  13.687  22.929  0.00  0.00     0.016 A 
HETATM    2  C   UNL     1       3.932  14.580  23.724  0.00  0.00     0.001 A 
HETATM    3  C   UNL     1       4.495  15.802  24.054  0.00  0.00     0.002 A 
HETATM    4  C   UNL     1       5.776  16.115  23.597  0.00  0.00     0.032 A 
HETATM    5  C   UNL     1       6.514  15.241  22.806  0.00  0.00     0.072 A 
HETATM    6  C   UNL     1       5.956  14.010  22.447  0.00  0.00     0.027 A 
HETATM    7  N   UNL     1       7.740  15.625  22.440  0.00  0.00    -0.218 NA
HETATM    8  C   UNL     1       8.455  14.800  21.681  0.00  0.00     0.200 A 
HETATM    9  N   UNL     1       8.050  13.609  21.262  0.00  0.00    -0.212 NA
HETATM   10  C   UNL     1       6.808  13.224  21.645  0.00  0.00     0.140 A 
ENDROOT
BRANCH  10  11
HETATM   11  C   UNL     1       6.379  11.868  21.124  0.00  0.00     0.273 C 
HETATM   12  O   UNL     1       5.432  11.788  20.341  0.00  0.00    -0.266 OA
HETATM   13  N   UNL     1       7.049  10.723  21.547  0.00  0.00    -0.342 N 
HETATM   14  C   UNL     1       6.689   9.389  21.068  0.00  0.00     0.139 C 
HETATM   15  C   UNL     1       8.147  10.653  22.498  0.00  0.00     0.161 C 
HETATM   16  C   UNL     1       6.994   8.479  22.255  0.00  0.00     0.056 C 
HETATM   17  C   UNL     1       8.096   9.237  22.965  0.00  0.00    -0.056 C 
HETATM   18  C   UNL     1       7.383   7.041  22.022  0.00  0.00    -0.020 C 
HETATM   19  C   UNL     1       8.920   8.628  23.834  0.00  0.00    -0.018 C 
HETATM   20  C   UNL     1       8.830   7.141  24.066  0.00  0.00     0.054 C 
HETATM   21  C   UNL     1       8.201   6.418  22.897  0.00  0.00    -0.026 C 
ENDBRANCH  10  11
BRANCH   8  22
HETATM   22  N   UNL     1       9.737  15.189  21.363  0.00  0.00    -0.271 NA
HETATM   23  H   UNL     1      10.230  14.415  20.937  0.00  0.00     0.127 HD
HETATM   24  H   UNL     1       9.730  16.065  20.862  0.00  0.00     0.127 HD
ENDBRANCH   8  22
TORSDOF 2
ENDMDL
MODEL 6
REMARK VINA RESULT:    -7.207      2.199      3.489
REMARK INTER + INTRA:          -8.240
REMARK INTER:                  -7.767
REMARK INTRA:                  -0.473
REMARK UNBOUND:                -0.401
REMARK  2 active torsions:
REMARK  status: ('A' for Active; 'I' for Inactive)
REMARK    1  A    between atoms: C_8  and  N_9 
REMARK    2  A    between atoms: C_11  and  C_12 
REMARK       I    between atoms: C_12  and  N_14 
ROOT
HETATM    1  C   UNL     1       8.230  12.043  24.216  0.00  0.00     0.016 A 
HETATM    2  C   UNL     1       8.836  10.796  24.050  0.00  0.00     0.001 A 
HETATM    3  C   UNL     1       9.961  10.691  23.248  0.00  0.00     0.002 A 
HETATM    4  C   UNL     1      10.464  11.828  22.614  0.00  0.00     0.032 A 
HETATM    5  C   UNL     1       9.876  13.079  22.764  0.00  0.00     0.072 A 
HETATM    6  C   UNL     1       8.750  13.210  23.583  0.00  0.00     0.027 A 
HETATM    7  N   UNL     1      10.418  14.101  22.096  0.00  0.00    -0.218 NA
HETATM    8  C   UNL     1       9.868  15.304  22.234  0.00  0.00     0.200 A 
HETATM    9  N   UNL     1       8.806  15.573  22.981  0.00  0.00    -0.212 NA
HETATM   10  C   UNL     1       8.257  14.529  23.649  0.00  0.00     0.140 A 
ENDROOT
BRANCH  10  11
HETATM   11  C   UNL     1       7.061  14.888  24.507  0.00  0.00     0.273 C 
HETATM   12  O   UNL     1       7.238  15.318  25.647  0.00  0.00    -0.266 OA
HETATM   13  N   UNL     1       5.775  14.713  24.004  0.00  0.00    -0.342 N 
HETATM   14  C   UNL     1       4.583  15.054  24.780  0.00  0.00     0.139 C 
HETATM   15  C   UNL     1       5.409  14.174  22.704  0.00  0.00     0.161 C 
HETATM   16  C   UNL     1       3.542  14.037  24.320  0.00  0.00     0.056 C 
HETATM   17  C   UNL     1       4.002  13.723  22.912  0.00  0.00    -0.056 C 
HETATM   18  C   UNL     1       2.077  14.392  24.350  0.00  0.00    -0.020 C 
HETATM   19  C   UNL     1       3.173  13.175  22.009  0.00  0.00    -0.018 C 
HETATM   20  C   UNL     1       1.722  12.934  22.343  0.00  0.00     0.054 C 
HETATM   21  C   UNL     1       1.235  13.836  23.453  0.00  0.00    -0.026 C 
ENDBRANCH  10  11
BRANCH   8  22
HETATM   22  N   UNL     1      10.407  16.332  21.492  0.00  0.00    -0.271 NA
HETATM   23  H   UNL     1      10.385  16.089  20.511  0.00  0.00     0.127 HD
HETATM   24  H   UNL     1      10.000  17.215  21.760  0.00  0.00     0.127 HD
ENDBRANCH   8  22
TORSDOF 2
ENDMDL
MODEL 7
REMARK VINA RESULT:    -7.188      3.498      6.256
REMARK INTER + INTRA:          -8.220
REMARK INTER:                  -7.819
REMARK INTRA:                  -0.401
REMARK UNBOUND:                -0.401
REMARK  2 active torsions:
REMARK  status: ('A' for Active; 'I' for Inactive)
REMARK    1  A    between atoms: C_8  and  N_9 
REMARK    2  A    between atoms: C_11  and  C_12 
REMARK       I    between atoms: C_12  and  N_14 
ROOT
HETATM    1  C   UNL     1       5.880  14.084  22.298  0.00  0.00     0.016 A 
HETATM    2  C   UNL     1       6.396  15.223  22.921  0.00  0.00     0.001 A 
HETATM    3  C   UNL     1       5.578  15.968  23.755  0.00  0.00     0.002 A 
HETATM    4  C   UNL     1       4.253  15.575  23.951  0.00  0.00     0.032 A 
HETATM    5  C   UNL     1       3.719  14.446  23.339  0.00  0.00     0.072 A 
HETATM    6  C   UNL     1       4.532  13.671  22.508  0.00  0.00     0.027 A 
HETATM    7  N   UNL     1       2.433  14.168  23.572  0.00  0.00    -0.218 NA
HETATM    8  C   UNL     1       1.910  13.090  22.997  0.00  0.00     0.200 A 
HETATM    9  N   UNL     1       2.565  12.264  22.193  0.00  0.00    -0.212 NA
HETATM   10  C   UNL     1       3.867  12.558  21.956  0.00  0.00     0.140 A 
ENDROOT
BRANCH  10  11
HETATM   11  C   UNL     1       4.581  11.573  21.052  0.00  0.00     0.273 C 
HETATM   12  O   UNL     1       4.410  11.631  19.834  0.00  0.00    -0.266 OA
HETATM   13  N   UNL     1       5.412  10.604  21.608  0.00  0.00    -0.342 N 
HETATM   14  C   UNL     1       6.138   9.636  20.786  0.00  0.00     0.139 C 
HETATM   15  C   UNL     1       5.674  10.382  23.021  0.00  0.00     0.161 C 
HETATM   16  C   UNL     1       6.199   8.386  21.659  0.00  0.00     0.056 C 
HETATM   17  C   UNL     1       6.149   8.969  23.056  0.00  0.00    -0.056 C 
HETATM   18  C   UNL     1       7.346   7.418  21.511  0.00  0.00    -0.020 C 
HETATM   19  C   UNL     1       6.561   8.266  24.124  0.00  0.00    -0.018 C 
HETATM   20  C   UNL     1       7.172   6.898  23.956  0.00  0.00     0.054 C 
HETATM   21  C   UNL     1       7.758   6.700  22.576  0.00  0.00    -0.026 C 
ENDBRANCH  10  11
BRANCH   8  22
HETATM   22  N   UNL     1       0.569  12.854  23.203  0.00  0.00    -0.271 NA
HETATM   23  H   UNL     1       0.028  13.333  22.495  0.00  0.00     0.127 HD
HETATM   24  H   UNL     1       0.395  11.868  23.330  0.00  0.00     0.127 HD
ENDBRANCH   8  22
TORSDOF 2
ENDMDL
MODEL 8
REMARK VINA RESULT:    -7.174      3.031      4.488
REMARK INTER + INTRA:          -8.205
REMARK INTER:                  -7.727
REMARK INTRA:                  -0.478
REMARK UNBOUND:                -0.401
REMARK  2 active torsions:
REMARK  status: ('A' for Active; 'I' for Inactive)
REMARK    1  A    between atoms: C_8  and  N_9 
REMARK    2  A    between atoms: C_11  and  C_12 
REMARK       I    between atoms: C_12  and  N_14 
ROOT
HETATM    1  C   UNL     1       8.156  13.353  21.498  0.00  0.00     0.016 A 
HETATM    2  C   UNL     1       9.171  14.212  21.072  0.00  0.00     0.001 A 
HETATM    3  C   UNL     1       9.128  15.547  21.441  0.00  0.00     0.002 A 
HETATM    4  C   UNL     1       8.068  16.012  22.221  0.00  0.00     0.032 A 
HETATM    5  C   UNL     1       7.047  15.175  22.655  0.00  0.00     0.072 A 
HETATM    6  C   UNL     1       7.081  13.821  22.308  0.00  0.00     0.027 A 
HETATM    7  N   UNL     1       6.065  15.722  23.377  0.00  0.00    -0.218 NA
HETATM    8  C   UNL     1       5.083  14.931  23.802  0.00  0.00     0.200 A 
HETATM    9  N   UNL     1       4.992  13.632  23.554  0.00  0.00    -0.212 NA
HETATM   10  C   UNL     1       5.988  13.087  22.814  0.00  0.00     0.140 A 
ENDROOT
BRANCH  10  11
HETATM   11  C   UNL     1       5.855  11.596  22.577  0.00  0.00     0.273 C 
HETATM   12  O   UNL     1       6.290  10.806  23.414  0.00  0.00    -0.266 OA
HETATM   13  N   UNL     1       5.256  11.136  21.407  0.00  0.00    -0.342 N 
HETATM   14  C   UNL     1       5.087   9.710  21.129  0.00  0.00     0.139 C 
HETATM   15  C   UNL     1       4.741  11.941  20.312  0.00  0.00     0.161 C 
HETATM   16  C   UNL     1       5.206   9.616  19.610  0.00  0.00     0.056 C 
HETATM   17  C   UNL     1       4.733  10.984  19.167  0.00  0.00    -0.056 C 
HETATM   18  C   UNL     1       4.486   8.521  18.864  0.00  0.00    -0.020 C 
HETATM   19  C   UNL     1       4.312  11.208  17.911  0.00  0.00    -0.018 C 
HETATM   20  C   UNL     1       4.214  10.077  16.919  0.00  0.00     0.054 C 
HETATM   21  C   UNL     1       4.071   8.734  17.598  0.00  0.00    -0.026 C 
ENDBRANCH  10  11
BRANCH   8  22
HETATM   22  N   UNL     1       4.052  15.525  24.495  0.00  0.00    -0.271 NA
HETATM   23  H   UNL     1       3.239  15.597  23.898  0.00  0.00     0.127 HD
HETATM   24  H   UNL     1       3.928  15.086  25.395  0.00  0.00     0.127 HD
ENDBRANCH   8  22
TORSDOF 2
ENDMDL
MODEL 9
REMARK VINA RESULT:    -7.112      3.389      6.478
REMARK INTER + INTRA:          -8.137
REMARK INTER:                  -7.678
REMARK INTRA:                  -0.460
REMARK UNBOUND:                -0.401
REMARK  2 active torsions:
REMARK  status: ('A' for Active; 'I' for Inactive)
REMARK    1  A    between atoms: C_8  and  N_9 
REMARK    2  A    between atoms: C_11  and  C_12 
REMARK       I    between atoms: C_12  and  N_14 
ROOT
HETATM    1  C   UNL     1       6.059   9.231  21.945  0.00  0.00     0.016 A 
HETATM    2  C   UNL     1       5.779   7.933  22.378  0.00  0.00     0.001 A 
HETATM    3  C   UNL     1       5.094   7.071  21.537  0.00  0.00     0.002 A 
HETATM    4  C   UNL     1       4.687   7.515  20.278  0.00  0.00     0.032 A 
HETATM    5  C   UNL     1       4.955   8.803  19.827  0.00  0.00     0.072 A 
HETATM    6  C   UNL     1       5.660   9.683  20.653  0.00  0.00     0.027 A 
HETATM    7  N   UNL     1       4.503   9.139  18.615  0.00  0.00    -0.218 NA
HETATM    8  C   UNL     1       4.755  10.366  18.170  0.00  0.00     0.200 A 
HETATM    9  N   UNL     1       5.416  11.298  18.842  0.00  0.00    -0.212 NA
HETATM   10  C   UNL     1       5.864  10.951  20.073  0.00  0.00     0.140 A 
ENDROOT
BRANCH  10  11
HETATM   11  C   UNL     1       6.634  12.039  20.794  0.00  0.00     0.273 C 
HETATM   12  O   UNL     1       7.861  12.078  20.703  0.00  0.00    -0.266 OA
HETATM   13  N   UNL     1       5.948  12.975  21.563  0.00  0.00    -0.342 N 
HETATM   14  C   UNL     1       6.635  14.055  22.270  0.00  0.00     0.139 C 
HETATM   15  C   UNL     1       4.515  13.029  21.803  0.00  0.00     0.161 C 
HETATM   16  C   UNL     1       5.787  14.273  23.521  0.00  0.00     0.056 C 
HETATM   17  C   UNL     1       4.415  13.831  23.057  0.00  0.00    -0.056 C 
HETATM   18  C   UNL     1       5.733  15.634  24.167  0.00  0.00    -0.020 C 
HETATM   19  C   UNL     1       3.300  14.210  23.704  0.00  0.00    -0.018 C 
HETATM   20  C   UNL     1       3.373  15.166  24.867  0.00  0.00     0.054 C 
HETATM   21  C   UNL     1       4.621  16.018  24.828  0.00  0.00    -0.026 C 
ENDBRANCH  10  11
BRANCH   8  22
HETATM   22  N   UNL     1       4.231  10.711  16.943  0.00  0.00    -0.271 NA
HETATM   23  H   UNL     1       4.275   9.916  16.320  0.00  0.00     0.127 HD
HETATM   24  H   UNL     1       3.336  11.165  17.053  0.00  0.00     0.127 HD
ENDBRANCH   8  22
TORSDOF 2
ENDMDL
