MODEL 1
REMARK minimizedAffinity -10.5290289
REMARK minimizedRMSD -1
REMARK  7 active torsions:
REMARK  status: ('A' for Active; 'I' for Inactive)
REMARK    1  A    between atoms: C_6  and  C_7 
REMARK    2  A    between atoms: C_7  and  C_8 
REMARK    3  A    between atoms: C_8  and  C_9 
REMARK    4  A    between atoms: C_10  and  O_11 
REMARK    5  A    between atoms: C_13  and  O_14 
REMARK    6  A    between atoms: C_15  and  C_17 
REMARK    7  A    between atoms: N_21  and  C_22 
ROOT
HETATM    1  C   UNL     1       0.480  12.345  23.317  0.00  0.00    -0.024 C 
HETATM    2  C   UNL     1      -0.709  12.635  22.651  0.00  0.00     0.074 C 
HETATM    3  C   UNL     1      -1.914  12.061  23.043  0.00  0.00     0.074 C 
HETATM    4  C   UNL     1      -1.948  11.231  24.166  0.00  0.00     0.081 C 
HETATM    5  C   UNL     1      -0.771  10.879  24.862  0.00  0.00     0.026 C 
HETATM    6  C   UNL     1       0.437  11.356  24.324  0.00  0.00     0.026 C 
ENDROOT
BRANCH   5   7
HETATM    7  C   UNL     1      -0.817  10.072  26.117  0.00  0.00     0.073 A 
HETATM    8  C   UNL     1      -1.472  10.428  27.293  0.00  0.00     0.053 A 
HETATM    9  C   UNL     1      -1.215   9.424  28.218  0.00  0.00     0.141 A 
HETATM   10  N   UNL     1      -0.484   8.451  27.702  0.00  0.00    -0.179 NA
HETATM   11  N   UNL     1      -0.258   8.798  26.403  0.00  0.00    -0.232 N 
BRANCH  11  12
HETATM   12  C   UNL     1       0.509   7.891  25.599  0.00  0.00     0.080 A 
HETATM   13  C   UNL     1       1.888   8.076  25.363  0.00  0.00     0.062 A 
HETATM   14 CL   UNL     1       2.848   9.402  25.938  0.00  0.00    -0.082 Cl
HETATM   15  C   UNL     1       2.621   7.090  24.682  0.00  0.00     0.026 A 
HETATM   16  C   UNL     1       2.009   5.920  24.240  0.00  0.00     0.002 A 
HETATM   17  C   UNL     1       0.639   5.763  24.405  0.00  0.00     0.002 A 
HETATM   18  C   UNL     1      -0.109   6.762  25.035  0.00  0.00     0.033 A 
ENDBRANCH  11  12
ENDBRANCH   5   7
BRANCH   4  19
HETATM   19  O   UNL     1      -3.173  10.777  24.585  0.00  0.00    -0.360 OA
HETATM   20  H   UNL     1      -3.853  11.041  23.942  0.00  0.00     0.217 HD
ENDBRANCH   4  19
BRANCH   1  21
HETATM   21  C   UNL     1       1.800  13.056  23.051  0.00  0.00     0.047 C 
BRANCH  21  22
HETATM   22  C   UNL     1       2.995  12.506  23.857  0.00  0.00     0.061 C 
BRANCH  22  23
HETATM   23  C   UNL     1       3.987  13.540  24.347  0.00  0.00     0.005 A 
HETATM   24  N   UNL     1       5.332  13.286  24.170  0.00  0.00    -0.370 N 
HETATM   25  C   UNL     1       6.307  14.208  24.446  0.00  0.00     0.084 A 
HETATM   26  H   UNL     1       5.604  12.445  23.669  0.00  0.00     0.165 HD
HETATM   27  C   UNL     1       6.018  15.421  24.939  0.00  0.00    -0.006 A 
HETATM   28  C   UNL     1       4.582  15.816  25.199  0.00  0.00     0.057 A 
HETATM   29  C   UNL     1       3.589  14.731  24.845  0.00  0.00     0.002 A 
ENDBRANCH  22  23
ENDBRANCH  21  22
ENDBRANCH   1  21
BRANCH   2  30
HETATM   30  O   UNL     1      -0.748  13.478  21.584  0.00  0.00    -0.360 OA
HETATM   31  H   UNL     1      -0.886  14.369  21.949  0.00  0.00     0.217 HD
ENDBRANCH   2  30
TORSDOF 7
ENDMDL
MODEL 2
REMARK minimizedAffinity -10.3401127
REMARK minimizedRMSD -1
REMARK  7 active torsions:
REMARK  status: ('A' for Active; 'I' for Inactive)
REMARK    1  A    between atoms: C_6  and  C_7 
REMARK    2  A    between atoms: C_7  and  C_8 
REMARK    3  A    between atoms: C_8  and  C_9 
REMARK    4  A    between atoms: C_10  and  O_11 
REMARK    5  A    between atoms: C_13  and  O_14 
REMARK    6  A    between atoms: C_15  and  C_17 
REMARK    7  A    between atoms: N_21  and  C_22 
ROOT
HETATM    1  C   UNL     1       3.345   9.202  24.433  0.00  0.00    -0.024 C 
HETATM    2  C   UNL     1       3.084   8.012  23.757  0.00  0.00     0.074 C 
HETATM    3  C   UNL     1       1.834   7.404  23.826  0.00  0.00     0.074 C 
HETATM    4  C   UNL     1       0.801   8.029  24.528  0.00  0.00     0.081 C 
HETATM    5  C   UNL     1       1.016   9.220  25.256  0.00  0.00     0.026 C 
HETATM    6  C   UNL     1       2.336   9.702  25.286  0.00  0.00     0.026 C 
ENDROOT
BRANCH   5   7
HETATM    7  C   UNL     1      -0.107   9.940  25.926  0.00  0.00     0.073 A 
HETATM    8  C   UNL     1      -0.582   9.696  27.212  0.00  0.00     0.053 A 
HETATM    9  C   UNL     1      -1.660  10.548  27.412  0.00  0.00     0.141 A 
HETATM   10  N   UNL     1      -1.873  11.331  26.369  0.00  0.00    -0.179 NA
HETATM   11  N   UNL     1      -0.911  11.012  25.457  0.00  0.00    -0.232 N 
BRANCH  11  12
HETATM   12  C   UNL     1      -0.904  11.740  24.220  0.00  0.00     0.080 A 
HETATM   13  C   UNL     1       0.183  12.553  23.833  0.00  0.00     0.062 A 
HETATM   14 CL   UNL     1       1.618  12.843  24.764  0.00  0.00    -0.082 Cl
HETATM   15  C   UNL     1       0.200  13.136  22.555  0.00  0.00     0.026 A 
HETATM   16  C   UNL     1      -0.838  12.919  21.654  0.00  0.00     0.002 A 
HETATM   17  C   UNL     1      -1.943  12.179  22.054  0.00  0.00     0.002 A 
HETATM   18  C   UNL     1      -1.994  11.637  23.341  0.00  0.00     0.033 A 
ENDBRANCH  11  12
ENDBRANCH   5   7
BRANCH   4  19
HETATM   19  O   UNL     1      -0.443   7.453  24.476  0.00  0.00    -0.360 OA
HETATM   20  H   UNL     1      -0.386   6.602  24.011  0.00  0.00     0.217 HD
ENDBRANCH   4  19
BRANCH   1  21
HETATM   21  C   UNL     1       4.628  10.006  24.274  0.00  0.00     0.047 C 
BRANCH  21  22
HETATM   22  C   UNL     1       4.478  11.288  23.427  0.00  0.00     0.061 C 
BRANCH  22  23
HETATM   23  C   UNL     1       5.158  12.523  23.980  0.00  0.00     0.005 A 
HETATM   24  N   UNL     1       4.429  13.693  24.045  0.00  0.00    -0.370 N 
HETATM   25  C   UNL     1       4.896  14.828  24.653  0.00  0.00     0.084 A 
HETATM   26  H   UNL     1       3.450  13.669  23.775  0.00  0.00     0.165 HD
HETATM   27  C   UNL     1       6.116  14.888  25.203  0.00  0.00    -0.006 A 
HETATM   28  C   UNL     1       7.024  13.679  25.180  0.00  0.00     0.057 A 
HETATM   29  C   UNL     1       6.404  12.479  24.501  0.00  0.00     0.002 A 
ENDBRANCH  22  23
ENDBRANCH  21  22
ENDBRANCH   1  21
BRANCH   2  30
HETATM   30  O   UNL     1       4.033   7.384  23.013  0.00  0.00    -0.360 OA
HETATM   31  H   UNL     1       3.964   7.758  22.117  0.00  0.00     0.217 HD
ENDBRANCH   2  30
TORSDOF 7
ENDMDL
MODEL 3
REMARK minimizedAffinity -10.0768843
REMARK minimizedRMSD -1
REMARK  7 active torsions:
REMARK  status: ('A' for Active; 'I' for Inactive)
REMARK    1  A    between atoms: C_6  and  C_7 
REMARK    2  A    between atoms: C_7  and  C_8 
REMARK    3  A    between atoms: C_8  and  C_9 
REMARK    4  A    between atoms: C_10  and  O_11 
REMARK    5  A    between atoms: C_13  and  O_14 
REMARK    6  A    between atoms: C_15  and  C_17 
REMARK    7  A    between atoms: N_21  and  C_22 
ROOT
HETATM    1  C   UNL     1       4.745   9.255  24.102  0.00  0.00    -0.024 C 
HETATM    2  C   UNL     1       4.639   8.154  23.255  0.00  0.00     0.074 C 
HETATM    3  C   UNL     1       3.478   7.387  23.213  0.00  0.00     0.074 C 
HETATM    4  C   UNL     1       2.375   7.764  23.981  0.00  0.00     0.081 C 
HETATM    5  C   UNL     1       2.435   8.853  24.878  0.00  0.00     0.026 C 
HETATM    6  C   UNL     1       3.682   9.491  25.001  0.00  0.00     0.026 C 
ENDROOT
BRANCH   5   7
HETATM    7  C   UNL     1       1.230   9.316  25.626  0.00  0.00     0.073 A 
HETATM    8  C   UNL     1       0.797   8.832  26.858  0.00  0.00     0.053 A 
HETATM    9  C   UNL     1      -0.384   9.498  27.161  0.00  0.00     0.141 A 
HETATM   10  N   UNL     1      -0.703  10.386  26.235  0.00  0.00    -0.179 NA
HETATM   11  N   UNL     1       0.289  10.329  25.302  0.00  0.00    -0.232 N 
BRANCH  11  12
HETATM   12  C   UNL     1       0.194  11.220  24.180  0.00  0.00     0.080 A 
HETATM   13  C   UNL     1      -1.047  11.648  23.663  0.00  0.00     0.062 A 
HETATM   14 CL   UNL     1      -2.610  11.157  24.233  0.00  0.00    -0.082 Cl
HETATM   15  C   UNL     1      -1.085  12.623  22.652  0.00  0.00     0.026 A 
HETATM   16  C   UNL     1       0.088  13.186  22.155  0.00  0.00     0.002 A 
HETATM   17  C   UNL     1       1.314  12.718  22.609  0.00  0.00     0.002 A 
HETATM   18  C   UNL     1       1.364  11.711  23.577  0.00  0.00     0.033 A 
ENDBRANCH  11  12
ENDBRANCH   5   7
BRANCH   4  19
HETATM   19  O   UNL     1       1.216   7.047  23.824  0.00  0.00    -0.360 OA
HETATM   20  H   UNL     1       1.382   6.287  23.241  0.00  0.00     0.217 HD
ENDBRANCH   4  19
BRANCH   1  21
HETATM   21  C   UNL     1       5.913  10.232  24.084  0.00  0.00     0.047 C 
BRANCH  21  22
HETATM   22  C   UNL     1       5.698  11.467  23.184  0.00  0.00     0.061 C 
BRANCH  22  23
HETATM   23  C   UNL     1       5.616  12.797  23.905  0.00  0.00     0.005 A 
HETATM   24  N   UNL     1       6.769  13.546  24.021  0.00  0.00    -0.370 N 
HETATM   25  C   UNL     1       6.781  14.820  24.526  0.00  0.00     0.084 A 
HETATM   26  H   UNL     1       7.614  13.207  23.571  0.00  0.00     0.165 HD
HETATM   27  C   UNL     1       5.668  15.417  24.973  0.00  0.00    -0.006 A 
HETATM   28  C   UNL     1       4.341  14.694  24.922  0.00  0.00     0.057 A 
HETATM   29  C   UNL     1       4.439  13.305  24.332  0.00  0.00     0.002 A 
ENDBRANCH  22  23
ENDBRANCH  21  22
ENDBRANCH   1  21
BRANCH   2  30
HETATM   30  O   UNL     1       5.660   7.769  22.443  0.00  0.00    -0.360 OA
HETATM   31  H   UNL     1       5.542   8.258  21.610  0.00  0.00     0.217 HD
ENDBRANCH   2  30
TORSDOF 7
ENDMDL
MODEL 4
REMARK minimizedAffinity -9.98456478
REMARK minimizedRMSD -1
REMARK  7 active torsions:
REMARK  status: ('A' for Active; 'I' for Inactive)
REMARK    1  A    between atoms: C_6  and  C_7 
REMARK    2  A    between atoms: C_7  and  C_8 
REMARK    3  A    between atoms: C_8  and  C_9 
REMARK    4  A    between atoms: C_10  and  O_11 
REMARK    5  A    between atoms: C_13  and  O_14 
REMARK    6  A    between atoms: C_15  and  C_17 
REMARK    7  A    between atoms: N_21  and  C_22 
ROOT
HETATM    1  C   UNL     1       5.549  10.504  23.360  0.00  0.00    -0.024 C 
HETATM    2  C   UNL     1       5.734   9.426  22.496  0.00  0.00     0.074 C 
HETATM    3  C   UNL     1       4.934   8.290  22.579  0.00  0.00     0.074 C 
HETATM    4  C   UNL     1       3.882   8.255  23.497  0.00  0.00     0.081 C 
HETATM    5  C   UNL     1       3.666   9.304  24.416  0.00  0.00     0.026 C 
HETATM    6  C   UNL     1       4.603  10.352  24.397  0.00  0.00     0.026 C 
ENDROOT
BRANCH   5   7
HETATM    7  C   UNL     1       2.486   9.311  25.331  0.00  0.00     0.073 A 
HETATM    8  C   UNL     1       2.347   8.551  26.490  0.00  0.00     0.053 A 
HETATM    9  C   UNL     1       1.085   8.824  27.001  0.00  0.00     0.141 A 
HETATM   10  N   UNL     1       0.439   9.721  26.276  0.00  0.00    -0.179 NA
HETATM   11  N   UNL     1       1.288  10.071  25.269  0.00  0.00    -0.232 N 
BRANCH  11  12
HETATM   12  C   UNL     1       0.833  11.060  24.333  0.00  0.00     0.080 A 
HETATM   13  C   UNL     1      -0.538  11.293  24.093  0.00  0.00     0.062 A 
HETATM   14 CL   UNL     1      -1.857  10.432  24.819  0.00  0.00    -0.082 Cl
HETATM   15  C   UNL     1      -0.932  12.362  23.271  0.00  0.00     0.026 A 
HETATM   16  C   UNL     1       0.011  13.206  22.690  0.00  0.00     0.002 A 
HETATM   17  C   UNL     1       1.362  12.938  22.864  0.00  0.00     0.002 A 
HETATM   18  C   UNL     1       1.766  11.847  23.638  0.00  0.00     0.033 A 
ENDBRANCH  11  12
ENDBRANCH   5   7
BRANCH   4  19
HETATM   19  O   UNL     1       3.049   7.164  23.468  0.00  0.00    -0.360 OA
HETATM   20  H   UNL     1       3.398   6.507  22.842  0.00  0.00     0.217 HD
ENDBRANCH   4  19
BRANCH   1  21
HETATM   21  C   UNL     1       6.272  11.836  23.223  0.00  0.00     0.047 C 
BRANCH  21  22
HETATM   22  C   UNL     1       6.666  12.489  24.566  0.00  0.00     0.061 C 
BRANCH  22  23
HETATM   23  C   UNL     1       5.782  13.629  25.025  0.00  0.00     0.005 A 
HETATM   24  N   UNL     1       6.209  14.393  26.093  0.00  0.00    -0.370 N 
HETATM   25  C   UNL     1       5.561  15.529  26.501  0.00  0.00     0.084 A 
HETATM   26  H   UNL     1       7.123  14.200  26.492  0.00  0.00     0.165 HD
HETATM   27  C   UNL     1       4.441  15.962  25.904  0.00  0.00    -0.006 A 
HETATM   28  C   UNL     1       3.857  15.201  24.735  0.00  0.00     0.057 A 
HETATM   29  C   UNL     1       4.659  13.975  24.359  0.00  0.00     0.002 A 
ENDBRANCH  22  23
ENDBRANCH  21  22
ENDBRANCH   1  21
BRANCH   2  30
HETATM   30  O   UNL     1       6.706   9.425  21.545  0.00  0.00    -0.360 OA
HETATM   31  H   UNL     1       6.309   9.826  20.752  0.00  0.00     0.217 HD
ENDBRANCH   2  30
TORSDOF 7
ENDMDL
MODEL 5
REMARK minimizedAffinity -9.81077766
REMARK minimizedRMSD -1
REMARK  7 active torsions:
REMARK  status: ('A' for Active; 'I' for Inactive)
REMARK    1  A    between atoms: C_6  and  C_7 
REMARK    2  A    between atoms: C_7  and  C_8 
REMARK    3  A    between atoms: C_8  and  C_9 
REMARK    4  A    between atoms: C_10  and  O_11 
REMARK    5  A    between atoms: C_13  and  O_14 
REMARK    6  A    between atoms: C_15  and  C_17 
REMARK    7  A    between atoms: N_21  and  C_22 
ROOT
HETATM    1  C   UNL     1       1.878   9.068  26.201  0.00  0.00    -0.024 C 
HETATM    2  C   UNL     1       0.667   9.539  25.697  0.00  0.00     0.074 C 
HETATM    3  C   UNL     1       0.629  10.445  24.642  0.00  0.00     0.074 C 
HETATM    4  C   UNL     1       1.820  10.840  24.030  0.00  0.00     0.081 C 
HETATM    5  C   UNL     1       3.077  10.420  24.517  0.00  0.00     0.026 C 
HETATM    6  C   UNL     1       3.063   9.637  25.684  0.00  0.00     0.026 C 
ENDROOT
BRANCH   5   7
HETATM    7  C   UNL     1       4.344  10.763  23.808  0.00  0.00     0.073 A 
HETATM    8  C   UNL     1       5.051   9.928  22.947  0.00  0.00     0.053 A 
HETATM    9  C   UNL     1       6.188  10.622  22.555  0.00  0.00     0.141 A 
HETATM   10  N   UNL     1       6.230  11.838  23.071  0.00  0.00    -0.179 NA
HETATM   11  N   UNL     1       5.093  11.971  23.810  0.00  0.00    -0.232 N 
BRANCH  11  12
HETATM   12  C   UNL     1       4.878  13.224  24.475  0.00  0.00     0.080 A 
HETATM   13  C   UNL     1       5.882  13.850  25.244  0.00  0.00     0.062 A 
HETATM   14 CL   UNL     1       7.469  13.218  25.550  0.00  0.00    -0.082 Cl
HETATM   15  C   UNL     1       5.667  15.138  25.762  0.00  0.00     0.026 A 
HETATM   16  C   UNL     1       4.477  15.818  25.521  0.00  0.00     0.002 A 
HETATM   17  C   UNL     1       3.457  15.180  24.825  0.00  0.00     0.002 A 
HETATM   18  C   UNL     1       3.641  13.879  24.350  0.00  0.00     0.033 A 
ENDBRANCH  11  12
ENDBRANCH   5   7
BRANCH   4  19
HETATM   19  O   UNL     1       1.730  11.646  22.923  0.00  0.00    -0.360 OA
HETATM   20  H   UNL     1       0.804  11.907  22.787  0.00  0.00     0.217 HD
ENDBRANCH   4  19
BRANCH   1  21
HETATM   21  C   UNL     1       1.994   7.959  27.237  0.00  0.00     0.047 C 
BRANCH  21  22
HETATM   22  C   UNL     1       2.367   8.446  28.654  0.00  0.00     0.061 C 
BRANCH  22  23
HETATM   23  C   UNL     1       1.896   7.568  29.794  0.00  0.00     0.005 A 
HETATM   24  N   UNL     1       1.192   8.161  30.823  0.00  0.00    -0.370 N 
HETATM   25  C   UNL     1       0.600   7.444  31.829  0.00  0.00     0.084 A 
HETATM   26  H   UNL     1       0.966   9.148  30.749  0.00  0.00     0.165 HD
HETATM   27  C   UNL     1       0.693   6.109  31.899  0.00  0.00    -0.006 A 
HETATM   28  C   UNL     1       1.457   5.340  30.845  0.00  0.00     0.057 A 
HETATM   29  C   UNL     1       2.054   6.226  29.774  0.00  0.00     0.002 A 
ENDBRANCH  22  23
ENDBRANCH  21  22
ENDBRANCH   1  21
BRANCH   2  30
HETATM   30  O   UNL     1      -0.529   9.148  26.215  0.00  0.00    -0.360 OA
HETATM   31  H   UNL     1      -0.785   8.345  25.727  0.00  0.00     0.217 HD
ENDBRANCH   2  30
TORSDOF 7
ENDMDL
MODEL 6
REMARK minimizedAffinity -9.7320118
REMARK minimizedRMSD -1
REMARK  7 active torsions:
REMARK  status: ('A' for Active; 'I' for Inactive)
REMARK    1  A    between atoms: C_6  and  C_7 
REMARK    2  A    between atoms: C_7  and  C_8 
REMARK    3  A    between atoms: C_8  and  C_9 
REMARK    4  A    between atoms: C_10  and  O_11 
REMARK    5  A    between atoms: C_13  and  O_14 
REMARK    6  A    between atoms: C_15  and  C_17 
REMARK    7  A    between atoms: N_21  and  C_22 
ROOT
HETATM    1  C   UNL     1       6.223  10.825  23.649  0.00  0.00    -0.024 C 
HETATM    2  C   UNL     1       7.533  10.367  23.775  0.00  0.00     0.074 C 
HETATM    3  C   UNL     1       7.837   9.014  23.662  0.00  0.00     0.074 C 
HETATM    4  C   UNL     1       6.825   8.105  23.349  0.00  0.00     0.081 C 
HETATM    5  C   UNL     1       5.476   8.507  23.239  0.00  0.00     0.026 C 
HETATM    6  C   UNL     1       5.204   9.857  23.524  0.00  0.00     0.026 C 
ENDROOT
BRANCH   5   7
HETATM    7  C   UNL     1       4.409   7.556  22.811  0.00  0.00     0.073 A 
HETATM    8  C   UNL     1       4.476   6.687  21.725  0.00  0.00     0.053 A 
HETATM    9  C   UNL     1       3.256   6.028  21.658  0.00  0.00     0.141 A 
HETATM   10  N   UNL     1       2.445   6.388  22.638  0.00  0.00    -0.179 NA
HETATM   11  N   UNL     1       3.138   7.292  23.387  0.00  0.00    -0.232 N 
BRANCH  11  12
HETATM   12  C   UNL     1       2.482   7.836  24.542  0.00  0.00     0.080 A 
HETATM   13  C   UNL     1       2.700   7.325  25.840  0.00  0.00     0.062 A 
HETATM   14 CL   UNL     1       3.715   5.978  26.245  0.00  0.00    -0.082 Cl
HETATM   15  C   UNL     1       2.141   7.977  26.951  0.00  0.00     0.026 A 
HETATM   16  C   UNL     1       1.377   9.131  26.796  0.00  0.00     0.002 A 
HETATM   17  C   UNL     1       1.100   9.598  25.517  0.00  0.00     0.002 A 
HETATM   18  C   UNL     1       1.609   8.927  24.402  0.00  0.00     0.033 A 
ENDBRANCH  11  12
ENDBRANCH   5   7
BRANCH   4  19
HETATM   19  O   UNL     1       7.187   6.798  23.135  0.00  0.00    -0.360 OA
HETATM   20  H   UNL     1       8.130   6.686  23.340  0.00  0.00     0.217 HD
ENDBRANCH   4  19
BRANCH   1  21
HETATM   21  C   UNL     1       5.839  12.297  23.599  0.00  0.00     0.047 C 
BRANCH  21  22
HETATM   22  C   UNL     1       4.813  12.726  24.669  0.00  0.00     0.061 C 
BRANCH  22  23
HETATM   23  C   UNL     1       3.443  13.109  24.149  0.00  0.00     0.005 A 
HETATM   24  N   UNL     1       2.770  12.200  23.359  0.00  0.00    -0.370 N 
HETATM   25  C   UNL     1       1.475  12.382  22.953  0.00  0.00     0.084 A 
HETATM   26  H   UNL     1       3.191  11.288  23.203  0.00  0.00     0.165 HD
HETATM   27  C   UNL     1       0.778  13.481  23.273  0.00  0.00    -0.006 A 
HETATM   28  C   UNL     1       1.409  14.566  24.118  0.00  0.00     0.057 A 
HETATM   29  C   UNL     1       2.832  14.254  24.524  0.00  0.00     0.002 A 
ENDBRANCH  22  23
ENDBRANCH  21  22
ENDBRANCH   1  21
BRANCH   2  30
HETATM   30  O   UNL     1       8.570  11.211  24.026  0.00  0.00    -0.360 OA
HETATM   31  H   UNL     1       8.893  11.507  23.157  0.00  0.00     0.217 HD
ENDBRANCH   2  30
TORSDOF 7
ENDMDL
MODEL 7
REMARK minimizedAffinity -9.71846008
REMARK minimizedRMSD -1
REMARK  7 active torsions:
REMARK  status: ('A' for Active; 'I' for Inactive)
REMARK    1  A    between atoms: C_6  and  C_7 
REMARK    2  A    between atoms: C_7  and  C_8 
REMARK    3  A    between atoms: C_8  and  C_9 
REMARK    4  A    between atoms: C_10  and  O_11 
REMARK    5  A    between atoms: C_13  and  O_14 
REMARK    6  A    between atoms: C_15  and  C_17 
REMARK    7  A    between atoms: N_21  and  C_22 
ROOT
HETATM    1  C   UNL     1       1.794   9.388  25.867  0.00  0.00    -0.024 C 
HETATM    2  C   UNL     1       0.638   9.867  25.255  0.00  0.00     0.074 C 
HETATM    3  C   UNL     1       0.703  10.768  24.196  0.00  0.00     0.074 C 
HETATM    4  C   UNL     1       1.948  11.147  23.691  0.00  0.00     0.081 C 
HETATM    5  C   UNL     1       3.152  10.717  24.289  0.00  0.00     0.026 C 
HETATM    6  C   UNL     1       3.026   9.941  25.454  0.00  0.00     0.026 C 
ENDROOT
BRANCH   5   7
HETATM    7  C   UNL     1       4.481  11.044  23.693  0.00  0.00     0.073 A 
HETATM    8  C   UNL     1       5.220  10.224  22.844  0.00  0.00     0.053 A 
HETATM    9  C   UNL     1       6.408  10.889  22.572  0.00  0.00     0.141 A 
HETATM   10  N   UNL     1       6.455  12.076  23.153  0.00  0.00    -0.179 NA
HETATM   11  N   UNL     1       5.271  12.218  23.813  0.00  0.00    -0.232 N 
BRANCH  11  12
HETATM   12  C   UNL     1       5.052  13.446  24.524  0.00  0.00     0.080 A 
HETATM   13  C   UNL     1       6.033  14.011  25.367  0.00  0.00     0.062 A 
HETATM   14 CL   UNL     1       7.589  13.328  25.716  0.00  0.00    -0.082 Cl
HETATM   15  C   UNL     1       5.823  15.280  25.933  0.00  0.00     0.026 A 
HETATM   16  C   UNL     1       4.660  15.999  25.669  0.00  0.00     0.002 A 
HETATM   17  C   UNL     1       3.660  15.418  24.898  0.00  0.00     0.002 A 
HETATM   18  C   UNL     1       3.838  14.135  24.373  0.00  0.00     0.033 A 
ENDBRANCH  11  12
ENDBRANCH   5   7
BRANCH   4  19
HETATM   19  O   UNL     1       1.965  11.947  22.575  0.00  0.00    -0.360 OA
HETATM   20  H   UNL     1       1.057  12.217  22.357  0.00  0.00     0.217 HD
ENDBRANCH   4  19
BRANCH   1  21
HETATM   21  C   UNL     1       1.807   8.284  26.915  0.00  0.00     0.047 C 
BRANCH  21  22
HETATM   22  C   UNL     1       2.704   7.079  26.562  0.00  0.00     0.061 C 
BRANCH  22  23
HETATM   23  C   UNL     1       2.637   6.610  25.123  0.00  0.00     0.005 A 
HETATM   24  N   UNL     1       1.395   6.354  24.580  0.00  0.00    -0.370 N 
HETATM   25  C   UNL     1       1.208   6.062  23.254  0.00  0.00     0.084 A 
HETATM   26  H   UNL     1       0.571   6.543  25.143  0.00  0.00     0.165 HD
HETATM   27  C   UNL     1       2.233   5.976  22.395  0.00  0.00    -0.006 A 
HETATM   28  C   UNL     1       3.649   6.214  22.869  0.00  0.00     0.057 A 
HETATM   29  C   UNL     1       3.738   6.544  24.342  0.00  0.00     0.002 A 
ENDBRANCH  22  23
ENDBRANCH  21  22
ENDBRANCH   1  21
BRANCH   2  30
HETATM   30  O   UNL     1      -0.603   9.492  25.667  0.00  0.00    -0.360 OA
HETATM   31  H   UNL     1      -0.823   8.689  25.163  0.00  0.00     0.217 HD
ENDBRANCH   2  30
TORSDOF 7
ENDMDL
MODEL 8
REMARK minimizedAffinity -9.70192528
REMARK minimizedRMSD -1
REMARK  7 active torsions:
REMARK  status: ('A' for Active; 'I' for Inactive)
REMARK    1  A    between atoms: C_6  and  C_7 
REMARK    2  A    between atoms: C_7  and  C_8 
REMARK    3  A    between atoms: C_8  and  C_9 
REMARK    4  A    between atoms: C_10  and  O_11 
REMARK    5  A    between atoms: C_13  and  O_14 
REMARK    6  A    between atoms: C_15  and  C_17 
REMARK    7  A    between atoms: N_21  and  C_22 
ROOT
HETATM    1  C   UNL     1       3.123   8.086  24.822  0.00  0.00    -0.024 C 
HETATM    2  C   UNL     1       3.571   7.195  23.848  0.00  0.00     0.074 C 
HETATM    3  C   UNL     1       4.460   7.599  22.856  0.00  0.00     0.074 C 
HETATM    4  C   UNL     1       4.967   8.900  22.874  0.00  0.00     0.081 C 
HETATM    5  C   UNL     1       4.527   9.853  23.818  0.00  0.00     0.026 C 
HETATM    6  C   UNL     1       3.508   9.439  24.693  0.00  0.00     0.026 C 
ENDROOT
BRANCH   5   7
HETATM    7  C   UNL     1       5.137  11.213  23.898  0.00  0.00     0.073 A 
HETATM    8  C   UNL     1       6.499  11.494  23.974  0.00  0.00     0.053 A 
HETATM    9  C   UNL     1       6.621  12.873  24.086  0.00  0.00     0.141 A 
HETATM   10  N   UNL     1       5.446  13.479  24.048  0.00  0.00    -0.179 NA
HETATM   11  N   UNL     1       4.519  12.492  23.891  0.00  0.00    -0.232 N 
BRANCH  11  12
HETATM   12  C   UNL     1       3.142  12.885  23.800  0.00  0.00     0.080 A 
HETATM   13  C   UNL     1       2.635  14.009  24.487  0.00  0.00     0.062 A 
HETATM   14 CL   UNL     1       3.534  15.040  25.553  0.00  0.00    -0.082 Cl
HETATM   15  C   UNL     1       1.314  14.431  24.260  0.00  0.00     0.026 A 
HETATM   16  C   UNL     1       0.493  13.761  23.356  0.00  0.00     0.002 A 
HETATM   17  C   UNL     1       0.963  12.612  22.732  0.00  0.00     0.002 A 
HETATM   18  C   UNL     1       2.258  12.154  22.990  0.00  0.00     0.033 A 
ENDBRANCH  11  12
ENDBRANCH   5   7
BRANCH   4  19
HETATM   19  O   UNL     1       5.926   9.221  21.947  0.00  0.00    -0.360 OA
HETATM   20  H   UNL     1       6.039   8.481  21.328  0.00  0.00     0.217 HD
ENDBRANCH   4  19
BRANCH   1  21
HETATM   21  C   UNL     1       2.284   7.679  26.025  0.00  0.00     0.047 C 
BRANCH  21  22
HETATM   22  C   UNL     1       0.774   7.547  25.735  0.00  0.00     0.061 C 
BRANCH  22  23
HETATM   23  C   UNL     1      -0.017   8.837  25.776  0.00  0.00     0.005 A 
HETATM   24  N   UNL     1      -0.451   9.372  24.580  0.00  0.00    -0.370 N 
HETATM   25  C   UNL     1      -1.289  10.453  24.508  0.00  0.00     0.084 A 
HETATM   26  H   UNL     1      -0.274   8.853  23.724  0.00  0.00     0.165 HD
HETATM   27  C   UNL     1      -1.723  11.089  25.605  0.00  0.00    -0.006 A 
HETATM   28  C   UNL     1      -1.303  10.615  26.978  0.00  0.00     0.057 A 
HETATM   29  C   UNL     1      -0.393   9.408  26.941  0.00  0.00     0.002 A 
ENDBRANCH  22  23
ENDBRANCH  21  22
ENDBRANCH   1  21
BRANCH   2  30
HETATM   30  O   UNL     1       3.155   5.901  23.811  0.00  0.00    -0.360 OA
HETATM   31  H   UNL     1       3.777   5.402  24.370  0.00  0.00     0.217 HD
ENDBRANCH   2  30
TORSDOF 7
ENDMDL
MODEL 9
REMARK minimizedAffinity -9.68718338
REMARK minimizedRMSD -1
REMARK  7 active torsions:
REMARK  status: ('A' for Active; 'I' for Inactive)
REMARK    1  A    between atoms: C_6  and  C_7 
REMARK    2  A    between atoms: C_7  and  C_8 
REMARK    3  A    between atoms: C_8  and  C_9 
REMARK    4  A    between atoms: C_10  and  O_11 
REMARK    5  A    between atoms: C_13  and  O_14 
REMARK    6  A    between atoms: C_15  and  C_17 
REMARK    7  A    between atoms: N_21  and  C_22 
ROOT
HETATM    1  C   UNL     1       2.386  13.813  24.324  0.00  0.00    -0.024 C 
HETATM    2  C   UNL     1       1.034  13.967  24.026  0.00  0.00     0.074 C 
HETATM    3  C   UNL     1       0.190  12.865  23.914  0.00  0.00     0.074 C 
HETATM    4  C   UNL     1       0.690  11.587  24.171  0.00  0.00     0.081 C 
HETATM    5  C   UNL     1       2.057  11.368  24.447  0.00  0.00     0.026 C 
HETATM    6  C   UNL     1       2.893  12.496  24.387  0.00  0.00     0.026 C 
ENDROOT
BRANCH   5   7
HETATM    7  C   UNL     1       2.573  10.016  24.816  0.00  0.00     0.073 A 
HETATM    8  C   UNL     1       1.874   9.038  25.517  0.00  0.00     0.053 A 
HETATM    9  C   UNL     1       2.740   7.966  25.687  0.00  0.00     0.141 A 
HETATM   10  N   UNL     1       3.912   8.181  25.115  0.00  0.00    -0.179 NA
HETATM   11  N   UNL     1       3.828   9.412  24.536  0.00  0.00    -0.232 N 
BRANCH  11  12
HETATM   12  C   UNL     1       4.977   9.888  23.821  0.00  0.00     0.080 A 
HETATM   13  C   UNL     1       5.363   9.351  22.574  0.00  0.00     0.062 A 
HETATM   14 CL   UNL     1       4.580   8.044  21.745  0.00  0.00    -0.082 Cl
HETATM   15  C   UNL     1       6.415   9.941  21.853  0.00  0.00     0.026 A 
HETATM   16  C   UNL     1       7.082  11.059  22.344  0.00  0.00     0.002 A 
HETATM   17  C   UNL     1       6.755  11.549  23.602  0.00  0.00     0.002 A 
HETATM   18  C   UNL     1       5.745  10.938  24.351  0.00  0.00     0.033 A 
ENDBRANCH  11  12
ENDBRANCH   5   7
BRANCH   4  19
HETATM   19  O   UNL     1      -0.200  10.542  24.160  0.00  0.00    -0.360 OA
HETATM   20  H   UNL     1      -1.069  10.861  23.864  0.00  0.00     0.217 HD
ENDBRANCH   4  19
BRANCH   1  21
HETATM   21  C   UNL     1       3.328  14.970  24.622  0.00  0.00     0.047 C 
BRANCH  21  22
HETATM   22  C   UNL     1       4.009  14.900  26.005  0.00  0.00     0.061 C 
BRANCH  22  23
HETATM   23  C   UNL     1       5.522  14.829  25.989  0.00  0.00     0.005 A 
HETATM   24  N   UNL     1       6.157  14.242  27.064  0.00  0.00    -0.370 N 
HETATM   25  C   UNL     1       7.506  14.000  27.091  0.00  0.00     0.084 A 
HETATM   26  H   UNL     1       5.588  13.829  27.797  0.00  0.00     0.165 HD
HETATM   27  C   UNL     1       8.310  14.348  26.077  0.00  0.00    -0.006 A 
HETATM   28  C   UNL     1       7.741  15.020  24.848  0.00  0.00     0.057 A 
HETATM   29  C   UNL     1       6.243  15.224  24.917  0.00  0.00     0.002 A 
ENDBRANCH  22  23
ENDBRANCH  21  22
ENDBRANCH   1  21
BRANCH   2  30
HETATM   30  O   UNL     1       0.477  15.190  23.820  0.00  0.00    -0.360 OA
HETATM   31  H   UNL     1       0.189  15.507  24.694  0.00  0.00     0.217 HD
ENDBRANCH   2  30
TORSDOF 7
ENDMDL
