MODEL 1
REMARK VINA RESULT:    -7.965      0.000      0.000
REMARK INTER + INTRA:         -12.524
REMARK INTER:                 -11.541
REMARK INTRA:                  -0.983
REMARK UNBOUND:                -1.300
REMARK  8 active torsions:
REMARK  status: ('A' for Active; 'I' for Inactive)
REMARK    1  A    between atoms: C_6  and  N_7 
REMARK    2  A    between atoms: C_13  and  C_14 
REMARK    3  A    between atoms: C_15  and  O_16 
REMARK    4  A    between atoms: C_18  and  O_19 
REMARK    5  A    between atoms: C_21  and  C_22 
REMARK       I    between atoms: C_22  and  N_24 
REMARK    6  A    between atoms: N_24  and  C_26 
REMARK    7  A    between atoms: C_26  and  C_27 
REMARK    8  A    between atoms: C_27  and  C_28 
ROOT
HETATM    1  C   UNL     1       0.489   8.326  26.108  0.00  0.00     0.046 C 
HETATM    2  C   UNL     1       0.638   8.644  27.459  0.00  0.00     0.082 C 
HETATM    3  C   UNL     1      -0.086   9.696  28.009  0.00  0.00     0.075 C 
HETATM    4  C   UNL     1      -0.974  10.431  27.207  0.00  0.00     0.084 C 
HETATM    5  C   UNL     1      -0.486   8.999  25.362  0.00  0.00     0.038 C 
HETATM    6  C   UNL     1      -1.187  10.103  25.851  0.00  0.00     0.066 C 
ENDROOT
BRANCH   1   7
HETATM    7  C   UNL     1       1.324   7.273  25.477  0.00  0.00     0.171 A 
HETATM    8  N   UNL     1       2.371   7.464  24.593  0.00  0.00    -0.244 N 
HETATM    9  C   UNL     1       2.696   6.185  24.173  0.00  0.00     0.349 A 
HETATM   10  O   UNL     1       3.516   5.797  23.352  0.00  0.00    -0.245 OA
HETATM   11  N   UNL     1       1.880   5.327  24.898  0.00  0.00    -0.226 N 
HETATM   12  H   UNL     1       1.854   4.320  24.792  0.00  0.00     0.194 HD
HETATM   13  N   UNL     1       1.028   6.016  25.697  0.00  0.00    -0.151 NA
BRANCH   8  14
HETATM   14  C   UNL     1       3.038   8.644  24.135  0.00  0.00     0.045 C 
HETATM   15  C   UNL     1       2.940   9.872  24.806  0.00  0.00     0.030 C 
HETATM   16  C   UNL     1       3.392  11.064  24.224  0.00  0.00     0.002 C 
HETATM   17  C   UNL     1       4.064  11.035  23.010  0.00  0.00     0.000 C 
HETATM   18  C   UNL     1       4.301   9.814  22.393  0.00  0.00     0.002 C 
HETATM   19  C   UNL     1       3.789   8.632  22.948  0.00  0.00     0.030 C 
ENDBRANCH   8  14
ENDBRANCH   1   7
BRANCH   2  20
HETATM   20  O   UNL     1       1.477   7.966  28.302  0.00  0.00    -0.360 OA
HETATM   21  H   UNL     1       2.161   8.592  28.624  0.00  0.00     0.217 HD
ENDBRANCH   2  20
BRANCH   6  22
HETATM   22  C   UNL     1      -1.931  11.040  24.931  0.00  0.00     0.256 C 
HETATM   23  O   UNL     1      -3.163  10.942  24.940  0.00  0.00    -0.267 OA
HETATM   24  N   UNL     1      -1.330  12.036  24.127  0.00  0.00    -0.352 N 
HETATM   25  C   UNL     1       0.073  12.406  23.990  0.00  0.00     0.152 C 
BRANCH  24  26
HETATM   26  C   UNL     1      -2.216  12.698  23.154  0.00  0.00     0.125 C 
BRANCH  26  27
HETATM   27  C   UNL     1      -1.967  12.220  21.721  0.00  0.00     0.020 C 
BRANCH  27  28
HETATM   28  C   UNL     1      -1.739  13.393  20.764  0.00  0.00    -0.003 C 
HETATM   29  C   UNL     1      -3.046  13.865  20.145  0.00  0.00     0.005 C 
ENDBRANCH  27  28
ENDBRANCH  26  27
ENDBRANCH  24  26
ENDBRANCH   6  22
BRANCH   4  30
HETATM   30  O   UNL     1      -1.654  11.465  27.791  0.00  0.00    -0.360 OA
HETATM   31  H   UNL     1      -2.036  12.043  27.111  0.00  0.00     0.217 HD
ENDBRANCH   4  30
TORSDOF 8
ENDMDL
MODEL 2
REMARK VINA RESULT:    -7.724      3.637      5.784
REMARK INTER + INTRA:         -12.185
REMARK INTER:                 -10.804
REMARK INTRA:                  -1.381
REMARK UNBOUND:                -1.300
REMARK  8 active torsions:
REMARK  status: ('A' for Active; 'I' for Inactive)
REMARK    1  A    between atoms: C_6  and  N_7 
REMARK    2  A    between atoms: C_13  and  C_14 
REMARK    3  A    between atoms: C_15  and  O_16 
REMARK    4  A    between atoms: C_18  and  O_19 
REMARK    5  A    between atoms: C_21  and  C_22 
REMARK       I    between atoms: C_22  and  N_24 
REMARK    6  A    between atoms: N_24  and  C_26 
REMARK    7  A    between atoms: C_26  and  C_27 
REMARK    8  A    between atoms: C_27  and  C_28 
ROOT
HETATM    1  C   UNL     1       4.600   7.288  22.422  0.00  0.00     0.046 C 
HETATM    2  C   UNL     1       5.329   6.623  23.409  0.00  0.00     0.082 C 
HETATM    3  C   UNL     1       4.943   6.721  24.741  0.00  0.00     0.075 C 
HETATM    4  C   UNL     1       3.816   7.482  25.091  0.00  0.00     0.084 C 
HETATM    5  C   UNL     1       3.417   7.942  22.785  0.00  0.00     0.038 C 
HETATM    6  C   UNL     1       3.027   8.124  24.113  0.00  0.00     0.066 C 
ENDROOT
BRANCH   1   7
HETATM    7  C   UNL     1       5.049   7.279  21.007  0.00  0.00     0.171 A 
HETATM    8  N   UNL     1       4.343   6.806  19.916  0.00  0.00    -0.244 N 
HETATM    9  C   UNL     1       5.253   6.863  18.874  0.00  0.00     0.349 A 
HETATM   10  O   UNL     1       5.156   6.511  17.706  0.00  0.00    -0.245 OA
HETATM   11  N   UNL     1       6.400   7.442  19.401  0.00  0.00    -0.226 N 
HETATM   12  H   UNL     1       7.264   7.589  18.893  0.00  0.00     0.194 HD
HETATM   13  N   UNL     1       6.262   7.687  20.727  0.00  0.00    -0.151 NA
BRANCH   8  14
HETATM   14  C   UNL     1       3.001   6.335  19.772  0.00  0.00     0.045 C 
HETATM   15  C   UNL     1       2.501   5.248  20.506  0.00  0.00     0.030 C 
HETATM   16  C   UNL     1       1.278   4.646  20.186  0.00  0.00     0.002 C 
HETATM   17  C   UNL     1       0.467   5.196  19.202  0.00  0.00     0.000 C 
HETATM   18  C   UNL     1       0.873   6.358  18.558  0.00  0.00     0.002 C 
HETATM   19  C   UNL     1       2.128   6.917  18.837  0.00  0.00     0.030 C 
ENDBRANCH   8  14
ENDBRANCH   1   7
BRANCH   2  20
HETATM   20  O   UNL     1       6.431   5.857  23.141  0.00  0.00    -0.360 OA
HETATM   21  H   UNL     1       7.133   6.443  22.782  0.00  0.00     0.217 HD
ENDBRANCH   2  20
BRANCH   6  22
HETATM   22  C   UNL     1       1.983   9.143  24.501  0.00  0.00     0.256 C 
HETATM   23  O   UNL     1       2.313  10.328  24.380  0.00  0.00    -0.267 OA
HETATM   24  N   UNL     1       0.670   8.839  24.925  0.00  0.00    -0.352 N 
HETATM   25  C   UNL     1       0.012   7.547  25.079  0.00  0.00     0.152 C 
BRANCH  24  26
HETATM   26  C   UNL     1      -0.115   9.969  25.451  0.00  0.00     0.125 C 
BRANCH  26  27
HETATM   27  C   UNL     1      -1.364  10.253  24.612  0.00  0.00     0.020 C 
BRANCH  27  28
HETATM   28  C   UNL     1      -1.212  11.532  23.785  0.00  0.00    -0.003 C 
HETATM   29  C   UNL     1      -2.568  12.087  23.371  0.00  0.00     0.005 C 
ENDBRANCH  27  28
ENDBRANCH  26  27
ENDBRANCH  24  26
ENDBRANCH   6  22
BRANCH   4  30
HETATM   30  O   UNL     1       3.485   7.558  26.417  0.00  0.00    -0.360 OA
HETATM   31  H   UNL     1       3.916   8.327  26.827  0.00  0.00     0.217 HD
ENDBRANCH   4  30
TORSDOF 8
ENDMDL
MODEL 3
REMARK VINA RESULT:    -7.517      4.119      6.862
REMARK INTER + INTRA:         -11.892
REMARK INTER:                 -10.670
REMARK INTRA:                  -1.222
REMARK UNBOUND:                -1.300
REMARK  8 active torsions:
REMARK  status: ('A' for Active; 'I' for Inactive)
REMARK    1  A    between atoms: C_6  and  N_7 
REMARK    2  A    between atoms: C_13  and  C_14 
REMARK    3  A    between atoms: C_15  and  O_16 
REMARK    4  A    between atoms: C_18  and  O_19 
REMARK    5  A    between atoms: C_21  and  C_22 
REMARK       I    between atoms: C_22  and  N_24 
REMARK    6  A    between atoms: N_24  and  C_26 
REMARK    7  A    between atoms: C_26  and  C_27 
REMARK    8  A    between atoms: C_27  and  C_28 
ROOT
HETATM    1  C   UNL     1       4.165   6.825  21.969  0.00  0.00     0.046 C 
HETATM    2  C   UNL     1       5.556   6.805  21.856  0.00  0.00     0.082 C 
HETATM    3  C   UNL     1       6.165   7.290  20.704  0.00  0.00     0.075 C 
HETATM    4  C   UNL     1       5.382   7.807  19.660  0.00  0.00     0.084 C 
HETATM    5  C   UNL     1       3.417   7.450  20.965  0.00  0.00     0.038 C 
HETATM    6  C   UNL     1       3.977   7.889  19.764  0.00  0.00     0.066 C 
ENDROOT
BRANCH   1   7
HETATM    7  C   UNL     1       3.488   6.222  23.145  0.00  0.00     0.171 A 
HETATM    8  N   UNL     1       2.903   6.898  24.200  0.00  0.00    -0.244 N 
HETATM    9  C   UNL     1       2.575   5.898  25.101  0.00  0.00     0.349 A 
HETATM   10  O   UNL     1       2.085   5.959  26.220  0.00  0.00    -0.245 OA
HETATM   11  N   UNL     1       2.910   4.702  24.481  0.00  0.00    -0.226 N 
HETATM   12  H   UNL     1       2.821   3.784  24.900  0.00  0.00     0.194 HD
HETATM   13  N   UNL     1       3.483   4.918  23.271  0.00  0.00    -0.151 NA
BRANCH   8  14
HETATM   14  C   UNL     1       2.650   8.287  24.430  0.00  0.00     0.045 C 
HETATM   15  C   UNL     1       1.414   8.759  24.897  0.00  0.00     0.030 C 
HETATM   16  C   UNL     1       1.098  10.124  24.887  0.00  0.00     0.002 C 
HETATM   17  C   UNL     1       2.059  11.058  24.524  0.00  0.00     0.000 C 
HETATM   18  C   UNL     1       3.337  10.626  24.194  0.00  0.00     0.002 C 
HETATM   19  C   UNL     1       3.626   9.255  24.144  0.00  0.00     0.030 C 
ENDBRANCH   8  14
ENDBRANCH   1   7
BRANCH   2  20
HETATM   20  O   UNL     1       6.383   6.326  22.836  0.00  0.00    -0.360 OA
HETATM   21  H   UNL     1       5.841   5.802  23.466  0.00  0.00     0.217 HD
ENDBRANCH   2  20
BRANCH   6  22
HETATM   22  C   UNL     1       3.124   8.197  18.557  0.00  0.00     0.256 C 
HETATM   23  O   UNL     1       2.639   9.333  18.512  0.00  0.00    -0.267 OA
HETATM   24  N   UNL     1       2.900   7.315  17.475  0.00  0.00    -0.352 N 
HETATM   25  C   UNL     1       3.408   5.968  17.246  0.00  0.00     0.152 C 
BRANCH  24  26
HETATM   26  C   UNL     1       1.874   7.734  16.505  0.00  0.00     0.125 C 
BRANCH  26  27
HETATM   27  C   UNL     1       0.811   6.655  16.278  0.00  0.00     0.020 C 
BRANCH  27  28
HETATM   28  C   UNL     1       0.024   6.358  17.556  0.00  0.00    -0.003 C 
HETATM   29  C   UNL     1      -0.263   4.870  17.696  0.00  0.00     0.005 C 
ENDBRANCH  27  28
ENDBRANCH  26  27
ENDBRANCH  24  26
ENDBRANCH   6  22
BRANCH   4  30
HETATM   30  O   UNL     1       6.028   8.260  18.542  0.00  0.00    -0.360 OA
HETATM   31  H   UNL     1       6.745   8.867  18.791  0.00  0.00     0.217 HD
ENDBRANCH   4  30
TORSDOF 8
ENDMDL
MODEL 4
REMARK VINA RESULT:    -7.471      3.088      6.121
REMARK INTER + INTRA:         -11.828
REMARK INTER:                 -10.304
REMARK INTRA:                  -1.524
REMARK UNBOUND:                -1.300
REMARK  8 active torsions:
REMARK  status: ('A' for Active; 'I' for Inactive)
REMARK    1  A    between atoms: C_6  and  N_7 
REMARK    2  A    between atoms: C_13  and  C_14 
REMARK    3  A    between atoms: C_15  and  O_16 
REMARK    4  A    between atoms: C_18  and  O_19 
REMARK    5  A    between atoms: C_21  and  C_22 
REMARK       I    between atoms: C_22  and  N_24 
REMARK    6  A    between atoms: N_24  and  C_26 
REMARK    7  A    between atoms: C_26  and  C_27 
REMARK    8  A    between atoms: C_27  and  C_28 
ROOT
HETATM    1  C   UNL     1       0.168   8.967  27.805  0.00  0.00     0.046 C 
HETATM    2  C   UNL     1      -0.929   9.783  27.523  0.00  0.00     0.082 C 
HETATM    3  C   UNL     1      -0.991  10.470  26.316  0.00  0.00     0.075 C 
HETATM    4  C   UNL     1       0.045  10.336  25.378  0.00  0.00     0.084 C 
HETATM    5  C   UNL     1       1.127   8.762  26.807  0.00  0.00     0.038 C 
HETATM    6  C   UNL     1       1.143   9.480  25.610  0.00  0.00     0.066 C 
ENDROOT
BRANCH   1   7
HETATM    7  C   UNL     1       0.304   8.303  29.126  0.00  0.00     0.171 A 
HETATM    8  N   UNL     1       0.253   6.945  29.379  0.00  0.00    -0.244 N 
HETATM    9  C   UNL     1       0.257   6.858  30.762  0.00  0.00     0.349 A 
HETATM   10  O   UNL     1       0.171   5.889  31.503  0.00  0.00    -0.245 OA
HETATM   11  N   UNL     1       0.396   8.161  31.224  0.00  0.00    -0.226 N 
HETATM   12  H   UNL     1       0.398   8.434  32.199  0.00  0.00     0.194 HD
HETATM   13  N   UNL     1       0.415   9.047  30.198  0.00  0.00    -0.151 NA
BRANCH   8  14
HETATM   14  C   UNL     1       0.197   5.807  28.514  0.00  0.00     0.045 C 
HETATM   15  C   UNL     1      -0.918   5.529  27.708  0.00  0.00     0.030 C 
HETATM   16  C   UNL     1      -1.063   4.298  27.055  0.00  0.00     0.002 C 
HETATM   17  C   UNL     1      -0.036   3.364  27.094  0.00  0.00     0.000 C 
HETATM   18  C   UNL     1       1.139   3.673  27.766  0.00  0.00     0.002 C 
HETATM   19  C   UNL     1       1.251   4.880  28.472  0.00  0.00     0.030 C 
ENDBRANCH   8  14
ENDBRANCH   1   7
BRANCH   2  20
HETATM   20  O   UNL     1      -1.979   9.953  28.385  0.00  0.00    -0.360 OA
HETATM   21  H   UNL     1      -2.806   9.713  27.912  0.00  0.00     0.217 HD
ENDBRANCH   2  20
BRANCH   6  22
HETATM   22  C   UNL     1       2.370   9.534  24.732  0.00  0.00     0.256 C 
HETATM   23  O   UNL     1       2.933  10.631  24.656  0.00  0.00    -0.267 OA
HETATM   24  N   UNL     1       2.936   8.427  24.059  0.00  0.00    -0.352 N 
HETATM   25  C   UNL     1       2.520   7.030  24.042  0.00  0.00     0.152 C 
BRANCH  24  26
HETATM   26  C   UNL     1       4.005   8.739  23.095  0.00  0.00     0.125 C 
BRANCH  26  27
HETATM   27  C   UNL     1       3.953   7.841  21.856  0.00  0.00     0.020 C 
BRANCH  27  28
HETATM   28  C   UNL     1       4.538   8.539  20.626  0.00  0.00    -0.003 C 
HETATM   29  C   UNL     1       3.587   8.462  19.441  0.00  0.00     0.005 C 
ENDBRANCH  27  28
ENDBRANCH  26  27
ENDBRANCH  24  26
ENDBRANCH   6  22
BRANCH   4  30
HETATM   30  O   UNL     1      -0.056  11.043  24.211  0.00  0.00    -0.360 OA
HETATM   31  H   UNL     1       0.748  11.568  24.065  0.00  0.00     0.217 HD
ENDBRANCH   4  30
TORSDOF 8
ENDMDL
MODEL 5
REMARK VINA RESULT:    -7.366      6.968      9.725
REMARK INTER + INTRA:         -11.680
REMARK INTER:                  -9.846
REMARK INTRA:                  -1.834
REMARK UNBOUND:                -1.300
REMARK  8 active torsions:
REMARK  status: ('A' for Active; 'I' for Inactive)
REMARK    1  A    between atoms: C_6  and  N_7 
REMARK    2  A    between atoms: C_13  and  C_14 
REMARK    3  A    between atoms: C_15  and  O_16 
REMARK    4  A    between atoms: C_18  and  O_19 
REMARK    5  A    between atoms: C_21  and  C_22 
REMARK       I    between atoms: C_22  and  N_24 
REMARK    6  A    between atoms: N_24  and  C_26 
REMARK    7  A    between atoms: C_26  and  C_27 
REMARK    8  A    between atoms: C_27  and  C_28 
ROOT
HETATM    1  C   UNL     1       3.540   7.016  18.529  0.00  0.00     0.046 C 
HETATM    2  C   UNL     1       2.686   8.113  18.408  0.00  0.00     0.082 C 
HETATM    3  C   UNL     1       1.435   7.958  17.822  0.00  0.00     0.075 C 
HETATM    4  C   UNL     1       1.028   6.696  17.361  0.00  0.00     0.084 C 
HETATM    5  C   UNL     1       3.064   5.750  18.168  0.00  0.00     0.038 C 
HETATM    6  C   UNL     1       1.846   5.556  17.516  0.00  0.00     0.066 C 
ENDROOT
BRANCH   1   7
HETATM    7  C   UNL     1       4.917   7.177  19.060  0.00  0.00     0.171 A 
HETATM    8  N   UNL     1       5.487   6.483  20.112  0.00  0.00    -0.244 N 
HETATM    9  C   UNL     1       6.701   7.116  20.317  0.00  0.00     0.349 A 
HETATM   10  O   UNL     1       7.568   6.930  21.159  0.00  0.00    -0.245 OA
HETATM   11  N   UNL     1       6.800   8.081  19.323  0.00  0.00    -0.226 N 
HETATM   12  H   UNL     1       7.564   8.738  19.224  0.00  0.00     0.194 HD
HETATM   13  N   UNL     1       5.683   8.114  18.556  0.00  0.00    -0.151 NA
BRANCH   8  14
HETATM   14  C   UNL     1       5.031   5.371  20.887  0.00  0.00     0.045 C 
HETATM   15  C   UNL     1       5.073   4.052  20.410  0.00  0.00     0.030 C 
HETATM   16  C   UNL     1       4.409   3.011  21.070  0.00  0.00     0.002 C 
HETATM   17  C   UNL     1       3.789   3.243  22.291  0.00  0.00     0.000 C 
HETATM   18  C   UNL     1       3.856   4.510  22.857  0.00  0.00     0.002 C 
HETATM   19  C   UNL     1       4.466   5.562  22.159  0.00  0.00     0.030 C 
ENDBRANCH   8  14
ENDBRANCH   1   7
BRANCH   2  20
HETATM   20  O   UNL     1       3.011   9.370  18.843  0.00  0.00    -0.360 OA
HETATM   21  H   UNL     1       3.882   9.613  18.459  0.00  0.00     0.217 HD
ENDBRANCH   2  20
BRANCH   6  22
HETATM   22  C   UNL     1       1.528   4.267  16.796  0.00  0.00     0.256 C 
HETATM   23  O   UNL     1       1.498   4.329  15.562  0.00  0.00    -0.267 OA
HETATM   24  N   UNL     1       1.326   3.016  17.422  0.00  0.00    -0.352 N 
HETATM   25  C   UNL     1       1.380   2.657  18.834  0.00  0.00     0.152 C 
BRANCH  24  26
HETATM   26  C   UNL     1       0.826   1.936  16.556  0.00  0.00     0.125 C 
BRANCH  26  27
HETATM   27  C   UNL     1       1.723   0.696  16.591  0.00  0.00     0.020 C 
BRANCH  27  28
HETATM   28  C   UNL     1       3.145   1.013  16.122  0.00  0.00    -0.003 C 
HETATM   29  C   UNL     1       4.184   0.441  17.076  0.00  0.00     0.005 C 
ENDBRANCH  27  28
ENDBRANCH  26  27
ENDBRANCH  24  26
ENDBRANCH   6  22
BRANCH   4  30
HETATM   30  O   UNL     1      -0.207   6.597  16.780  0.00  0.00    -0.360 OA
HETATM   31  H   UNL     1      -0.148   6.789  15.830  0.00  0.00     0.217 HD
ENDBRANCH   4  30
TORSDOF 8
ENDMDL
MODEL 6
REMARK VINA RESULT:    -7.199      3.086      5.149
REMARK INTER + INTRA:         -11.445
REMARK INTER:                 -10.030
REMARK INTRA:                  -1.414
REMARK UNBOUND:                -1.300
REMARK  8 active torsions:
REMARK  status: ('A' for Active; 'I' for Inactive)
REMARK    1  A    between atoms: C_6  and  N_7 
REMARK    2  A    between atoms: C_13  and  C_14 
REMARK    3  A    between atoms: C_15  and  O_16 
REMARK    4  A    between atoms: C_18  and  O_19 
REMARK    5  A    between atoms: C_21  and  C_22 
REMARK       I    between atoms: C_22  and  N_24 
REMARK    6  A    between atoms: N_24  and  C_26 
REMARK    7  A    between atoms: C_26  and  C_27 
REMARK    8  A    between atoms: C_27  and  C_28 
ROOT
HETATM    1  C   UNL     1       1.281   8.591  28.037  0.00  0.00     0.046 C 
HETATM    2  C   UNL     1       2.556   8.521  27.473  0.00  0.00     0.082 C 
HETATM    3  C   UNL     1       2.766   8.972  26.175  0.00  0.00     0.075 C 
HETATM    4  C   UNL     1       1.699   9.506  25.436  0.00  0.00     0.084 C 
HETATM    5  C   UNL     1       0.264   9.232  27.322  0.00  0.00     0.038 C 
HETATM    6  C   UNL     1       0.410   9.639  25.995  0.00  0.00     0.066 C 
ENDROOT
BRANCH   1   7
HETATM    7  C   UNL     1       1.011   8.025  29.383  0.00  0.00     0.171 A 
HETATM    8  N   UNL     1       0.553   6.753  29.671  0.00  0.00    -0.244 N 
HETATM    9  C   UNL     1       0.305   6.782  31.033  0.00  0.00     0.349 A 
HETATM   10  O   UNL     1      -0.162   5.934  31.780  0.00  0.00    -0.245 OA
HETATM   11  N   UNL     1       0.712   8.037  31.467  0.00  0.00    -0.226 N 
HETATM   12  H   UNL     1       0.627   8.381  32.415  0.00  0.00     0.194 HD
HETATM   13  N   UNL     1       1.140   8.801  30.431  0.00  0.00    -0.151 NA
BRANCH   8  14
HETATM   14  C   UNL     1       0.335   5.602  28.850  0.00  0.00     0.045 C 
HETATM   15  C   UNL     1       1.270   4.560  28.751  0.00  0.00     0.030 C 
HETATM   16  C   UNL     1       1.161   3.566  27.770  0.00  0.00     0.002 C 
HETATM   17  C   UNL     1       0.045   3.522  26.944  0.00  0.00     0.000 C 
HETATM   18  C   UNL     1      -0.965   4.459  27.117  0.00  0.00     0.002 C 
HETATM   19  C   UNL     1      -0.818   5.490  28.056  0.00  0.00     0.030 C 
ENDBRANCH   8  14
ENDBRANCH   1   7
BRANCH   2  20
HETATM   20  O   UNL     1       3.644   8.022  28.137  0.00  0.00    -0.360 OA
HETATM   21  H   UNL     1       4.394   7.972  27.504  0.00  0.00     0.217 HD
ENDBRANCH   2  20
BRANCH   6  22
HETATM   22  C   UNL     1      -0.784   9.964  25.129  0.00  0.00     0.256 C 
HETATM   23  O   UNL     1      -1.489   9.005  24.796  0.00  0.00    -0.267 OA
HETATM   24  N   UNL     1      -1.170  11.265  24.734  0.00  0.00    -0.352 N 
HETATM   25  C   UNL     1      -0.567  12.555  25.046  0.00  0.00     0.152 C 
BRANCH  24  26
HETATM   26  C   UNL     1      -2.239  11.340  23.724  0.00  0.00     0.125 C 
BRANCH  26  27
HETATM   27  C   UNL     1      -2.312  12.715  23.053  0.00  0.00     0.020 C 
BRANCH  27  28
HETATM   28  C   UNL     1      -2.475  12.597  21.536  0.00  0.00    -0.003 C 
HETATM   29  C   UNL     1      -1.236  13.095  20.806  0.00  0.00     0.005 C 
ENDBRANCH  27  28
ENDBRANCH  26  27
ENDBRANCH  24  26
ENDBRANCH   6  22
BRANCH   4  30
HETATM   30  O   UNL     1       1.954   9.924  24.159  0.00  0.00    -0.360 OA
HETATM   31  H   UNL     1       2.610   9.343  23.739  0.00  0.00     0.217 HD
ENDBRANCH   4  30
TORSDOF 8
ENDMDL
MODEL 7
REMARK VINA RESULT:    -7.039      1.839      2.378
REMARK INTER + INTRA:         -11.219
REMARK INTER:                  -9.919
REMARK INTRA:                  -1.300
REMARK UNBOUND:                -1.300
REMARK  8 active torsions:
REMARK  status: ('A' for Active; 'I' for Inactive)
REMARK    1  A    between atoms: C_6  and  N_7 
REMARK    2  A    between atoms: C_13  and  C_14 
REMARK    3  A    between atoms: C_15  and  O_16 
REMARK    4  A    between atoms: C_18  and  O_19 
REMARK    5  A    between atoms: C_21  and  C_22 
REMARK       I    between atoms: C_22  and  N_24 
REMARK    6  A    between atoms: N_24  and  C_26 
REMARK    7  A    between atoms: C_26  and  C_27 
REMARK    8  A    between atoms: C_27  and  C_28 
ROOT
HETATM    1  C   UNL     1      -0.099   8.003  27.100  0.00  0.00     0.046 C 
HETATM    2  C   UNL     1      -0.280   8.654  28.321  0.00  0.00     0.082 C 
HETATM    3  C   UNL     1      -0.583  10.010  28.347  0.00  0.00     0.075 C 
HETATM    4  C   UNL     1      -0.716  10.722  27.144  0.00  0.00     0.084 C 
HETATM    5  C   UNL     1      -0.352   8.709  25.918  0.00  0.00     0.038 C 
HETATM    6  C   UNL     1      -0.591  10.084  25.892  0.00  0.00     0.066 C 
ENDROOT
BRANCH   1   7
HETATM    7  C   UNL     1       0.322   6.580  27.050  0.00  0.00     0.171 A 
HETATM    8  N   UNL     1       1.390   6.056  26.345  0.00  0.00    -0.244 N 
HETATM    9  C   UNL     1       1.249   4.686  26.487  0.00  0.00     0.349 A 
HETATM   10  O   UNL     1       1.898   3.762  26.016  0.00  0.00    -0.245 OA
HETATM   11  N   UNL     1       0.162   4.500  27.331  0.00  0.00    -0.226 N 
HETATM   12  H   UNL     1      -0.218   3.601  27.601  0.00  0.00     0.194 HD
HETATM   13  N   UNL     1      -0.409   5.684  27.665  0.00  0.00    -0.151 NA
BRANCH   8  14
HETATM   14  C   UNL     1       2.446   6.673  25.603  0.00  0.00     0.045 C 
HETATM   15  C   UNL     1       2.243   7.239  24.335  0.00  0.00     0.030 C 
HETATM   16  C   UNL     1       3.318   7.618  23.520  0.00  0.00     0.002 C 
HETATM   17  C   UNL     1       4.617   7.553  24.006  0.00  0.00     0.000 C 
HETATM   18  C   UNL     1       4.835   7.130  25.311  0.00  0.00     0.002 C 
HETATM   19  C   UNL     1       3.761   6.690  26.097  0.00  0.00     0.030 C 
ENDBRANCH   8  14
ENDBRANCH   1   7
BRANCH   2  20
HETATM   20  O   UNL     1      -0.176   8.022  29.531  0.00  0.00    -0.360 OA
HETATM   21  H   UNL     1      -0.012   8.703  30.220  0.00  0.00     0.217 HD
ENDBRANCH   2  20
BRANCH   6  22
HETATM   22  C   UNL     1      -0.475  10.886  24.618  0.00  0.00     0.256 C 
HETATM   23  O   UNL     1       0.666  11.010  24.159  0.00  0.00    -0.267 OA
HETATM   24  N   UNL     1      -1.562  11.437  23.903  0.00  0.00    -0.352 N 
HETATM   25  C   UNL     1      -2.992  11.374  24.180  0.00  0.00     0.152 C 
BRANCH  24  26
HETATM   26  C   UNL     1      -1.212  12.354  22.805  0.00  0.00     0.125 C 
BRANCH  26  27
HETATM   27  C   UNL     1      -2.259  12.353  21.688  0.00  0.00     0.020 C 
BRANCH  27  28
HETATM   28  C   UNL     1      -1.851  13.265  20.529  0.00  0.00    -0.003 C 
HETATM   29  C   UNL     1      -3.036  14.073  20.016  0.00  0.00     0.005 C 
ENDBRANCH  27  28
ENDBRANCH  26  27
ENDBRANCH  24  26
ENDBRANCH   6  22
BRANCH   4  30
HETATM   30  O   UNL     1      -1.002  12.058  27.223  0.00  0.00    -0.360 OA
HETATM   31  H   UNL     1      -0.189  12.568  27.374  0.00  0.00     0.217 HD
ENDBRANCH   4  30
TORSDOF 8
ENDMDL
MODEL 8
REMARK VINA RESULT:    -7.000      5.303      8.509
REMARK INTER + INTRA:         -11.164
REMARK INTER:                  -9.541
REMARK INTRA:                  -1.623
REMARK UNBOUND:                -1.300
REMARK  8 active torsions:
REMARK  status: ('A' for Active; 'I' for Inactive)
REMARK    1  A    between atoms: C_6  and  N_7 
REMARK    2  A    between atoms: C_13  and  C_14 
REMARK    3  A    between atoms: C_15  and  O_16 
REMARK    4  A    between atoms: C_18  and  O_19 
REMARK    5  A    between atoms: C_21  and  C_22 
REMARK       I    between atoms: C_22  and  N_24 
REMARK    6  A    between atoms: N_24  and  C_26 
REMARK    7  A    between atoms: C_26  and  C_27 
REMARK    8  A    between atoms: C_27  and  C_28 
ROOT
HETATM    1  C   UNL     1       3.179   6.701  18.676  0.00  0.00     0.046 C 
HETATM    2  C   UNL     1       4.465   6.453  18.193  0.00  0.00     0.082 C 
HETATM    3  C   UNL     1       5.572   6.750  18.980  0.00  0.00     0.075 C 
HETATM    4  C   UNL     1       5.395   7.290  20.264  0.00  0.00     0.084 C 
HETATM    5  C   UNL     1       3.029   7.130  20.000  0.00  0.00     0.038 C 
HETATM    6  C   UNL     1       4.108   7.504  20.803  0.00  0.00     0.066 C 
ENDROOT
BRANCH   1   7
HETATM    7  C   UNL     1       1.988   6.485  17.817  0.00  0.00     0.171 A 
HETATM    8  N   UNL     1       1.318   5.293  17.613  0.00  0.00    -0.244 N 
HETATM    9  C   UNL     1       0.406   5.585  16.612  0.00  0.00     0.349 A 
HETATM   10  O   UNL     1      -0.393   4.868  16.025  0.00  0.00    -0.245 OA
HETATM   11  N   UNL     1       0.543   6.942  16.355  0.00  0.00    -0.226 N 
HETATM   12  H   UNL     1       0.035   7.454  15.645  0.00  0.00     0.194 HD
HETATM   13  N   UNL     1       1.534   7.487  17.104  0.00  0.00    -0.151 NA
BRANCH   8  14
HETATM   14  C   UNL     1       1.448   4.003  18.217  0.00  0.00     0.045 C 
HETATM   15  C   UNL     1       0.664   3.601  19.310  0.00  0.00     0.030 C 
HETATM   16  C   UNL     1       0.961   2.444  20.040  0.00  0.00     0.002 C 
HETATM   17  C   UNL     1       1.977   1.596  19.618  0.00  0.00     0.000 C 
HETATM   18  C   UNL     1       2.675   1.897  18.456  0.00  0.00     0.002 C 
HETATM   19  C   UNL     1       2.415   3.090  17.767  0.00  0.00     0.030 C 
ENDBRANCH   8  14
ENDBRANCH   1   7
BRANCH   2  20
HETATM   20  O   UNL     1       4.713   5.920  16.957  0.00  0.00    -0.360 OA
HETATM   21  H   UNL     1       4.232   5.066  16.888  0.00  0.00     0.217 HD
ENDBRANCH   2  20
BRANCH   6  22
HETATM   22  C   UNL     1       3.917   8.317  22.061  0.00  0.00     0.256 C 
HETATM   23  O   UNL     1       4.190   9.520  21.975  0.00  0.00    -0.267 OA
HETATM   24  N   UNL     1       3.402   7.819  23.279  0.00  0.00    -0.352 N 
HETATM   25  C   UNL     1       2.939   6.480  23.621  0.00  0.00     0.152 C 
BRANCH  24  26
HETATM   26  C   UNL     1       3.492   8.727  24.435  0.00  0.00     0.125 C 
BRANCH  26  27
HETATM   27  C   UNL     1       2.126   9.001  25.069  0.00  0.00     0.020 C 
BRANCH  27  28
HETATM   28  C   UNL     1       1.651  10.430  24.796  0.00  0.00    -0.003 C 
HETATM   29  C   UNL     1       2.810  11.332  24.396  0.00  0.00     0.005 C 
ENDBRANCH  27  28
ENDBRANCH  26  27
ENDBRANCH  24  26
ENDBRANCH   6  22
BRANCH   4  30
HETATM   30  O   UNL     1       6.516   7.577  20.995  0.00  0.00    -0.360 OA
HETATM   31  H   UNL     1       6.307   8.222  21.691  0.00  0.00     0.217 HD
ENDBRANCH   4  30
TORSDOF 8
ENDMDL
MODEL 9
REMARK VINA RESULT:    -6.900      4.744      8.047
REMARK INTER + INTRA:         -11.023
REMARK INTER:                  -9.259
REMARK INTRA:                  -1.764
REMARK UNBOUND:                -1.300
REMARK  8 active torsions:
REMARK  status: ('A' for Active; 'I' for Inactive)
REMARK    1  A    between atoms: C_6  and  N_7 
REMARK    2  A    between atoms: C_13  and  C_14 
REMARK    3  A    between atoms: C_15  and  O_16 
REMARK    4  A    between atoms: C_18  and  O_19 
REMARK    5  A    between atoms: C_21  and  C_22 
REMARK       I    between atoms: C_22  and  N_24 
REMARK    6  A    between atoms: N_24  and  C_26 
REMARK    7  A    between atoms: C_26  and  C_27 
REMARK    8  A    between atoms: C_27  and  C_28 
ROOT
HETATM    1  C   UNL     1       3.724   7.009  19.748  0.00  0.00     0.046 C 
HETATM    2  C   UNL     1       5.086   6.895  19.468  0.00  0.00     0.082 C 
HETATM    3  C   UNL     1       5.988   6.653  20.498  0.00  0.00     0.075 C 
HETATM    4  C   UNL     1       5.527   6.513  21.816  0.00  0.00     0.084 C 
HETATM    5  C   UNL     1       3.280   6.751  21.050  0.00  0.00     0.038 C 
HETATM    6  C   UNL     1       4.151   6.570  22.126  0.00  0.00     0.066 C 
ENDROOT
BRANCH   1   7
HETATM    7  C   UNL     1       2.754   7.366  18.681  0.00  0.00     0.171 A 
HETATM    8  N   UNL     1       1.869   6.514  18.047  0.00  0.00    -0.244 N 
HETATM    9  C   UNL     1       1.325   7.285  17.033  0.00  0.00     0.349 A 
HETATM   10  O   UNL     1       0.531   6.998  16.149  0.00  0.00    -0.245 OA
HETATM   11  N   UNL     1       1.862   8.556  17.191  0.00  0.00    -0.226 N 
HETATM   12  H   UNL     1       1.684   9.342  16.579  0.00  0.00     0.194 HD
HETATM   13  N   UNL     1       2.753   8.589  18.213  0.00  0.00    -0.151 NA
BRANCH   8  14
HETATM   14  C   UNL     1       1.517   5.147  18.280  0.00  0.00     0.045 C 
HETATM   15  C   UNL     1       0.509   4.773  19.182  0.00  0.00     0.030 C 
HETATM   16  C   UNL     1       0.339   3.441  19.581  0.00  0.00     0.002 C 
HETATM   17  C   UNL     1       1.095   2.435  18.993  0.00  0.00     0.000 C 
HETATM   18  C   UNL     1       2.001   2.763  17.992  0.00  0.00     0.002 C 
HETATM   19  C   UNL     1       2.212   4.105  17.645  0.00  0.00     0.030 C 
ENDBRANCH   8  14
ENDBRANCH   1   7
BRANCH   2  20
HETATM   20  O   UNL     1       5.606   7.010  18.207  0.00  0.00    -0.360 OA
HETATM   21  H   UNL     1       6.521   6.651  18.217  0.00  0.00     0.217 HD
ENDBRANCH   2  20
BRANCH   6  22
HETATM   22  C   UNL     1       3.679   6.682  23.556  0.00  0.00     0.256 C 
HETATM   23  O   UNL     1       3.500   5.614  24.151  0.00  0.00    -0.267 OA
HETATM   24  N   UNL     1       3.492   7.895  24.257  0.00  0.00    -0.352 N 
HETATM   25  C   UNL     1       3.702   9.269  23.820  0.00  0.00     0.152 C 
BRANCH  24  26
HETATM   26  C   UNL     1       2.832   7.785  25.568  0.00  0.00     0.125 C 
BRANCH  26  27
HETATM   27  C   UNL     1       1.656   8.754  25.712  0.00  0.00     0.020 C 
BRANCH  27  28
HETATM   28  C   UNL     1       0.378   8.192  25.084  0.00  0.00    -0.003 C 
HETATM   29  C   UNL     1      -0.653   9.288  24.853  0.00  0.00     0.005 C 
ENDBRANCH  27  28
ENDBRANCH  26  27
ENDBRANCH  24  26
ENDBRANCH   6  22
BRANCH   4  30
HETATM   30  O   UNL     1       6.455   6.288  22.796  0.00  0.00    -0.360 OA
HETATM   31  H   UNL     1       7.176   5.733  22.455  0.00  0.00     0.217 HD
ENDBRANCH   4  30
TORSDOF 8
ENDMDL
