MODEL 1
REMARK VINA RESULT:    -8.305      0.000      0.000
REMARK INTER + INTRA:         -11.603
REMARK INTER:                 -10.886
REMARK INTRA:                  -0.717
REMARK UNBOUND:                -0.627
REMARK  6 active torsions:
REMARK  status: ('A' for Active; 'I' for Inactive)
REMARK    1  A    between atoms: C_2  and  C_3 
REMARK    2  A    between atoms: C_3  and  C_5 
REMARK    3  A    between atoms: C_11  and  O_12 
REMARK    4  A    between atoms: C_13  and  C_14 
REMARK       I    between atoms: C_14  and  N_16 
REMARK    5  A    between atoms: N_16  and  C_18 
REMARK    6  A    between atoms: C_21  and  N_22 
ROOT
HETATM    1  C   UNL     1      -1.900  16.512  20.909  0.00  0.00     0.071 A 
HETATM    2  N   UNL     1      -2.831  16.950  20.045  0.00  0.00    -0.178 NA
HETATM    3  N   UNL     1      -3.905  16.193  20.316  0.00  0.00    -0.277 N 
HETATM    4  H   UNL     1      -4.745  16.345  19.766  0.00  0.00     0.189 HD
HETATM    5  C   UNL     1      -3.711  15.280  21.315  0.00  0.00     0.065 A 
HETATM    6  C   UNL     1      -4.547  14.294  21.845  0.00  0.00     0.069 A 
HETATM    7  C   UNL     1      -4.017  13.461  22.851  0.00  0.00     0.083 A 
HETATM    8  C   UNL     1      -2.733  13.659  23.376  0.00  0.00     0.066 A 
HETATM    9  C   UNL     1      -1.925  14.673  22.798  0.00  0.00     0.035 A 
HETATM   10  C   UNL     1      -2.407  15.479  21.748  0.00  0.00     0.020 A 
ENDROOT
BRANCH   8  11
HETATM   11  C   UNL     1      -2.028  12.812  24.398  0.00  0.00     0.260 C 
HETATM   12  O   UNL     1      -1.899  13.375  25.493  0.00  0.00    -0.267 OA
HETATM   13  N   UNL     1      -1.584  11.486  24.165  0.00  0.00    -0.318 N 
HETATM   14  C   UNL     1      -1.560  10.850  22.853  0.00  0.00     0.159 C 
BRANCH  13  15
HETATM   15  C   UNL     1      -1.026  10.710  25.252  0.00  0.00     0.037 A 
HETATM   16  C   UNL     1      -1.809  10.308  26.335  0.00  0.00     0.032 A 
HETATM   17  C   UNL     1      -1.259   9.593  27.411  0.00  0.00     0.031 A 
HETATM   18  C   UNL     1       0.096   9.247  27.465  0.00  0.00     0.030 A 
HETATM   19  C   UNL     1       0.859   9.590  26.342  0.00  0.00     0.031 A 
HETATM   20  C   UNL     1       0.314  10.302  25.255  0.00  0.00     0.032 A 
BRANCH  18  21
HETATM   21  N   UNL     1       0.650   8.653  28.577  0.00  0.00    -0.377 N 
HETATM   22  C   UNL     1       1.797   7.736  28.535  0.00  0.00     0.149 C 
HETATM   23  C   UNL     1       2.823   8.139  29.608  0.00  0.00     0.187 C 
HETATM   24  O   UNL     1       2.229   8.207  30.916  0.00  0.00    -0.388 OA
HETATM   25  C   UNL     1       1.160   9.168  30.924  0.00  0.00     0.187 C 
HETATM   26  C   UNL     1       0.056   8.801  29.917  0.00  0.00     0.149 C 
ENDBRANCH  18  21
ENDBRANCH  13  15
ENDBRANCH   8  11
BRANCH   7  27
HETATM   27  O   UNL     1      -4.795  12.408  23.249  0.00  0.00    -0.360 OA
HETATM   28  H   UNL     1      -4.366  11.947  23.989  0.00  0.00     0.217 HD
ENDBRANCH   7  27
BRANCH   1  29
HETATM   29  C   UNL     1      -0.525  17.135  20.864  0.00  0.00     0.036 C 
HETATM   30  C   UNL     1      -0.209  17.692  19.471  0.00  0.00     0.016 C 
BRANCH  29  31
HETATM   31  C   UNL     1       0.587  16.177  21.327  0.00  0.00     0.006 C 
HETATM   32  C   UNL     1       1.293  16.642  22.594  0.00  0.00     0.006 C 
ENDBRANCH  29  31
ENDBRANCH   1  29
TORSDOF 6
ENDMDL
MODEL 2
REMARK VINA RESULT:    -8.185      1.402      1.802
REMARK INTER + INTRA:         -11.444
REMARK INTER:                 -10.520
REMARK INTRA:                  -0.924
REMARK UNBOUND:                -0.627
REMARK  6 active torsions:
REMARK  status: ('A' for Active; 'I' for Inactive)
REMARK    1  A    between atoms: C_2  and  C_3 
REMARK    2  A    between atoms: C_3  and  C_5 
REMARK    3  A    between atoms: C_11  and  O_12 
REMARK    4  A    between atoms: C_13  and  C_14 
REMARK       I    between atoms: C_14  and  N_16 
REMARK    5  A    between atoms: N_16  and  C_18 
REMARK    6  A    between atoms: C_21  and  N_22 
ROOT
HETATM    1  C   UNL     1      -1.091  16.913  20.658  0.00  0.00     0.071 A 
HETATM    2  N   UNL     1      -1.714  17.693  19.761  0.00  0.00    -0.178 NA
HETATM    3  N   UNL     1      -2.975  17.237  19.755  0.00  0.00    -0.277 N 
HETATM    4  H   UNL     1      -3.640  17.682  19.129  0.00  0.00     0.189 HD
HETATM    5  C   UNL     1      -3.198  16.191  20.606  0.00  0.00     0.065 A 
HETATM    6  C   UNL     1      -4.336  15.417  20.848  0.00  0.00     0.069 A 
HETATM    7  C   UNL     1      -4.219  14.354  21.766  0.00  0.00     0.083 A 
HETATM    8  C   UNL     1      -3.040  14.122  22.484  0.00  0.00     0.066 A 
HETATM    9  C   UNL     1      -1.912  14.935  22.197  0.00  0.00     0.035 A 
HETATM   10  C   UNL     1      -1.982  15.966  21.239  0.00  0.00     0.020 A 
ENDROOT
BRANCH   8  11
HETATM   11  C   UNL     1      -2.763  12.994  23.439  0.00  0.00     0.260 C 
HETATM   12  O   UNL     1      -3.009  11.878  22.960  0.00  0.00    -0.267 OA
HETATM   13  N   UNL     1      -2.237  13.165  24.744  0.00  0.00    -0.318 N 
HETATM   14  C   UNL     1      -2.097  14.457  25.406  0.00  0.00     0.159 C 
BRANCH  13  15
HETATM   15  C   UNL     1      -1.890  12.007  25.540  0.00  0.00     0.037 A 
HETATM   16  C   UNL     1      -2.699  11.581  26.595  0.00  0.00     0.032 A 
HETATM   17  C   UNL     1      -2.341  10.484  27.394  0.00  0.00     0.031 A 
HETATM   18  C   UNL     1      -1.161   9.761  27.188  0.00  0.00     0.030 A 
HETATM   19  C   UNL     1      -0.392  10.149  26.084  0.00  0.00     0.031 A 
HETATM   20  C   UNL     1      -0.747  11.244  25.272  0.00  0.00     0.032 A 
BRANCH  18  21
HETATM   21  N   UNL     1      -0.760   8.765  28.051  0.00  0.00    -0.377 N 
HETATM   22  C   UNL     1      -0.589   7.358  27.661  0.00  0.00     0.149 C 
HETATM   23  C   UNL     1       0.755   6.832  28.192  0.00  0.00     0.187 C 
HETATM   24  O   UNL     1       0.878   7.021  29.612  0.00  0.00    -0.388 OA
HETATM   25  C   UNL     1       0.776   8.418  29.936  0.00  0.00     0.187 C 
HETATM   26  C   UNL     1      -0.573   9.009  29.491  0.00  0.00     0.149 C 
ENDBRANCH  18  21
ENDBRANCH  13  15
ENDBRANCH   8  11
BRANCH   7  27
HETATM   27  O   UNL     1      -5.297  13.517  21.875  0.00  0.00    -0.360 OA
HETATM   28  H   UNL     1      -5.875  13.629  21.102  0.00  0.00     0.217 HD
ENDBRANCH   7  27
BRANCH   1  29
HETATM   29  C   UNL     1       0.383  17.131  20.904  0.00  0.00     0.036 C 
HETATM   30  C   UNL     1       1.224  16.008  20.285  0.00  0.00     0.016 C 
BRANCH  29  31
HETATM   31  C   UNL     1       0.728  17.304  22.394  0.00  0.00     0.006 C 
HETATM   32  C   UNL     1       1.623  16.198  22.936  0.00  0.00     0.006 C 
ENDBRANCH  29  31
ENDBRANCH   1  29
TORSDOF 6
ENDMDL
MODEL 3
REMARK VINA RESULT:    -8.170      0.732      1.184
REMARK INTER + INTRA:         -11.425
REMARK INTER:                 -10.789
REMARK INTRA:                  -0.636
REMARK UNBOUND:                -0.627
REMARK  6 active torsions:
REMARK  status: ('A' for Active; 'I' for Inactive)
REMARK    1  A    between atoms: C_2  and  C_3 
REMARK    2  A    between atoms: C_3  and  C_5 
REMARK    3  A    between atoms: C_11  and  O_12 
REMARK    4  A    between atoms: C_13  and  C_14 
REMARK       I    between atoms: C_14  and  N_16 
REMARK    5  A    between atoms: N_16  and  C_18 
REMARK    6  A    between atoms: C_21  and  N_22 
ROOT
HETATM    1  C   UNL     1      -1.756  16.728  20.631  0.00  0.00     0.071 A 
HETATM    2  N   UNL     1      -2.639  17.196  19.734  0.00  0.00    -0.178 NA
HETATM    3  N   UNL     1      -3.751  16.486  19.974  0.00  0.00    -0.277 N 
HETATM    4  H   UNL     1      -4.566  16.667  19.395  0.00  0.00     0.189 HD
HETATM    5  C   UNL     1      -3.629  15.573  20.984  0.00  0.00     0.065 A 
HETATM    6  C   UNL     1      -4.521  14.625  21.491  0.00  0.00     0.069 A 
HETATM    7  C   UNL     1      -4.059  13.780  22.520  0.00  0.00     0.083 A 
HETATM    8  C   UNL     1      -2.787  13.929  23.086  0.00  0.00     0.066 A 
HETATM    9  C   UNL     1      -1.919  14.906  22.531  0.00  0.00     0.035 A 
HETATM   10  C   UNL     1      -2.332  15.723  21.460  0.00  0.00     0.020 A 
ENDROOT
BRANCH   8  11
HETATM   11  C   UNL     1      -2.151  13.062  24.137  0.00  0.00     0.260 C 
HETATM   12  O   UNL     1      -1.973  13.650  25.213  0.00  0.00    -0.267 OA
HETATM   13  N   UNL     1      -1.818  11.697  23.950  0.00  0.00    -0.318 N 
HETATM   14  C   UNL     1      -1.850  11.017  22.660  0.00  0.00     0.159 C 
BRANCH  13  15
HETATM   15  C   UNL     1      -1.323  10.915  25.063  0.00  0.00     0.037 A 
HETATM   16  C   UNL     1      -2.138  10.605  26.153  0.00  0.00     0.032 A 
HETATM   17  C   UNL     1      -1.647   9.885  27.252  0.00  0.00     0.031 A 
HETATM   18  C   UNL     1      -0.321   9.441  27.325  0.00  0.00     0.030 A 
HETATM   19  C   UNL     1       0.469   9.693  26.197  0.00  0.00     0.031 A 
HETATM   20  C   UNL     1      -0.018  10.410  25.086  0.00  0.00     0.032 A 
BRANCH  18  21
HETATM   21  N   UNL     1       0.183   8.841  28.457  0.00  0.00    -0.377 N 
HETATM   22  C   UNL     1      -0.457   8.908  29.779  0.00  0.00     0.149 C 
HETATM   23  C   UNL     1      -0.512   7.502  30.401  0.00  0.00     0.187 C 
HETATM   24  O   UNL     1       0.790   6.893  30.457  0.00  0.00    -0.388 OA
HETATM   25  C   UNL     1       1.343   6.785  29.135  0.00  0.00     0.187 C 
HETATM   26  C   UNL     1       1.490   8.162  28.464  0.00  0.00     0.149 C 
ENDBRANCH  18  21
ENDBRANCH  13  15
ENDBRANCH   8  11
BRANCH   7  27
HETATM   27  O   UNL     1      -4.892  12.762  22.898  0.00  0.00    -0.360 OA
HETATM   28  H   UNL     1      -4.492  12.269  23.633  0.00  0.00     0.217 HD
ENDBRANCH   7  27
BRANCH   1  29
HETATM   29  C   UNL     1      -0.357  17.295  20.630  0.00  0.00     0.036 C 
HETATM   30  C   UNL     1       0.079  17.702  19.217  0.00  0.00     0.016 C 
BRANCH  29  31
HETATM   31  C   UNL     1       0.679  16.348  21.261  0.00  0.00     0.006 C 
HETATM   32  C   UNL     1       1.366  16.938  22.486  0.00  0.00     0.006 C 
ENDBRANCH  29  31
ENDBRANCH   1  29
TORSDOF 6
ENDMDL
MODEL 4
REMARK VINA RESULT:    -8.093      1.483      2.143
REMARK INTER + INTRA:         -11.322
REMARK INTER:                 -10.599
REMARK INTRA:                  -0.723
REMARK UNBOUND:                -0.627
REMARK  6 active torsions:
REMARK  status: ('A' for Active; 'I' for Inactive)
REMARK    1  A    between atoms: C_2  and  C_3 
REMARK    2  A    between atoms: C_3  and  C_5 
REMARK    3  A    between atoms: C_11  and  O_12 
REMARK    4  A    between atoms: C_13  and  C_14 
REMARK       I    between atoms: C_14  and  N_16 
REMARK    5  A    between atoms: N_16  and  C_18 
REMARK    6  A    between atoms: C_21  and  N_22 
ROOT
HETATM    1  C   UNL     1      -1.473  16.820  20.611  0.00  0.00     0.071 A 
HETATM    2  N   UNL     1      -2.228  17.570  19.792  0.00  0.00    -0.178 NA
HETATM    3  N   UNL     1      -3.456  17.046  19.915  0.00  0.00    -0.277 N 
HETATM    4  H   UNL     1      -4.206  17.458  19.366  0.00  0.00     0.189 HD
HETATM    5  C   UNL     1      -3.532  15.985  20.773  0.00  0.00     0.065 A 
HETATM    6  C   UNL     1      -4.596  15.150  21.124  0.00  0.00     0.069 A 
HETATM    7  C   UNL     1      -4.326  14.090  22.013  0.00  0.00     0.083 A 
HETATM    8  C   UNL     1      -3.067  13.918  22.601  0.00  0.00     0.066 A 
HETATM    9  C   UNL     1      -2.021  14.793  22.206  0.00  0.00     0.035 A 
HETATM   10  C   UNL     1      -2.246  15.823  21.272  0.00  0.00     0.020 A 
ENDROOT
BRANCH   8  11
HETATM   11  C   UNL     1      -2.632  12.802  23.509  0.00  0.00     0.260 C 
HETATM   12  O   UNL     1      -2.723  11.684  22.985  0.00  0.00    -0.267 OA
HETATM   13  N   UNL     1      -2.127  12.991  24.820  0.00  0.00    -0.318 N 
HETATM   14  C   UNL     1      -2.163  14.263  25.534  0.00  0.00     0.159 C 
BRANCH  13  15
HETATM   15  C   UNL     1      -1.619  11.861  25.569  0.00  0.00     0.037 A 
HETATM   16  C   UNL     1      -0.406  11.255  25.236  0.00  0.00     0.032 A 
HETATM   17  C   UNL     1       0.066  10.133  25.933  0.00  0.00     0.031 A 
HETATM   18  C   UNL     1      -0.645   9.555  26.991  0.00  0.00     0.030 A 
HETATM   19  C   UNL     1      -1.823  10.212  27.366  0.00  0.00     0.031 A 
HETATM   20  C   UNL     1      -2.301  11.343  26.676  0.00  0.00     0.032 A 
BRANCH  18  21
HETATM   21  N   UNL     1      -0.233   8.385  27.589  0.00  0.00    -0.377 N 
HETATM   22  C   UNL     1      -0.912   7.092  27.426  0.00  0.00     0.149 C 
HETATM   23  C   UNL     1       0.121   5.997  27.114  0.00  0.00     0.187 C 
HETATM   24  O   UNL     1       1.158   5.944  28.109  0.00  0.00    -0.388 OA
HETATM   25  C   UNL     1       1.840   7.207  28.181  0.00  0.00     0.187 C 
HETATM   26  C   UNL     1       0.882   8.352  28.553  0.00  0.00     0.149 C 
ENDBRANCH  18  21
ENDBRANCH  13  15
ENDBRANCH   8  11
BRANCH   7  27
HETATM   27  O   UNL     1      -5.340  13.196  22.226  0.00  0.00    -0.360 OA
HETATM   28  H   UNL     1      -6.144  13.672  22.495  0.00  0.00     0.217 HD
ENDBRANCH   7  27
BRANCH   1  29
HETATM   29  C   UNL     1       0.005  17.116  20.702  0.00  0.00     0.036 C 
HETATM   30  C   UNL     1       0.487  17.931  19.497  0.00  0.00     0.016 C 
BRANCH  29  31
HETATM   31  C   UNL     1       0.865  15.851  20.877  0.00  0.00     0.006 C 
HETATM   32  C   UNL     1       2.219  15.944  20.185  0.00  0.00     0.006 C 
ENDBRANCH  29  31
ENDBRANCH   1  29
TORSDOF 6
ENDMDL
MODEL 5
REMARK VINA RESULT:    -8.026      2.176      2.948
REMARK INTER + INTRA:         -11.234
REMARK INTER:                 -10.098
REMARK INTRA:                  -1.136
REMARK UNBOUND:                -0.627
REMARK  6 active torsions:
REMARK  status: ('A' for Active; 'I' for Inactive)
REMARK    1  A    between atoms: C_2  and  C_3 
REMARK    2  A    between atoms: C_3  and  C_5 
REMARK    3  A    between atoms: C_11  and  O_12 
REMARK    4  A    between atoms: C_13  and  C_14 
REMARK       I    between atoms: C_14  and  N_16 
REMARK    5  A    between atoms: N_16  and  C_18 
REMARK    6  A    between atoms: C_21  and  N_22 
ROOT
HETATM    1  C   UNL     1       0.365  16.957  20.497  0.00  0.00     0.071 A 
HETATM    2  N   UNL     1      -0.273  17.892  19.776  0.00  0.00    -0.178 NA
HETATM    3  N   UNL     1      -1.567  17.556  19.882  0.00  0.00    -0.277 N 
HETATM    4  H   UNL     1      -2.250  18.132  19.397  0.00  0.00     0.189 HD
HETATM    5  C   UNL     1      -1.798  16.441  20.638  0.00  0.00     0.065 A 
HETATM    6  C   UNL     1      -2.975  15.751  20.939  0.00  0.00     0.069 A 
HETATM    7  C   UNL     1      -2.864  14.579  21.715  0.00  0.00     0.083 A 
HETATM    8  C   UNL     1      -1.640  14.157  22.248  0.00  0.00     0.066 A 
HETATM    9  C   UNL     1      -0.474  14.893  21.908  0.00  0.00     0.035 A 
HETATM   10  C   UNL     1      -0.547  16.032  21.082  0.00  0.00     0.020 A 
ENDROOT
BRANCH   8  11
HETATM   11  C   UNL     1      -1.374  12.903  23.033  0.00  0.00     0.260 C 
HETATM   12  O   UNL     1      -1.610  11.868  22.394  0.00  0.00    -0.267 OA
HETATM   13  N   UNL     1      -0.868  12.883  24.357  0.00  0.00    -0.318 N 
HETATM   14  C   UNL     1      -0.740  14.066  25.201  0.00  0.00     0.159 C 
BRANCH  13  15
HETATM   15  C   UNL     1      -0.529  11.622  24.981  0.00  0.00     0.037 A 
HETATM   16  C   UNL     1       0.695  10.997  24.740  0.00  0.00     0.032 A 
HETATM   17  C   UNL     1       1.007   9.754  25.311  0.00  0.00     0.031 A 
HETATM   18  C   UNL     1       0.116   9.068  26.145  0.00  0.00     0.030 A 
HETATM   19  C   UNL     1      -1.080   9.735  26.440  0.00  0.00     0.031 A 
HETATM   20  C   UNL     1      -1.398  10.986  25.877  0.00  0.00     0.032 A 
BRANCH  18  21
HETATM   21  N   UNL     1       0.382   7.797  26.603  0.00  0.00    -0.377 N 
HETATM   22  C   UNL     1      -0.611   6.932  27.257  0.00  0.00     0.149 C 
HETATM   23  C   UNL     1      -0.561   5.525  26.639  0.00  0.00     0.187 C 
HETATM   24  O   UNL     1       0.764   4.967  26.691  0.00  0.00    -0.388 OA
HETATM   25  C   UNL     1       1.684   5.810  25.978  0.00  0.00     0.187 C 
HETATM   26  C   UNL     1       1.740   7.226  26.576  0.00  0.00     0.149 C 
ENDBRANCH  18  21
ENDBRANCH  13  15
ENDBRANCH   8  11
BRANCH   7  27
HETATM   27  O   UNL     1      -4.004  13.838  21.870  0.00  0.00    -0.360 OA
HETATM   28  H   UNL     1      -3.852  12.935  21.543  0.00  0.00     0.217 HD
ENDBRANCH   7  27
BRANCH   1  29
HETATM   29  C   UNL     1       1.872  17.008  20.574  0.00  0.00     0.036 C 
HETATM   30  C   UNL     1       2.510  15.822  19.842  0.00  0.00     0.016 C 
BRANCH  29  31
HETATM   31  C   UNL     1       2.401  17.098  22.018  0.00  0.00     0.006 C 
HETATM   32  C   UNL     1       3.137  15.843  22.467  0.00  0.00     0.006 C 
ENDBRANCH  29  31
ENDBRANCH   1  29
TORSDOF 6
ENDMDL
MODEL 6
REMARK VINA RESULT:    -7.922      2.625      4.152
REMARK INTER + INTRA:         -11.096
REMARK INTER:                 -10.070
REMARK INTRA:                  -1.027
REMARK UNBOUND:                -0.627
REMARK  6 active torsions:
REMARK  status: ('A' for Active; 'I' for Inactive)
REMARK    1  A    between atoms: C_2  and  C_3 
REMARK    2  A    between atoms: C_3  and  C_5 
REMARK    3  A    between atoms: C_11  and  O_12 
REMARK    4  A    between atoms: C_13  and  C_14 
REMARK       I    between atoms: C_14  and  N_16 
REMARK    5  A    between atoms: N_16  and  C_18 
REMARK    6  A    between atoms: C_21  and  N_22 
ROOT
HETATM    1  C   UNL     1      -2.518  16.515  20.292  0.00  0.00     0.071 A 
HETATM    2  N   UNL     1      -2.129  17.700  19.796  0.00  0.00    -0.178 NA
HETATM    3  N   UNL     1      -0.806  17.725  20.019  0.00  0.00    -0.277 N 
HETATM    4  H   UNL     1      -0.290  18.551  19.728  0.00  0.00     0.189 HD
HETATM    5  C   UNL     1      -0.320  16.611  20.644  0.00  0.00     0.065 A 
HETATM    6  C   UNL     1       0.963  16.282  21.090  0.00  0.00     0.069 A 
HETATM    7  C   UNL     1       1.125  15.052  21.760  0.00  0.00     0.083 A 
HETATM    8  C   UNL     1       0.070  14.142  21.903  0.00  0.00     0.066 A 
HETATM    9  C   UNL     1      -1.213  14.528  21.434  0.00  0.00     0.035 A 
HETATM   10  C   UNL     1      -1.418  15.778  20.817  0.00  0.00     0.020 A 
ENDROOT
BRANCH   8  11
HETATM   11  C   UNL     1       0.092  12.835  22.644  0.00  0.00     0.260 C 
HETATM   12  O   UNL     1       0.172  11.851  21.896  0.00  0.00    -0.267 OA
HETATM   13  N   UNL     1       0.064  12.718  24.057  0.00  0.00    -0.318 N 
HETATM   14  C   UNL     1      -0.203  13.830  24.963  0.00  0.00     0.159 C 
BRANCH  13  15
HETATM   15  C   UNL     1       0.213  11.419  24.678  0.00  0.00     0.037 A 
HETATM   16  C   UNL     1       1.473  10.874  24.930  0.00  0.00     0.032 A 
HETATM   17  C   UNL     1       1.618   9.597  25.491  0.00  0.00     0.031 A 
HETATM   18  C   UNL     1       0.519   8.796  25.826  0.00  0.00     0.030 A 
HETATM   19  C   UNL     1      -0.740   9.379  25.637  0.00  0.00     0.031 A 
HETATM   20  C   UNL     1      -0.895  10.663  25.080  0.00  0.00     0.032 A 
BRANCH  18  21
HETATM   21  N   UNL     1       0.672   7.500  26.264  0.00  0.00    -0.377 N 
HETATM   22  C   UNL     1      -0.374   6.735  26.957  0.00  0.00     0.149 C 
HETATM   23  C   UNL     1      -0.497   5.336  26.330  0.00  0.00     0.187 C 
HETATM   24  O   UNL     1       0.764   4.645  26.319  0.00  0.00    -0.388 OA
HETATM   25  C   UNL     1       1.733   5.396  25.569  0.00  0.00     0.187 C 
HETATM   26  C   UNL     1       1.962   6.793  26.172  0.00  0.00     0.149 C 
ENDBRANCH  18  21
ENDBRANCH  13  15
ENDBRANCH   8  11
BRANCH   7  27
HETATM   27  O   UNL     1       2.350  14.818  22.321  0.00  0.00    -0.360 OA
HETATM   28  H   UNL     1       2.289  14.067  22.935  0.00  0.00     0.217 HD
ENDBRANCH   7  27
BRANCH   1  29
HETATM   29  C   UNL     1      -3.984  16.156  20.236  0.00  0.00     0.036 C 
HETATM   30  C   UNL     1      -4.484  15.638  21.590  0.00  0.00     0.016 C 
BRANCH  29  31
HETATM   31  C   UNL     1      -4.318  15.152  19.118  0.00  0.00     0.006 C 
HETATM   32  C   UNL     1      -4.898  13.843  19.638  0.00  0.00     0.006 C 
ENDBRANCH  29  31
ENDBRANCH   1  29
TORSDOF 6
ENDMDL
MODEL 7
REMARK VINA RESULT:    -7.870      1.940      3.684
REMARK INTER + INTRA:         -11.028
REMARK INTER:                 -10.095
REMARK INTRA:                  -0.933
REMARK UNBOUND:                -0.627
REMARK  6 active torsions:
REMARK  status: ('A' for Active; 'I' for Inactive)
REMARK    1  A    between atoms: C_2  and  C_3 
REMARK    2  A    between atoms: C_3  and  C_5 
REMARK    3  A    between atoms: C_11  and  O_12 
REMARK    4  A    between atoms: C_13  and  C_14 
REMARK       I    between atoms: C_14  and  N_16 
REMARK    5  A    between atoms: N_16  and  C_18 
REMARK    6  A    between atoms: C_21  and  N_22 
ROOT
HETATM    1  C   UNL     1      -2.992  16.075  20.267  0.00  0.00     0.071 A 
HETATM    2  N   UNL     1      -2.788  17.144  19.481  0.00  0.00    -0.178 NA
HETATM    3  N   UNL     1      -1.505  17.469  19.703  0.00  0.00    -0.277 N 
HETATM    4  H   UNL     1      -1.126  18.273  19.211  0.00  0.00     0.189 HD
HETATM    5  C   UNL     1      -0.868  16.661  20.602  0.00  0.00     0.065 A 
HETATM    6  C   UNL     1       0.425  16.699  21.131  0.00  0.00     0.069 A 
HETATM    7  C   UNL     1       0.761  15.733  22.101  0.00  0.00     0.083 A 
HETATM    8  C   UNL     1      -0.124  14.711  22.467  0.00  0.00     0.066 A 
HETATM    9  C   UNL     1      -1.426  14.721  21.901  0.00  0.00     0.035 A 
HETATM   10  C   UNL     1      -1.811  15.712  20.976  0.00  0.00     0.020 A 
ENDROOT
BRANCH   8  11
HETATM   11  C   UNL     1       0.084  13.663  23.525  0.00  0.00     0.260 C 
HETATM   12  O   UNL     1       0.275  14.140  24.652  0.00  0.00    -0.267 OA
HETATM   13  N   UNL     1       0.030  12.267  23.286  0.00  0.00    -0.318 N 
HETATM   14  C   UNL     1      -0.021  11.667  21.957  0.00  0.00     0.159 C 
BRANCH  13  15
HETATM   15  C   UNL     1       0.121  11.341  24.394  0.00  0.00     0.037 A 
HETATM   16  C   UNL     1       1.321  10.705  24.714  0.00  0.00     0.032 A 
HETATM   17  C   UNL     1       1.400   9.774  25.761  0.00  0.00     0.031 A 
HETATM   18  C   UNL     1       0.289   9.425  26.538  0.00  0.00     0.030 A 
HETATM   19  C   UNL     1      -0.894  10.120  26.258  0.00  0.00     0.031 A 
HETATM   20  C   UNL     1      -0.980  11.061  25.213  0.00  0.00     0.032 A 
BRANCH  18  21
HETATM   21  N   UNL     1       0.349   8.425  27.482  0.00  0.00    -0.377 N 
HETATM   22  C   UNL     1       0.738   8.637  28.883  0.00  0.00     0.149 C 
HETATM   23  C   UNL     1      -0.266   7.935  29.813  0.00  0.00     0.187 C 
HETATM   24  O   UNL     1      -0.404   6.539  29.492  0.00  0.00    -0.388 OA
HETATM   25  C   UNL     1      -0.855   6.386  28.137  0.00  0.00     0.187 C 
HETATM   26  C   UNL     1       0.131   7.010  27.134  0.00  0.00     0.149 C 
ENDBRANCH  18  21
ENDBRANCH  13  15
ENDBRANCH   8  11
BRANCH   7  27
HETATM   27  O   UNL     1       1.975  15.879  22.716  0.00  0.00    -0.360 OA
HETATM   28  H   UNL     1       2.092  16.805  22.988  0.00  0.00     0.217 HD
ENDBRANCH   7  27
BRANCH   1  29
HETATM   29  C   UNL     1      -4.366  15.450  20.293  0.00  0.00     0.036 C 
HETATM   30  C   UNL     1      -4.970  15.488  21.701  0.00  0.00     0.016 C 
BRANCH  29  31
HETATM   31  C   UNL     1      -4.388  14.015  19.735  0.00  0.00     0.006 C 
HETATM   32  C   UNL     1      -5.519  13.772  18.745  0.00  0.00     0.006 C 
ENDBRANCH  29  31
ENDBRANCH   1  29
TORSDOF 6
ENDMDL
MODEL 8
REMARK VINA RESULT:    -7.595      2.326      2.720
REMARK INTER + INTRA:         -10.664
REMARK INTER:                  -9.700
REMARK INTRA:                  -0.964
REMARK UNBOUND:                -0.627
REMARK  6 active torsions:
REMARK  status: ('A' for Active; 'I' for Inactive)
REMARK    1  A    between atoms: C_2  and  C_3 
REMARK    2  A    between atoms: C_3  and  C_5 
REMARK    3  A    between atoms: C_11  and  O_12 
REMARK    4  A    between atoms: C_13  and  C_14 
REMARK       I    between atoms: C_14  and  N_16 
REMARK    5  A    between atoms: N_16  and  C_18 
REMARK    6  A    between atoms: C_21  and  N_22 
ROOT
HETATM    1  C   UNL     1      -0.315  17.078  20.775  0.00  0.00     0.071 A 
HETATM    2  N   UNL     1      -1.115  17.860  20.032  0.00  0.00    -0.178 NA
HETATM    3  N   UNL     1      -2.189  17.091  19.795  0.00  0.00    -0.277 N 
HETATM    4  H   UNL     1      -2.938  17.481  19.230  0.00  0.00     0.189 HD
HETATM    5  C   UNL     1      -2.119  15.843  20.347  0.00  0.00     0.065 A 
HETATM    6  C   UNL     1      -2.989  14.751  20.285  0.00  0.00     0.069 A 
HETATM    7  C   UNL     1      -2.591  13.563  20.931  0.00  0.00     0.083 A 
HETATM    8  C   UNL     1      -1.414  13.488  21.686  0.00  0.00     0.066 A 
HETATM    9  C   UNL     1      -0.564  14.626  21.713  0.00  0.00     0.035 A 
HETATM   10  C   UNL     1      -0.907  15.807  21.024  0.00  0.00     0.020 A 
ENDROOT
BRANCH   8  11
HETATM   11  C   UNL     1      -0.846  12.275  22.368  0.00  0.00     0.260 C 
HETATM   12  O   UNL     1      -0.160  11.569  21.616  0.00  0.00    -0.267 OA
HETATM   13  N   UNL     1      -1.030  11.972  23.741  0.00  0.00    -0.318 N 
HETATM   14  C   UNL     1      -1.961  12.676  24.615  0.00  0.00     0.159 C 
BRANCH  13  15
HETATM   15  C   UNL     1      -0.338  10.846  24.330  0.00  0.00     0.037 A 
HETATM   16  C   UNL     1       0.971  10.960  24.798  0.00  0.00     0.032 A 
HETATM   17  C   UNL     1       1.657   9.857  25.330  0.00  0.00     0.031 A 
HETATM   18  C   UNL     1       1.077   8.586  25.419  0.00  0.00     0.030 A 
HETATM   19  C   UNL     1      -0.261   8.497  25.015  0.00  0.00     0.031 A 
HETATM   20  C   UNL     1      -0.959   9.600  24.486  0.00  0.00     0.032 A 
BRANCH  18  21
HETATM   21  N   UNL     1       1.797   7.487  25.830  0.00  0.00    -0.377 N 
HETATM   22  C   UNL     1       3.146   7.157  25.347  0.00  0.00     0.149 C 
HETATM   23  C   UNL     1       4.056   6.816  26.539  0.00  0.00     0.187 C 
HETATM   24  O   UNL     1       3.498   5.769  27.352  0.00  0.00    -0.388 OA
HETATM   25  C   UNL     1       2.214   6.167  27.859  0.00  0.00     0.187 C 
HETATM   26  C   UNL     1       1.221   6.467  26.723  0.00  0.00     0.149 C 
ENDBRANCH  18  21
ENDBRANCH  13  15
ENDBRANCH   8  11
BRANCH   7  27
HETATM   27  O   UNL     1      -3.381  12.463  20.733  0.00  0.00    -0.360 OA
HETATM   28  H   UNL     1      -3.140  11.770  21.370  0.00  0.00     0.217 HD
ENDBRANCH   7  27
BRANCH   1  29
HETATM   29  C   UNL     1       1.025  17.623  21.208  0.00  0.00     0.036 C 
HETATM   30  C   UNL     1       2.110  17.329  20.167  0.00  0.00     0.016 C 
BRANCH  29  31
HETATM   31  C   UNL     1       1.460  17.122  22.597  0.00  0.00     0.006 C 
HETATM   32  C   UNL     1       2.687  16.220  22.554  0.00  0.00     0.006 C 
ENDBRANCH  29  31
ENDBRANCH   1  29
TORSDOF 6
ENDMDL
MODEL 9
REMARK VINA RESULT:    -7.283      3.708      4.851
REMARK INTER + INTRA:         -10.252
REMARK INTER:                  -9.625
REMARK INTRA:                  -0.627
REMARK UNBOUND:                -0.627
REMARK  6 active torsions:
REMARK  status: ('A' for Active; 'I' for Inactive)
REMARK    1  A    between atoms: C_2  and  C_3 
REMARK    2  A    between atoms: C_3  and  C_5 
REMARK    3  A    between atoms: C_11  and  O_12 
REMARK    4  A    between atoms: C_13  and  C_14 
REMARK       I    between atoms: C_14  and  N_16 
REMARK    5  A    between atoms: N_16  and  C_18 
REMARK    6  A    between atoms: C_21  and  N_22 
ROOT
HETATM    1  C   UNL     1      -3.330  13.981  22.297  0.00  0.00     0.071 A 
HETATM    2  N   UNL     1      -4.431  14.692  22.587  0.00  0.00    -0.178 NA
HETATM    3  N   UNL     1      -4.752  14.299  23.829  0.00  0.00    -0.277 N 
HETATM    4  H   UNL     1      -5.577  14.708  24.260  0.00  0.00     0.189 HD
HETATM    5  C   UNL     1      -3.910  13.361  24.357  0.00  0.00     0.065 A 
HETATM    6  C   UNL     1      -3.932  12.673  25.573  0.00  0.00     0.069 A 
HETATM    7  C   UNL     1      -2.928  11.708  25.795  0.00  0.00     0.083 A 
HETATM    8  C   UNL     1      -1.889  11.496  24.881  0.00  0.00     0.066 A 
HETATM    9  C   UNL     1      -1.917  12.220  23.659  0.00  0.00     0.035 A 
HETATM   10  C   UNL     1      -2.943  13.145  23.383  0.00  0.00     0.020 A 
ENDROOT
BRANCH   8  11
HETATM   11  C   UNL     1      -0.800  10.464  24.964  0.00  0.00     0.260 C 
HETATM   12  O   UNL     1      -1.216   9.341  25.281  0.00  0.00    -0.267 OA
HETATM   13  N   UNL     1       0.564  10.718  24.676  0.00  0.00    -0.318 N 
HETATM   14  C   UNL     1       1.121  12.050  24.469  0.00  0.00     0.159 C 
BRANCH  13  15
HETATM   15  C   UNL     1       1.516   9.628  24.666  0.00  0.00     0.037 A 
HETATM   16  C   UNL     1       2.433   9.454  25.703  0.00  0.00     0.032 A 
HETATM   17  C   UNL     1       3.384   8.422  25.673  0.00  0.00     0.031 A 
HETATM   18  C   UNL     1       3.474   7.517  24.610  0.00  0.00     0.030 A 
HETATM   19  C   UNL     1       2.505   7.654  23.609  0.00  0.00     0.031 A 
HETATM   20  C   UNL     1       1.542   8.681  23.634  0.00  0.00     0.032 A 
BRANCH  18  21
HETATM   21  N   UNL     1       4.486   6.586  24.533  0.00  0.00    -0.377 N 
HETATM   22  C   UNL     1       4.339   5.176  24.922  0.00  0.00     0.149 C 
HETATM   23  C   UNL     1       4.924   4.271  23.826  0.00  0.00     0.187 C 
HETATM   24  O   UNL     1       6.289   4.612  23.525  0.00  0.00    -0.388 OA
HETATM   25  C   UNL     1       6.371   5.976  23.081  0.00  0.00     0.187 C 
HETATM   26  C   UNL     1       5.860   6.956  24.151  0.00  0.00     0.149 C 
ENDBRANCH  18  21
ENDBRANCH  13  15
ENDBRANCH   8  11
BRANCH   7  27
HETATM   27  O   UNL     1      -3.055  10.941  26.921  0.00  0.00    -0.360 OA
HETATM   28  H   UNL     1      -2.824  10.020  26.715  0.00  0.00     0.217 HD
ENDBRANCH   7  27
BRANCH   1  29
HETATM   29  C   UNL     1      -2.699  14.152  20.936  0.00  0.00     0.036 C 
HETATM   30  C   UNL     1      -1.353  14.880  21.032  0.00  0.00     0.016 C 
BRANCH  29  31
HETATM   31  C   UNL     1      -3.622  14.858  19.926  0.00  0.00     0.006 C 
HETATM   32  C   UNL     1      -3.303  16.336  19.750  0.00  0.00     0.006 C 
ENDBRANCH  29  31
ENDBRANCH   1  29
TORSDOF 6
ENDMDL
