MODEL 1
REMARK VINA RESULT:    -7.854      0.000      0.000
REMARK INTER + INTRA:         -11.359
REMARK INTER:                 -10.372
REMARK INTRA:                  -0.987
REMARK UNBOUND:                -0.979
REMARK  6 active torsions:
REMARK  status: ('A' for Active; 'I' for Inactive)
REMARK    1  A    between atoms: C_2  and  C_3 
REMARK    2  A    between atoms: C_3  and  C_5 
REMARK    3  A    between atoms: C_11  and  O_12 
REMARK    4  A    between atoms: C_13  and  C_14 
REMARK       I    between atoms: C_14  and  N_16 
REMARK    5  A    between atoms: N_16  and  C_18 
REMARK    6  A    between atoms: C_21  and  N_22 
ROOT
HETATM    1  C   UNL     1      12.513  12.328  22.556  0.00  0.00     0.101 A 
HETATM    2  N   UNL     1      13.728  12.818  22.856  0.00  0.00    -0.175 NA
HETATM    3  N   UNL     1      13.468  13.809  23.723  0.00  0.00    -0.277 N 
HETATM    4  H   UNL     1      14.253  14.356  24.066  0.00  0.00     0.189 HD
HETATM    5  C   UNL     1      12.142  13.981  24.007  0.00  0.00     0.065 A 
HETATM    6  C   UNL     1      11.474  14.931  24.778  0.00  0.00     0.069 A 
HETATM    7  C   UNL     1      10.069  14.867  24.820  0.00  0.00     0.083 A 
HETATM    8  C   UNL     1       9.352  13.839  24.194  0.00  0.00     0.066 A 
HETATM    9  C   UNL     1      10.081  12.903  23.411  0.00  0.00     0.035 A 
HETATM   10  C   UNL     1      11.486  12.988  23.291  0.00  0.00     0.022 A 
ENDROOT
BRANCH   8  11
HETATM   11  C   UNL     1       7.856  13.684  24.125  0.00  0.00     0.260 C 
HETATM   12  O   UNL     1       7.405  12.902  24.971  0.00  0.00    -0.267 OA
HETATM   13  N   UNL     1       7.020  14.380  23.214  0.00  0.00    -0.318 N 
HETATM   14  C   UNL     1       7.506  15.178  22.094  0.00  0.00     0.159 C 
BRANCH  13  15
HETATM   15  C   UNL     1       5.582  14.245  23.308  0.00  0.00     0.037 A 
HETATM   16  C   UNL     1       4.787  15.274  23.814  0.00  0.00     0.032 A 
HETATM   17  C   UNL     1       3.396  15.130  23.940  0.00  0.00     0.031 A 
HETATM   18  C   UNL     1       2.728  13.955  23.578  0.00  0.00     0.030 A 
HETATM   19  C   UNL     1       3.524  12.952  23.010  0.00  0.00     0.031 A 
HETATM   20  C   UNL     1       4.920  13.091  22.871  0.00  0.00     0.032 A 
BRANCH  18  21
HETATM   21  N   UNL     1       1.383  13.776  23.820  0.00  0.00    -0.377 N 
HETATM   22  C   UNL     1       0.402  13.430  22.781  0.00  0.00     0.149 C 
HETATM   23  C   UNL     1      -0.533  12.326  23.302  0.00  0.00     0.187 C 
HETATM   24  O   UNL     1      -1.167  12.702  24.537  0.00  0.00    -0.388 OA
HETATM   25  C   UNL     1      -0.172  12.968  25.540  0.00  0.00     0.187 C 
HETATM   26  C   UNL     1       0.770  14.109  25.119  0.00  0.00     0.149 C 
ENDBRANCH  18  21
ENDBRANCH  13  15
ENDBRANCH   8  11
BRANCH   7  27
HETATM   27  O   UNL     1       9.431  15.907  25.442  0.00  0.00    -0.360 OA
HETATM   28  H   UNL     1       8.469  15.793  25.364  0.00  0.00     0.217 HD
ENDBRANCH   7  27
BRANCH   1  29
HETATM   29  C   UNL     1      12.376  11.240  21.530  0.00  0.00     0.224 C 
HETATM   30  F   UNL     1      13.431  10.375  21.601  0.00  0.00    -0.243 F 
BRANCH  29  31
HETATM   31  C   UNL     1      12.304  11.786  20.105  0.00  0.00     0.039 C 
HETATM   32  C   UNL     1      10.882  12.171  19.725  0.00  0.00     0.008 C 
ENDBRANCH  29  31
ENDBRANCH   1  29
TORSDOF 6
ENDMDL
MODEL 2
REMARK VINA RESULT:    -7.852      1.972      2.562
REMARK INTER + INTRA:         -11.356
REMARK INTER:                 -10.305
REMARK INTRA:                  -1.050
REMARK UNBOUND:                -0.979
REMARK  6 active torsions:
REMARK  status: ('A' for Active; 'I' for Inactive)
REMARK    1  A    between atoms: C_2  and  C_3 
REMARK    2  A    between atoms: C_3  and  C_5 
REMARK    3  A    between atoms: C_11  and  O_12 
REMARK    4  A    between atoms: C_13  and  C_14 
REMARK       I    between atoms: C_14  and  N_16 
REMARK    5  A    between atoms: N_16  and  C_18 
REMARK    6  A    between atoms: C_21  and  N_22 
ROOT
HETATM    1  C   UNL     1      10.567  14.125  22.667  0.00  0.00     0.101 A 
HETATM    2  N   UNL     1      11.749  14.521  23.169  0.00  0.00    -0.175 NA
HETATM    3  N   UNL     1      11.483  14.757  24.464  0.00  0.00    -0.277 N 
HETATM    4  H   UNL     1      12.239  15.108  25.045  0.00  0.00     0.189 HD
HETATM    5  C   UNL     1      10.187  14.524  24.828  0.00  0.00     0.065 A 
HETATM    6  C   UNL     1       9.512  14.720  26.033  0.00  0.00     0.069 A 
HETATM    7  C   UNL     1       8.136  14.431  26.064  0.00  0.00     0.083 A 
HETATM    8  C   UNL     1       7.467  13.875  24.966  0.00  0.00     0.066 A 
HETATM    9  C   UNL     1       8.199  13.706  23.759  0.00  0.00     0.035 A 
HETATM   10  C   UNL     1       9.564  14.058  23.677  0.00  0.00     0.022 A 
ENDROOT
BRANCH   8  11
HETATM   11  C   UNL     1       5.997  13.566  24.856  0.00  0.00     0.260 C 
HETATM   12  O   UNL     1       5.713  12.413  25.206  0.00  0.00    -0.267 OA
HETATM   13  N   UNL     1       5.012  14.494  24.431  0.00  0.00    -0.318 N 
HETATM   14  C   UNL     1       5.306  15.800  23.852  0.00  0.00     0.159 C 
BRANCH  13  15
HETATM   15  C   UNL     1       3.612  14.129  24.472  0.00  0.00     0.037 A 
HETATM   16  C   UNL     1       2.821  14.405  25.587  0.00  0.00     0.032 A 
HETATM   17  C   UNL     1       1.473  14.019  25.643  0.00  0.00     0.031 A 
HETATM   18  C   UNL     1       0.846  13.332  24.597  0.00  0.00     0.030 A 
HETATM   19  C   UNL     1       1.628  13.116  23.455  0.00  0.00     0.031 A 
HETATM   20  C   UNL     1       2.980  13.509  23.387  0.00  0.00     0.032 A 
BRANCH  18  21
HETATM   21  N   UNL     1      -0.440  12.846  24.709  0.00  0.00    -0.377 N 
HETATM   22  C   UNL     1      -1.400  12.807  23.597  0.00  0.00     0.149 C 
HETATM   23  C   UNL     1      -2.119  11.447  23.585  0.00  0.00     0.187 C 
HETATM   24  O   UNL     1      -2.745  11.164  24.848  0.00  0.00    -0.388 OA
HETATM   25  C   UNL     1      -1.759  11.149  25.894  0.00  0.00     0.187 C 
HETATM   26  C   UNL     1      -1.035  12.501  26.013  0.00  0.00     0.149 C 
ENDBRANCH  18  21
ENDBRANCH  13  15
ENDBRANCH   8  11
BRANCH   7  27
HETATM   27  O   UNL     1       7.463  14.791  27.201  0.00  0.00    -0.360 OA
HETATM   28  H   UNL     1       7.723  15.689  27.464  0.00  0.00     0.217 HD
ENDBRANCH   7  27
BRANCH   1  29
HETATM   29  C   UNL     1      10.432  13.847  21.197  0.00  0.00     0.224 C 
HETATM   30  F   UNL     1      11.661  13.798  20.602  0.00  0.00    -0.243 F 
BRANCH  29  31
HETATM   31  C   UNL     1       9.596  14.902  20.476  0.00  0.00     0.039 C 
HETATM   32  C   UNL     1       8.287  14.322  19.962  0.00  0.00     0.008 C 
ENDBRANCH  29  31
ENDBRANCH   1  29
TORSDOF 6
ENDMDL
MODEL 3
REMARK VINA RESULT:    -7.831      2.194      2.866
REMARK INTER + INTRA:         -11.328
REMARK INTER:                 -10.322
REMARK INTRA:                  -1.006
REMARK UNBOUND:                -0.979
REMARK  6 active torsions:
REMARK  status: ('A' for Active; 'I' for Inactive)
REMARK    1  A    between atoms: C_2  and  C_3 
REMARK    2  A    between atoms: C_3  and  C_5 
REMARK    3  A    between atoms: C_11  and  O_12 
REMARK    4  A    between atoms: C_13  and  C_14 
REMARK       I    between atoms: C_14  and  N_16 
REMARK    5  A    between atoms: N_16  and  C_18 
REMARK    6  A    between atoms: C_21  and  N_22 
ROOT
HETATM    1  C   UNL     1      10.134  14.587  21.544  0.00  0.00     0.101 A 
HETATM    2  N   UNL     1      11.329  15.103  21.880  0.00  0.00    -0.175 NA
HETATM    3  N   UNL     1      11.206  15.362  23.191  0.00  0.00    -0.277 N 
HETATM    4  H   UNL     1      11.993  15.799  23.662  0.00  0.00     0.189 HD
HETATM    5  C   UNL     1       9.993  15.030  23.724  0.00  0.00     0.065 A 
HETATM    6  C   UNL     1       9.459  15.210  25.000  0.00  0.00     0.069 A 
HETATM    7  C   UNL     1       8.130  14.802  25.215  0.00  0.00     0.083 A 
HETATM    8  C   UNL     1       7.383  14.150  24.225  0.00  0.00     0.066 A 
HETATM    9  C   UNL     1       7.970  14.002  22.939  0.00  0.00     0.035 A 
HETATM   10  C   UNL     1       9.277  14.469  22.675  0.00  0.00     0.022 A 
ENDROOT
BRANCH   8  11
HETATM   11  C   UNL     1       5.945  13.709  24.312  0.00  0.00     0.260 C 
HETATM   12  O   UNL     1       5.817  12.531  24.671  0.00  0.00    -0.267 OA
HETATM   13  N   UNL     1       4.832  14.548  24.050  0.00  0.00    -0.318 N 
HETATM   14  C   UNL     1       4.925  15.882  23.467  0.00  0.00     0.159 C 
BRANCH  13  15
HETATM   15  C   UNL     1       3.490  14.056  24.275  0.00  0.00     0.037 A 
HETATM   16  C   UNL     1       2.862  13.210  23.359  0.00  0.00     0.032 A 
HETATM   17  C   UNL     1       1.548  12.762  23.558  0.00  0.00     0.031 A 
HETATM   18  C   UNL     1       0.788  13.137  24.672  0.00  0.00     0.030 A 
HETATM   19  C   UNL     1       1.447  13.932  25.619  0.00  0.00     0.031 A 
HETATM   20  C   UNL     1       2.770  14.379  25.432  0.00  0.00     0.032 A 
BRANCH  18  21
HETATM   21  N   UNL     1      -0.542  12.794  24.798  0.00  0.00    -0.377 N 
HETATM   22  C   UNL     1      -1.514  12.871  23.698  0.00  0.00     0.149 C 
HETATM   23  C   UNL     1      -2.379  11.598  23.686  0.00  0.00     0.187 C 
HETATM   24  O   UNL     1      -3.016  11.374  24.955  0.00  0.00    -0.388 OA
HETATM   25  C   UNL     1      -2.025  11.242  25.988  0.00  0.00     0.187 C 
HETATM   26  C   UNL     1      -1.155  12.505  26.107  0.00  0.00     0.149 C 
ENDBRANCH  18  21
ENDBRANCH  13  15
ENDBRANCH   8  11
BRANCH   7  27
HETATM   27  O   UNL     1       7.575  15.144  26.419  0.00  0.00    -0.360 OA
HETATM   28  H   UNL     1       8.012  15.938  26.767  0.00  0.00     0.217 HD
ENDBRANCH   7  27
BRANCH   1  29
HETATM   29  C   UNL     1       9.843  14.244  20.110  0.00  0.00     0.224 C 
HETATM   30  F   UNL     1       8.651  14.784  19.719  0.00  0.00    -0.243 F 
BRANCH  29  31
HETATM   31  C   UNL     1       9.783  12.737  19.870  0.00  0.00     0.039 C 
HETATM   32  C   UNL     1      11.174  12.122  19.830  0.00  0.00     0.008 C 
ENDBRANCH  29  31
ENDBRANCH   1  29
TORSDOF 6
ENDMDL
MODEL 4
REMARK VINA RESULT:    -7.822      1.780      2.152
REMARK INTER + INTRA:         -11.316
REMARK INTER:                 -10.184
REMARK INTRA:                  -1.132
REMARK UNBOUND:                -0.979
REMARK  6 active torsions:
REMARK  status: ('A' for Active; 'I' for Inactive)
REMARK    1  A    between atoms: C_2  and  C_3 
REMARK    2  A    between atoms: C_3  and  C_5 
REMARK    3  A    between atoms: C_11  and  O_12 
REMARK    4  A    between atoms: C_13  and  C_14 
REMARK       I    between atoms: C_14  and  N_16 
REMARK    5  A    between atoms: N_16  and  C_18 
REMARK    6  A    between atoms: C_21  and  N_22 
ROOT
HETATM    1  C   UNL     1      12.520  12.117  22.110  0.00  0.00     0.101 A 
HETATM    2  N   UNL     1      13.761  12.555  21.834  0.00  0.00    -0.175 NA
HETATM    3  N   UNL     1      13.590  13.864  21.590  0.00  0.00    -0.277 N 
HETATM    4  H   UNL     1      14.407  14.405  21.320  0.00  0.00     0.189 HD
HETATM    5  C   UNL     1      12.300  14.299  21.705  0.00  0.00     0.065 A 
HETATM    6  C   UNL     1      11.714  15.541  21.461  0.00  0.00     0.069 A 
HETATM    7  C   UNL     1      10.321  15.647  21.619  0.00  0.00     0.083 A 
HETATM    8  C   UNL     1       9.542  14.584  22.095  0.00  0.00     0.066 A 
HETATM    9  C   UNL     1      10.187  13.337  22.317  0.00  0.00     0.035 A 
HETATM   10  C   UNL     1      11.573  13.181  22.095  0.00  0.00     0.022 A 
ENDROOT
BRANCH   8  11
HETATM   11  C   UNL     1       8.046  14.554  22.263  0.00  0.00     0.260 C 
HETATM   12  O   UNL     1       7.434  14.499  21.188  0.00  0.00    -0.267 OA
HETATM   13  N   UNL     1       7.380  14.553  23.515  0.00  0.00    -0.318 N 
HETATM   14  C   UNL     1       8.036  14.785  24.797  0.00  0.00     0.159 C 
BRANCH  13  15
HETATM   15  C   UNL     1       5.941  14.406  23.566  0.00  0.00     0.037 A 
HETATM   16  C   UNL     1       5.102  15.514  23.696  0.00  0.00     0.032 A 
HETATM   17  C   UNL     1       3.708  15.370  23.783  0.00  0.00     0.031 A 
HETATM   18  C   UNL     1       3.080  14.119  23.753  0.00  0.00     0.030 A 
HETATM   19  C   UNL     1       3.924  13.018  23.557  0.00  0.00     0.031 A 
HETATM   20  C   UNL     1       5.324  13.154  23.459  0.00  0.00     0.032 A 
BRANCH  18  21
HETATM   21  N   UNL     1       1.725  13.978  23.964  0.00  0.00    -0.377 N 
HETATM   22  C   UNL     1       0.726  13.963  22.885  0.00  0.00     0.149 C 
HETATM   23  C   UNL     1      -0.285  12.830  23.135  0.00  0.00     0.187 C 
HETATM   24  O   UNL     1      -0.894  12.937  24.434  0.00  0.00    -0.388 OA
HETATM   25  C   UNL     1       0.114  12.883  25.457  0.00  0.00     0.187 C 
HETATM   26  C   UNL     1       1.134  14.025  25.313  0.00  0.00     0.149 C 
ENDBRANCH  18  21
ENDBRANCH  13  15
ENDBRANCH   8  11
BRANCH   7  27
HETATM   27  O   UNL     1       9.750  16.823  21.211  0.00  0.00    -0.360 OA
HETATM   28  H   UNL     1       9.057  17.085  21.839  0.00  0.00     0.217 HD
ENDBRANCH   7  27
BRANCH   1  29
HETATM   29  C   UNL     1      12.279  10.655  22.355  0.00  0.00     0.224 C 
HETATM   30  F   UNL     1      11.159  10.234  21.694  0.00  0.00    -0.243 F 
BRANCH  29  31
HETATM   31  C   UNL     1      12.105  10.332  23.838  0.00  0.00     0.039 C 
HETATM   32  C   UNL     1      10.636  10.247  24.223  0.00  0.00     0.008 C 
ENDBRANCH  29  31
ENDBRANCH   1  29
TORSDOF 6
ENDMDL
MODEL 5
REMARK VINA RESULT:    -7.743      2.111      3.006
REMARK INTER + INTRA:         -11.212
REMARK INTER:                 -10.495
REMARK INTRA:                  -0.717
REMARK UNBOUND:                -0.979
REMARK  6 active torsions:
REMARK  status: ('A' for Active; 'I' for Inactive)
REMARK    1  A    between atoms: C_2  and  C_3 
REMARK    2  A    between atoms: C_3  and  C_5 
REMARK    3  A    between atoms: C_11  and  O_12 
REMARK    4  A    between atoms: C_13  and  C_14 
REMARK       I    between atoms: C_14  and  N_16 
REMARK    5  A    between atoms: N_16  and  C_18 
REMARK    6  A    between atoms: C_21  and  N_22 
ROOT
HETATM    1  C   UNL     1      12.376  13.802  25.178  0.00  0.00     0.101 A 
HETATM    2  N   UNL     1      13.518  14.281  24.653  0.00  0.00    -0.175 NA
HETATM    3  N   UNL     1      13.099  15.126  23.697  0.00  0.00    -0.277 N 
HETATM    4  H   UNL     1      13.806  15.588  23.132  0.00  0.00     0.189 HD
HETATM    5  C   UNL     1      11.742  15.224  23.582  0.00  0.00     0.065 A 
HETATM    6  C   UNL     1      10.935  15.916  22.679  0.00  0.00     0.069 A 
HETATM    7  C   UNL     1       9.542  15.759  22.795  0.00  0.00     0.083 A 
HETATM    8  C   UNL     1       8.961  15.015  23.830  0.00  0.00     0.066 A 
HETATM    9  C   UNL     1       9.828  14.320  24.716  0.00  0.00     0.035 A 
HETATM   10  C   UNL     1      11.232  14.401  24.578  0.00  0.00     0.022 A 
ENDROOT
BRANCH   8  11
HETATM   11  C   UNL     1       7.496  14.731  24.037  0.00  0.00     0.260 C 
HETATM   12  O   UNL     1       7.053  15.199  25.094  0.00  0.00    -0.267 OA
HETATM   13  N   UNL     1       6.676  14.034  23.113  0.00  0.00    -0.318 N 
HETATM   14  C   UNL     1       7.176  13.322  21.943  0.00  0.00     0.159 C 
BRANCH  13  15
HETATM   15  C   UNL     1       5.254  13.917  23.357  0.00  0.00     0.037 A 
HETATM   16  C   UNL     1       4.643  12.671  23.508  0.00  0.00     0.032 A 
HETATM   17  C   UNL     1       3.259  12.555  23.707  0.00  0.00     0.031 A 
HETATM   18  C   UNL     1       2.412  13.668  23.759  0.00  0.00     0.030 A 
HETATM   19  C   UNL     1       3.042  14.917  23.672  0.00  0.00     0.031 A 
HETATM   20  C   UNL     1       4.432  15.043  23.482  0.00  0.00     0.032 A 
BRANCH  18  21
HETATM   21  N   UNL     1       1.041  13.540  23.830  0.00  0.00    -0.377 N 
HETATM   22  C   UNL     1       0.178  13.318  22.661  0.00  0.00     0.149 C 
HETATM   23  C   UNL     1      -0.858  12.229  22.985  0.00  0.00     0.187 C 
HETATM   24  O   UNL     1      -1.618  12.549  24.163  0.00  0.00    -0.388 OA
HETATM   25  C   UNL     1      -0.740  12.693  25.292  0.00  0.00     0.187 C 
HETATM   26  C   UNL     1       0.293  13.811  25.070  0.00  0.00     0.149 C 
ENDBRANCH  18  21
ENDBRANCH  13  15
ENDBRANCH   8  11
BRANCH   7  27
HETATM   27  O   UNL     1       8.781  16.308  21.798  0.00  0.00    -0.360 OA
HETATM   28  H   UNL     1       8.384  17.138  22.108  0.00  0.00     0.217 HD
ENDBRANCH   7  27
BRANCH   1  29
HETATM   29  C   UNL     1      12.428  12.742  26.240  0.00  0.00     0.224 C 
HETATM   30  F   UNL     1      11.679  11.658  25.875  0.00  0.00    -0.243 F 
BRANCH  29  31
HETATM   31  C   UNL     1      11.915  13.240  27.590  0.00  0.00     0.039 C 
HETATM   32  C   UNL     1      12.697  14.453  28.071  0.00  0.00     0.008 C 
ENDBRANCH  29  31
ENDBRANCH   1  29
TORSDOF 6
ENDMDL
MODEL 6
REMARK VINA RESULT:    -7.679      3.584      9.987
REMARK INTER + INTRA:         -11.127
REMARK INTER:                 -10.388
REMARK INTRA:                  -0.739
REMARK UNBOUND:                -0.979
REMARK  6 active torsions:
REMARK  status: ('A' for Active; 'I' for Inactive)
REMARK    1  A    between atoms: C_2  and  C_3 
REMARK    2  A    between atoms: C_3  and  C_5 
REMARK    3  A    between atoms: C_11  and  O_12 
REMARK    4  A    between atoms: C_13  and  C_14 
REMARK       I    between atoms: C_14  and  N_16 
REMARK    5  A    between atoms: N_16  and  C_18 
REMARK    6  A    between atoms: C_21  and  N_22 
ROOT
HETATM    1  C   UNL     1       0.197  12.997  24.491  0.00  0.00     0.101 A 
HETATM    2  N   UNL     1      -0.646  13.253  25.507  0.00  0.00    -0.175 NA
HETATM    3  N   UNL     1       0.085  14.006  26.345  0.00  0.00    -0.277 N 
HETATM    4  H   UNL     1      -0.345  14.294  27.219  0.00  0.00     0.189 HD
HETATM    5  C   UNL     1       1.358  14.258  25.916  0.00  0.00     0.065 A 
HETATM    6  C   UNL     1       2.427  14.918  26.522  0.00  0.00     0.069 A 
HETATM    7  C   UNL     1       3.649  14.955  25.827  0.00  0.00     0.083 A 
HETATM    8  C   UNL     1       3.785  14.438  24.532  0.00  0.00     0.066 A 
HETATM    9  C   UNL     1       2.668  13.766  23.966  0.00  0.00     0.035 A 
HETATM   10  C   UNL     1       1.450  13.649  24.672  0.00  0.00     0.022 A 
ENDROOT
BRANCH   8  11
HETATM   11  C   UNL     1       5.042  14.373  23.704  0.00  0.00     0.260 C 
HETATM   12  O   UNL     1       5.273  15.419  23.085  0.00  0.00    -0.267 OA
HETATM   13  N   UNL     1       5.909  13.252  23.650  0.00  0.00    -0.318 N 
HETATM   14  C   UNL     1       5.602  11.945  24.220  0.00  0.00     0.159 C 
BRANCH  13  15
HETATM   15  C   UNL     1       7.151  13.336  22.913  0.00  0.00     0.037 A 
HETATM   16  C   UNL     1       7.239  12.913  21.586  0.00  0.00     0.032 A 
HETATM   17  C   UNL     1       8.452  12.960  20.881  0.00  0.00     0.031 A 
HETATM   18  C   UNL     1       9.638  13.422  21.461  0.00  0.00     0.030 A 
HETATM   19  C   UNL     1       9.528  13.907  22.771  0.00  0.00     0.031 A 
HETATM   20  C   UNL     1       8.312  13.872  23.483  0.00  0.00     0.032 A 
BRANCH  18  21
HETATM   21  N   UNL     1      10.849  13.349  20.805  0.00  0.00    -0.377 N 
HETATM   22  C   UNL     1      11.837  14.438  20.785  0.00  0.00     0.149 C 
HETATM   23  C   UNL     1      13.242  13.863  21.030  0.00  0.00     0.187 C 
HETATM   24  O   UNL     1      13.565  12.824  20.088  0.00  0.00    -0.388 OA
HETATM   25  C   UNL     1      12.610  11.754  20.188  0.00  0.00     0.187 C 
HETATM   26  C   UNL     1      11.180  12.238  19.895  0.00  0.00     0.149 C 
ENDBRANCH  18  21
ENDBRANCH  13  15
ENDBRANCH   8  11
BRANCH   7  27
HETATM   27  O   UNL     1       4.724  15.456  26.512  0.00  0.00    -0.360 OA
HETATM   28  H   UNL     1       5.472  14.841  26.441  0.00  0.00     0.217 HD
ENDBRANCH   7  27
BRANCH   1  29
HETATM   29  C   UNL     1      -0.233  12.093  23.371  0.00  0.00     0.224 C 
HETATM   30  F   UNL     1      -0.766  12.819  22.343  0.00  0.00    -0.243 F 
BRANCH  29  31
HETATM   31  C   UNL     1      -1.272  11.066  23.815  0.00  0.00     0.039 C 
HETATM   32  C   UNL     1      -2.680  11.487  23.419  0.00  0.00     0.008 C 
ENDBRANCH  29  31
ENDBRANCH   1  29
TORSDOF 6
ENDMDL
MODEL 7
REMARK VINA RESULT:    -7.618      2.269      2.852
REMARK INTER + INTRA:         -11.046
REMARK INTER:                  -9.968
REMARK INTRA:                  -1.078
REMARK UNBOUND:                -0.979
REMARK  6 active torsions:
REMARK  status: ('A' for Active; 'I' for Inactive)
REMARK    1  A    between atoms: C_2  and  C_3 
REMARK    2  A    between atoms: C_3  and  C_5 
REMARK    3  A    between atoms: C_11  and  O_12 
REMARK    4  A    between atoms: C_13  and  C_14 
REMARK       I    between atoms: C_14  and  N_16 
REMARK    5  A    between atoms: N_16  and  C_18 
REMARK    6  A    between atoms: C_21  and  N_22 
ROOT
HETATM    1  C   UNL     1      10.927  12.771  24.382  0.00  0.00     0.101 A 
HETATM    2  N   UNL     1      12.106  13.309  24.023  0.00  0.00    -0.175 NA
HETATM    3  N   UNL     1      11.759  14.326  23.218  0.00  0.00    -0.277 N 
HETATM    4  H   UNL     1      12.507  14.866  22.792  0.00  0.00     0.189 HD
HETATM    5  C   UNL     1      10.413  14.480  23.046  0.00  0.00     0.065 A 
HETATM    6  C   UNL     1       9.674  15.349  22.243  0.00  0.00     0.069 A 
HETATM    7  C   UNL     1       8.274  15.210  22.247  0.00  0.00     0.083 A 
HETATM    8  C   UNL     1       7.619  14.302  23.090  0.00  0.00     0.066 A 
HETATM    9  C   UNL     1       8.420  13.432  23.879  0.00  0.00     0.035 A 
HETATM   10  C   UNL     1       9.830  13.500  23.839  0.00  0.00     0.022 A 
ENDROOT
BRANCH   8  11
HETATM   11  C   UNL     1       6.140  14.024  23.156  0.00  0.00     0.260 C 
HETATM   12  O   UNL     1       5.709  13.435  22.156  0.00  0.00    -0.267 OA
HETATM   13  N   UNL     1       5.310  14.361  24.255  0.00  0.00    -0.318 N 
HETATM   14  C   UNL     1       5.725  15.198  25.376  0.00  0.00     0.159 C 
BRANCH  13  15
HETATM   15  C   UNL     1       3.924  13.945  24.266  0.00  0.00     0.037 A 
HETATM   16  C   UNL     1       2.899  14.822  23.906  0.00  0.00     0.032 A 
HETATM   17  C   UNL     1       1.552  14.431  23.951  0.00  0.00     0.031 A 
HETATM   18  C   UNL     1       1.155  13.154  24.363  0.00  0.00     0.030 A 
HETATM   19  C   UNL     1       2.192  12.260  24.659  0.00  0.00     0.031 A 
HETATM   20  C   UNL     1       3.548  12.641  24.608  0.00  0.00     0.032 A 
BRANCH  18  21
HETATM   21  N   UNL     1      -0.172  12.819  24.524  0.00  0.00    -0.377 N 
HETATM   22  C   UNL     1      -1.143  12.763  23.420  0.00  0.00     0.149 C 
HETATM   23  C   UNL     1      -1.998  11.491  23.549  0.00  0.00     0.187 C 
HETATM   24  O   UNL     1      -2.637  11.407  24.835  0.00  0.00    -0.388 OA
HETATM   25  C   UNL     1      -1.648  11.400  25.878  0.00  0.00     0.187 C 
HETATM   26  C   UNL     1      -0.787  12.674  25.855  0.00  0.00     0.149 C 
ENDBRANCH  18  21
ENDBRANCH  13  15
ENDBRANCH   8  11
BRANCH   7  27
HETATM   27  O   UNL     1       7.585  15.954  21.328  0.00  0.00    -0.360 OA
HETATM   28  H   UNL     1       6.632  15.888  21.501  0.00  0.00     0.217 HD
ENDBRANCH   7  27
BRANCH   1  29
HETATM   29  C   UNL     1      10.896  11.531  25.229  0.00  0.00     0.224 C 
HETATM   30  F   UNL     1      12.089  11.358  25.874  0.00  0.00    -0.243 F 
BRANCH  29  31
HETATM   31  C   UNL     1      10.612  10.272  24.412  0.00  0.00     0.039 C 
HETATM   32  C   UNL     1       9.183   9.788  24.611  0.00  0.00     0.008 C 
ENDBRANCH  29  31
ENDBRANCH   1  29
TORSDOF 6
ENDMDL
MODEL 8
REMARK VINA RESULT:    -7.456      6.577      8.576
REMARK INTER + INTRA:         -10.833
REMARK INTER:                  -9.923
REMARK INTRA:                  -0.910
REMARK UNBOUND:                -0.979
REMARK  6 active torsions:
REMARK  status: ('A' for Active; 'I' for Inactive)
REMARK    1  A    between atoms: C_2  and  C_3 
REMARK    2  A    between atoms: C_3  and  C_5 
REMARK    3  A    between atoms: C_11  and  O_12 
REMARK    4  A    between atoms: C_13  and  C_14 
REMARK       I    between atoms: C_14  and  N_16 
REMARK    5  A    between atoms: N_16  and  C_18 
REMARK    6  A    between atoms: C_21  and  N_22 
ROOT
HETATM    1  C   UNL     1       5.422  14.373  23.442  0.00  0.00     0.101 A 
HETATM    2  N   UNL     1       6.442  15.239  23.577  0.00  0.00    -0.175 NA
HETATM    3  N   UNL     1       7.404  14.724  22.796  0.00  0.00    -0.277 N 
HETATM    4  H   UNL     1       8.299  15.203  22.770  0.00  0.00     0.189 HD
HETATM    5  C   UNL     1       7.055  13.570  22.153  0.00  0.00     0.065 A 
HETATM    6  C   UNL     1       7.783  12.706  21.335  0.00  0.00     0.069 A 
HETATM    7  C   UNL     1       7.136  11.547  20.869  0.00  0.00     0.083 A 
HETATM    8  C   UNL     1       5.782  11.297  21.127  0.00  0.00     0.066 A 
HETATM    9  C   UNL     1       5.089  12.202  21.976  0.00  0.00     0.035 A 
HETATM   10  C   UNL     1       5.735  13.336  22.517  0.00  0.00     0.022 A 
ENDROOT
BRANCH   8  11
HETATM   11  C   UNL     1       4.989  10.079  20.729  0.00  0.00     0.260 C 
HETATM   12  O   UNL     1       4.152  10.309  19.847  0.00  0.00    -0.267 OA
HETATM   13  N   UNL     1       5.187   8.783  21.269  0.00  0.00    -0.318 N 
HETATM   14  C   UNL     1       6.034   8.489  22.419  0.00  0.00     0.159 C 
BRANCH  13  15
HETATM   15  C   UNL     1       4.449   7.659  20.733  0.00  0.00     0.037 A 
HETATM   16  C   UNL     1       4.875   6.990  19.585  0.00  0.00     0.032 A 
HETATM   17  C   UNL     1       4.141   5.924  19.043  0.00  0.00     0.031 A 
HETATM   18  C   UNL     1       2.943   5.474  19.611  0.00  0.00     0.030 A 
HETATM   19  C   UNL     1       2.557   6.106  20.800  0.00  0.00     0.031 A 
HETATM   20  C   UNL     1       3.293   7.172  21.356  0.00  0.00     0.032 A 
BRANCH  18  21
HETATM   21  N   UNL     1       2.165   4.511  19.004  0.00  0.00    -0.377 N 
HETATM   22  C   UNL     1       0.743   4.296  19.309  0.00  0.00     0.149 C 
HETATM   23  C   UNL     1      -0.043   4.113  18.000  0.00  0.00     0.187 C 
HETATM   24  O   UNL     1       0.502   3.052  17.195  0.00  0.00    -0.388 OA
HETATM   25  C   UNL     1       1.873   3.336  16.868  0.00  0.00     0.187 C 
HETATM   26  C   UNL     1       2.742   3.474  18.130  0.00  0.00     0.149 C 
ENDBRANCH  18  21
ENDBRANCH  13  15
ENDBRANCH   8  11
BRANCH   7  27
HETATM   27  O   UNL     1       7.918  10.635  20.213  0.00  0.00    -0.360 OA
HETATM   28  H   UNL     1       8.054  10.921  19.295  0.00  0.00     0.217 HD
ENDBRANCH   7  27
BRANCH   1  29
HETATM   29  C   UNL     1       4.167  14.562  24.245  0.00  0.00     0.224 C 
HETATM   30  F   UNL     1       3.062  14.358  23.467  0.00  0.00    -0.243 F 
BRANCH  29  31
HETATM   31  C   UNL     1       4.067  15.959  24.854  0.00  0.00     0.039 C 
HETATM   32  C   UNL     1       3.384  15.928  26.214  0.00  0.00     0.008 C 
ENDBRANCH  29  31
ENDBRANCH   1  29
TORSDOF 6
ENDMDL
MODEL 9
REMARK VINA RESULT:    -7.324      2.597      3.470
REMARK INTER + INTRA:         -10.659
REMARK INTER:                  -9.679
REMARK INTRA:                  -0.979
REMARK UNBOUND:                -0.979
REMARK  6 active torsions:
REMARK  status: ('A' for Active; 'I' for Inactive)
REMARK    1  A    between atoms: C_2  and  C_3 
REMARK    2  A    between atoms: C_3  and  C_5 
REMARK    3  A    between atoms: C_11  and  O_12 
REMARK    4  A    between atoms: C_13  and  C_14 
REMARK       I    between atoms: C_14  and  N_16 
REMARK    5  A    between atoms: N_16  and  C_18 
REMARK    6  A    between atoms: C_21  and  N_22 
ROOT
HETATM    1  C   UNL     1      10.666  14.117  21.331  0.00  0.00     0.101 A 
HETATM    2  N   UNL     1      11.920  13.642  21.421  0.00  0.00    -0.175 NA
HETATM    3  N   UNL     1      11.762  12.422  21.957  0.00  0.00    -0.277 N 
HETATM    4  H   UNL     1      12.598  11.879  22.153  0.00  0.00     0.189 HD
HETATM    5  C   UNL     1      10.464  12.077  22.210  0.00  0.00     0.065 A 
HETATM    6  C   UNL     1       9.903  10.955  22.820  0.00  0.00     0.069 A 
HETATM    7  C   UNL     1       8.506  10.932  22.985  0.00  0.00     0.083 A 
HETATM    8  C   UNL     1       7.680  11.943  22.478  0.00  0.00     0.066 A 
HETATM    9  C   UNL     1       8.303  13.070  21.875  0.00  0.00     0.035 A 
HETATM   10  C   UNL     1       9.708  13.154  21.762  0.00  0.00     0.022 A 
ENDROOT
BRANCH   8  11
HETATM   11  C   UNL     1       6.186  12.059  22.628  0.00  0.00     0.260 C 
HETATM   12  O   UNL     1       5.564  11.695  21.622  0.00  0.00    -0.267 OA
HETATM   13  N   UNL     1       5.531  12.504  23.805  0.00  0.00    -0.318 N 
HETATM   14  C   UNL     1       6.209  13.099  24.951  0.00  0.00     0.159 C 
BRANCH  13  15
HETATM   15  C   UNL     1       4.086  12.468  23.883  0.00  0.00     0.037 A 
HETATM   16  C   UNL     1       3.305  13.510  23.382  0.00  0.00     0.032 A 
HETATM   17  C   UNL     1       1.906  13.493  23.490  0.00  0.00     0.031 A 
HETATM   18  C   UNL     1       1.214  12.445  24.107  0.00  0.00     0.030 A 
HETATM   19  C   UNL     1       2.000  11.373  24.550  0.00  0.00     0.031 A 
HETATM   20  C   UNL     1       3.405  11.377  24.437  0.00  0.00     0.032 A 
BRANCH  18  21
HETATM   21  N   UNL     1      -0.148  12.495  24.321  0.00  0.00    -0.377 N 
HETATM   22  C   UNL     1      -1.141  12.612  23.243  0.00  0.00     0.149 C 
HETATM   23  C   UNL     1      -2.299  11.633  23.501  0.00  0.00     0.187 C 
HETATM   24  O   UNL     1      -2.885  11.830  24.800  0.00  0.00    -0.388 OA
HETATM   25  C   UNL     1      -1.893  11.643  25.823  0.00  0.00     0.187 C 
HETATM   26  C   UNL     1      -0.724  12.631  25.670  0.00  0.00     0.149 C 
ENDBRANCH  18  21
ENDBRANCH  13  15
ENDBRANCH   8  11
BRANCH   7  27
HETATM   27  O   UNL     1       7.999   9.905  23.736  0.00  0.00    -0.360 OA
HETATM   28  H   UNL     1       7.631   9.223  23.151  0.00  0.00     0.217 HD
ENDBRANCH   7  27
BRANCH   1  29
HETATM   29  C   UNL     1      10.428  15.519  20.848  0.00  0.00     0.224 C 
HETATM   30  F   UNL     1      11.573  16.049  20.324  0.00  0.00    -0.243 F 
BRANCH  29  31
HETATM   31  C   UNL     1       9.942  16.446  21.961  0.00  0.00     0.039 C 
HETATM   32  C   UNL     1      10.855  16.386  23.177  0.00  0.00     0.008 C 
ENDBRANCH  29  31
ENDBRANCH   1  29
TORSDOF 6
ENDMDL
