MODEL 1
REMARK VINA RESULT:    -9.710      0.000      0.000
REMARK INTER + INTRA:         -12.559
REMARK INTER:                 -11.506
REMARK INTRA:                  -1.052
REMARK UNBOUND:                -0.579
REMARK  5 active torsions:
REMARK  status: ('A' for Active; 'I' for Inactive)
REMARK    1  A    between atoms: C_5  and  C_6 
REMARK    2  A    between atoms: C_6  and  O_7 
REMARK    3  A    between atoms: C_8  and  C_9 
REMARK    4  A    between atoms: C_16  and  N_17 
REMARK    5  A    between atoms: C_19  and  C_20 
REMARK       I    between atoms: C_20  and  N_22 
ROOT
HETATM    1  C   UNL     1       6.300  15.100  23.255  0.00  0.00    -0.024 A 
HETATM    2  C   UNL     1       5.701  14.029  22.554  0.00  0.00     0.028 A 
HETATM    3  C   UNL     1       5.417  15.877  24.013  0.00  0.00     0.014 A 
HETATM    4  C   UNL     1       4.032  15.681  23.972  0.00  0.00     0.033 A 
HETATM    5  C   UNL     1       3.459  14.641  23.268  0.00  0.00     0.073 A 
HETATM    6  C   UNL     1       4.298  13.750  22.606  0.00  0.00     0.028 A 
HETATM    7  N   UNL     1       2.127  14.546  23.276  0.00  0.00    -0.218 NA
HETATM    8  C   UNL     1       1.576  13.514  22.649  0.00  0.00     0.200 A 
HETATM    9  N   UNL     1       2.257  12.528  22.092  0.00  0.00    -0.212 NA
HETATM   10  C   UNL     1       3.607  12.665  22.051  0.00  0.00     0.140 A 
ENDROOT
BRANCH  10  11
HETATM   11  C   UNL     1       4.324  11.514  21.375  0.00  0.00     0.273 C 
HETATM   12  O   UNL     1       4.504  11.534  20.154  0.00  0.00    -0.266 OA
HETATM   13  N   UNL     1       4.767  10.466  22.171  0.00  0.00    -0.342 N 
HETATM   14  C   UNL     1       5.547   9.335  21.665  0.00  0.00     0.139 C 
HETATM   15  C   UNL     1       4.476  10.311  23.584  0.00  0.00     0.161 C 
HETATM   16  C   UNL     1       5.107   8.160  22.542  0.00  0.00     0.056 C 
HETATM   17  C   UNL     1       4.675   8.856  23.813  0.00  0.00    -0.056 C 
HETATM   18  C   UNL     1       6.071   7.042  22.845  0.00  0.00    -0.020 C 
HETATM   19  C   UNL     1       4.601   8.225  24.995  0.00  0.00    -0.018 C 
HETATM   20  C   UNL     1       5.040   6.794  25.124  0.00  0.00     0.054 C 
HETATM   21  C   UNL     1       6.003   6.393  24.025  0.00  0.00    -0.026 C 
ENDBRANCH  10  11
BRANCH   8  22
HETATM   22  N   UNL     1       0.202  13.469  22.572  0.00  0.00    -0.271 NA
HETATM   23  H   UNL     1      -0.205  14.236  23.087  0.00  0.00     0.127 HD
HETATM   24  H   UNL     1      -0.139  12.539  22.769  0.00  0.00     0.127 HD
ENDBRANCH   8  22
BRANCH   1  25
HETATM   25  C   UNL     1       7.779  15.344  23.215  0.00  0.00    -0.018 A 
HETATM   26  C   UNL     1       8.327  15.996  22.081  0.00  0.00     0.013 A 
HETATM   27  C   UNL     1       9.691  16.273  21.946  0.00  0.00     0.001 A 
HETATM   28  C   UNL     1      10.576  15.870  22.930  0.00  0.00     0.001 A 
HETATM   29  C   UNL     1      10.088  15.221  24.055  0.00  0.00     0.010 A 
HETATM   30  C   UNL     1       8.703  14.981  24.235  0.00  0.00    -0.024 A 
BRANCH  30  31
HETATM   31  C   UNL     1       8.339  14.328  25.550  0.00  0.00     0.203 C 
BRANCH  31  32
HETATM   32  O   UNL     1       8.246  15.292  26.594  0.00  0.00    -0.396 OA
HETATM   33  H   UNL     1       7.965  14.830  27.403  0.00  0.00     0.209 HD
ENDBRANCH  31  32
ENDBRANCH  30  31
ENDBRANCH   1  25
TORSDOF 5
ENDMDL
MODEL 2
REMARK VINA RESULT:    -9.079      2.227      3.370
REMARK INTER + INTRA:         -11.781
REMARK INTER:                 -11.309
REMARK INTRA:                  -0.472
REMARK UNBOUND:                -0.579
REMARK  5 active torsions:
REMARK  status: ('A' for Active; 'I' for Inactive)
REMARK    1  A    between atoms: C_5  and  C_6 
REMARK    2  A    between atoms: C_6  and  O_7 
REMARK    3  A    between atoms: C_8  and  C_9 
REMARK    4  A    between atoms: C_16  and  N_17 
REMARK    5  A    between atoms: C_19  and  C_20 
REMARK       I    between atoms: C_20  and  N_22 
ROOT
HETATM    1  C   UNL     1       6.885  15.080  23.058  0.00  0.00    -0.024 A 
HETATM    2  C   UNL     1       6.394  13.849  22.566  0.00  0.00     0.028 A 
HETATM    3  C   UNL     1       5.911  15.940  23.575  0.00  0.00     0.014 A 
HETATM    4  C   UNL     1       4.543  15.652  23.489  0.00  0.00     0.033 A 
HETATM    5  C   UNL     1       4.077  14.453  22.990  0.00  0.00     0.073 A 
HETATM    6  C   UNL     1       5.007  13.498  22.588  0.00  0.00     0.028 A 
HETATM    7  N   UNL     1       2.755  14.276  22.934  0.00  0.00    -0.218 NA
HETATM    8  C   UNL     1       2.304  13.103  22.508  0.00  0.00     0.200 A 
HETATM    9  N   UNL     1       3.072  12.068  22.219  0.00  0.00    -0.212 NA
HETATM   10  C   UNL     1       4.414  12.279  22.235  0.00  0.00     0.140 A 
ENDROOT
BRANCH  10  11
HETATM   11  C   UNL     1       5.235  11.060  21.867  0.00  0.00     0.273 C 
HETATM   12  O   UNL     1       6.077  10.625  22.658  0.00  0.00    -0.266 OA
HETATM   13  N   UNL     1       4.998  10.463  20.636  0.00  0.00    -0.342 N 
HETATM   14  C   UNL     1       5.655   9.233  20.190  0.00  0.00     0.139 C 
HETATM   15  C   UNL     1       4.124  10.993  19.607  0.00  0.00     0.161 C 
HETATM   16  C   UNL     1       5.774   9.406  18.673  0.00  0.00     0.056 C 
HETATM   17  C   UNL     1       4.624  10.339  18.369  0.00  0.00    -0.056 C 
HETATM   18  C   UNL     1       5.738   8.200  17.771  0.00  0.00    -0.020 C 
HETATM   19  C   UNL     1       4.084  10.449  17.145  0.00  0.00    -0.018 C 
HETATM   20  C   UNL     1       4.552   9.563  16.024  0.00  0.00     0.054 C 
HETATM   21  C   UNL     1       5.208   8.296  16.535  0.00  0.00    -0.026 C 
ENDBRANCH  10  11
BRANCH   8  22
HETATM   22  N   UNL     1       0.944  12.955  22.356  0.00  0.00    -0.271 NA
HETATM   23  H   UNL     1       0.451  13.671  22.870  0.00  0.00     0.127 HD
HETATM   24  H   UNL     1       0.666  11.995  22.507  0.00  0.00     0.127 HD
ENDBRANCH   8  22
BRANCH   1  25
HETATM   25  C   UNL     1       8.349  15.405  23.061  0.00  0.00    -0.018 A 
HETATM   26  C   UNL     1       8.915  15.985  21.898  0.00  0.00     0.013 A 
HETATM   27  C   UNL     1      10.268  16.327  21.798  0.00  0.00     0.001 A 
HETATM   28  C   UNL     1      11.124  16.063  22.851  0.00  0.00     0.001 A 
HETATM   29  C   UNL     1      10.618  15.488  24.008  0.00  0.00     0.010 A 
HETATM   30  C   UNL     1       9.241  15.185  24.148  0.00  0.00    -0.024 A 
BRANCH  30  31
HETATM   31  C   UNL     1       8.849  14.630  25.499  0.00  0.00     0.203 C 
BRANCH  31  32
HETATM   32  O   UNL     1       9.728  13.584  25.900  0.00  0.00    -0.396 OA
HETATM   33  H   UNL     1       9.508  13.343  26.817  0.00  0.00     0.209 HD
ENDBRANCH  31  32
ENDBRANCH  30  31
ENDBRANCH   1  25
TORSDOF 5
ENDMDL
MODEL 3
REMARK VINA RESULT:    -9.057      1.705      2.691
REMARK INTER + INTRA:         -11.754
REMARK INTER:                 -10.616
REMARK INTRA:                  -1.137
REMARK UNBOUND:                -0.579
REMARK  5 active torsions:
REMARK  status: ('A' for Active; 'I' for Inactive)
REMARK    1  A    between atoms: C_5  and  C_6 
REMARK    2  A    between atoms: C_6  and  O_7 
REMARK    3  A    between atoms: C_8  and  C_9 
REMARK    4  A    between atoms: C_16  and  N_17 
REMARK    5  A    between atoms: C_19  and  C_20 
REMARK       I    between atoms: C_20  and  N_22 
ROOT
HETATM    1  C   UNL     1       6.495  15.138  23.559  0.00  0.00    -0.024 A 
HETATM    2  C   UNL     1       5.795  13.912  23.480  0.00  0.00     0.028 A 
HETATM    3  C   UNL     1       5.710  16.246  23.891  0.00  0.00     0.014 A 
HETATM    4  C   UNL     1       4.317  16.163  24.005  0.00  0.00     0.033 A 
HETATM    5  C   UNL     1       3.645  14.961  23.907  0.00  0.00     0.073 A 
HETATM    6  C   UNL     1       4.389  13.801  23.716  0.00  0.00     0.028 A 
HETATM    7  N   UNL     1       2.314  14.985  24.014  0.00  0.00    -0.218 NA
HETATM    8  C   UNL     1       1.669  13.826  23.978  0.00  0.00     0.200 A 
HETATM    9  N   UNL     1       2.258  12.644  23.931  0.00  0.00    -0.212 NA
HETATM   10  C   UNL     1       3.607  12.640  23.774  0.00  0.00     0.140 A 
ENDROOT
BRANCH  10  11
HETATM   11  C   UNL     1       4.215  11.255  23.701  0.00  0.00     0.273 C 
HETATM   12  O   UNL     1       4.534  10.667  24.738  0.00  0.00    -0.266 OA
HETATM   13  N   UNL     1       4.386  10.685  22.445  0.00  0.00    -0.342 N 
HETATM   14  C   UNL     1       4.879   9.323  22.232  0.00  0.00     0.139 C 
HETATM   15  C   UNL     1       4.159  11.364  21.184  0.00  0.00     0.161 C 
HETATM   16  C   UNL     1       5.652   9.413  20.913  0.00  0.00     0.056 C 
HETATM   17  C   UNL     1       4.970  10.571  20.223  0.00  0.00    -0.056 C 
HETATM   18  C   UNL     1       5.729   8.215  20.001  0.00  0.00    -0.020 C 
HETATM   19  C   UNL     1       5.027  10.758  18.895  0.00  0.00    -0.018 C 
HETATM   20  C   UNL     1       5.709   9.752  18.012  0.00  0.00     0.054 C 
HETATM   21  C   UNL     1       5.796   8.387  18.665  0.00  0.00    -0.026 C 
ENDBRANCH  10  11
BRANCH   8  22
HETATM   22  N   UNL     1       0.293  13.856  23.988  0.00  0.00    -0.271 NA
HETATM   23  H   UNL     1      -0.040  14.809  23.944  0.00  0.00     0.127 HD
HETATM   24  H   UNL     1      -0.076  13.266  24.720  0.00  0.00     0.127 HD
ENDBRANCH   8  22
BRANCH   1  25
HETATM   25  C   UNL     1       7.978  15.219  23.348  0.00  0.00    -0.018 A 
HETATM   26  C   UNL     1       8.459  15.771  22.133  0.00  0.00     0.013 A 
HETATM   27  C   UNL     1       9.821  15.893  21.838  0.00  0.00     0.001 A 
HETATM   28  C   UNL     1      10.764  15.428  22.735  0.00  0.00     0.001 A 
HETATM   29  C   UNL     1      10.342  14.872  23.935  0.00  0.00     0.010 A 
HETATM   30  C   UNL     1       8.969  14.790  24.275  0.00  0.00    -0.024 A 
BRANCH  30  31
HETATM   31  C   UNL     1       8.690  14.223  25.650  0.00  0.00     0.203 C 
BRANCH  31  32
HETATM   32  O   UNL     1       8.606  15.257  26.625  0.00  0.00    -0.396 OA
HETATM   33  H   UNL     1       9.022  14.932  27.442  0.00  0.00     0.209 HD
ENDBRANCH  31  32
ENDBRANCH  30  31
ENDBRANCH   1  25
TORSDOF 5
ENDMDL
MODEL 4
REMARK VINA RESULT:    -8.910      1.274      1.782
REMARK INTER + INTRA:         -11.572
REMARK INTER:                 -10.597
REMARK INTRA:                  -0.975
REMARK UNBOUND:                -0.579
REMARK  5 active torsions:
REMARK  status: ('A' for Active; 'I' for Inactive)
REMARK    1  A    between atoms: C_5  and  C_6 
REMARK    2  A    between atoms: C_6  and  O_7 
REMARK    3  A    between atoms: C_8  and  C_9 
REMARK    4  A    between atoms: C_16  and  N_17 
REMARK    5  A    between atoms: C_19  and  C_20 
REMARK       I    between atoms: C_20  and  N_22 
ROOT
HETATM    1  C   UNL     1       6.693  14.947  23.675  0.00  0.00    -0.024 A 
HETATM    2  C   UNL     1       6.229  13.897  22.849  0.00  0.00     0.028 A 
HETATM    3  C   UNL     1       5.690  15.727  24.258  0.00  0.00     0.014 A 
HETATM    4  C   UNL     1       4.337  15.558  23.940  0.00  0.00     0.033 A 
HETATM    5  C   UNL     1       3.900  14.539  23.117  0.00  0.00     0.073 A 
HETATM    6  C   UNL     1       4.840  13.644  22.618  0.00  0.00     0.028 A 
HETATM    7  N   UNL     1       2.592  14.468  22.860  0.00  0.00    -0.218 NA
HETATM    8  C   UNL     1       2.160  13.457  22.116  0.00  0.00     0.200 A 
HETATM    9  N   UNL     1       2.923  12.468  21.686  0.00  0.00    -0.212 NA
HETATM   10  C   UNL     1       4.257  12.580  21.915  0.00  0.00     0.140 A 
ENDROOT
BRANCH  10  11
HETATM   11  C   UNL     1       5.076  11.428  21.373  0.00  0.00     0.273 C 
HETATM   12  O   UNL     1       5.470  11.450  20.203  0.00  0.00    -0.266 OA
HETATM   13  N   UNL     1       5.366  10.374  22.230  0.00  0.00    -0.342 N 
HETATM   14  C   UNL     1       6.217   9.241  21.866  0.00  0.00     0.139 C 
HETATM   15  C   UNL     1       4.829  10.218  23.569  0.00  0.00     0.161 C 
HETATM   16  C   UNL     1       5.623   8.066  22.647  0.00  0.00     0.056 C 
HETATM   17  C   UNL     1       4.977   8.760  23.824  0.00  0.00    -0.056 C 
HETATM   18  C   UNL     1       6.513   6.942  23.112  0.00  0.00    -0.020 C 
HETATM   19  C   UNL     1       4.691   8.127  24.972  0.00  0.00    -0.018 C 
HETATM   20  C   UNL     1       5.093   6.693  25.171  0.00  0.00     0.054 C 
HETATM   21  C   UNL     1       6.234   6.289  24.258  0.00  0.00    -0.026 C 
ENDBRANCH  10  11
BRANCH   8  22
HETATM   22  N   UNL     1       0.829  13.439  21.768  0.00  0.00    -0.271 NA
HETATM   23  H   UNL     1       0.708  13.752  20.816  0.00  0.00     0.127 HD
HETATM   24  H   UNL     1       0.263  13.878  22.481  0.00  0.00     0.127 HD
ENDBRANCH   8  22
BRANCH   1  25
HETATM   25  C   UNL     1       8.155  15.164  23.933  0.00  0.00    -0.018 A 
HETATM   26  C   UNL     1       8.640  14.996  25.255  0.00  0.00     0.013 A 
HETATM   27  C   UNL     1       9.983  15.173  25.603  0.00  0.00     0.001 A 
HETATM   28  C   UNL     1      10.897  15.566  24.642  0.00  0.00     0.001 A 
HETATM   29  C   UNL     1      10.468  15.751  23.335  0.00  0.00     0.010 A 
HETATM   30  C   UNL     1       9.122  15.524  22.953  0.00  0.00    -0.024 A 
BRANCH  30  31
HETATM   31  C   UNL     1       8.843  15.702  21.477  0.00  0.00     0.203 C 
BRANCH  31  32
HETATM   32  O   UNL     1       9.235  14.551  20.737  0.00  0.00    -0.396 OA
HETATM   33  H   UNL     1       8.661  13.812  21.007  0.00  0.00     0.209 HD
ENDBRANCH  31  32
ENDBRANCH  30  31
ENDBRANCH   1  25
TORSDOF 5
ENDMDL
MODEL 5
REMARK VINA RESULT:    -8.792      3.319      6.038
REMARK INTER + INTRA:         -11.426
REMARK INTER:                 -10.688
REMARK INTRA:                  -0.738
REMARK UNBOUND:                -0.579
REMARK  5 active torsions:
REMARK  status: ('A' for Active; 'I' for Inactive)
REMARK    1  A    between atoms: C_5  and  C_6 
REMARK    2  A    between atoms: C_6  and  O_7 
REMARK    3  A    between atoms: C_8  and  C_9 
REMARK    4  A    between atoms: C_16  and  N_17 
REMARK    5  A    between atoms: C_19  and  C_20 
REMARK       I    between atoms: C_20  and  N_22 
ROOT
HETATM    1  C   UNL     1       5.967  14.209  22.966  0.00  0.00    -0.024 A 
HETATM    2  C   UNL     1       6.570  12.951  22.737  0.00  0.00     0.028 A 
HETATM    3  C   UNL     1       6.751  15.313  22.617  0.00  0.00     0.014 A 
HETATM    4  C   UNL     1       8.080  15.178  22.197  0.00  0.00     0.033 A 
HETATM    5  C   UNL     1       8.662  13.943  21.995  0.00  0.00     0.073 A 
HETATM    6  C   UNL     1       7.885  12.805  22.192  0.00  0.00     0.028 A 
HETATM    7  N   UNL     1       9.940  13.915  21.608  0.00  0.00    -0.218 NA
HETATM    8  C   UNL     1      10.486  12.732  21.357  0.00  0.00     0.200 A 
HETATM    9  N   UNL     1       9.828  11.586  21.379  0.00  0.00    -0.212 NA
HETATM   10  C   UNL     1       8.544  11.626  21.820  0.00  0.00     0.140 A 
ENDROOT
BRANCH  10  11
HETATM   11  C   UNL     1       7.858  10.277  21.846  0.00  0.00     0.273 C 
HETATM   12  O   UNL     1       8.232   9.412  22.644  0.00  0.00    -0.266 OA
HETATM   13  N   UNL     1       6.809  10.063  20.961  0.00  0.00    -0.342 N 
HETATM   14  C   UNL     1       6.003   8.841  20.937  0.00  0.00     0.139 C 
HETATM   15  C   UNL     1       6.404  10.979  19.912  0.00  0.00     0.161 C 
HETATM   16  C   UNL     1       5.626   8.675  19.463  0.00  0.00     0.056 C 
HETATM   17  C   UNL     1       5.673  10.100  18.960  0.00  0.00    -0.056 C 
HETATM   18  C   UNL     1       4.323   8.018  19.086  0.00  0.00    -0.020 C 
HETATM   19  C   UNL     1       5.030  10.500  17.851  0.00  0.00    -0.018 C 
HETATM   20  C   UNL     1       4.146   9.546  17.099  0.00  0.00     0.054 C 
HETATM   21  C   UNL     1       3.671   8.401  17.970  0.00  0.00    -0.026 C 
ENDBRANCH  10  11
BRANCH   8  22
HETATM   22  N   UNL     1      11.828  12.695  21.055  0.00  0.00    -0.271 NA
HETATM   23  H   UNL     1      11.971  12.323  20.128  0.00  0.00     0.127 HD
HETATM   24  H   UNL     1      12.357  12.284  21.812  0.00  0.00     0.127 HD
ENDBRANCH   8  22
BRANCH   1  25
HETATM   25  C   UNL     1       4.570  14.333  23.500  0.00  0.00    -0.018 A 
HETATM   26  C   UNL     1       4.349  15.161  24.630  0.00  0.00     0.013 A 
HETATM   27  C   UNL     1       3.087  15.345  25.204  0.00  0.00     0.001 A 
HETATM   28  C   UNL     1       1.992  14.673  24.692  0.00  0.00     0.001 A 
HETATM   29  C   UNL     1       2.161  13.844  23.591  0.00  0.00     0.010 A 
HETATM   30  C   UNL     1       3.422  13.688  22.962  0.00  0.00    -0.024 A 
BRANCH  30  31
HETATM   31  C   UNL     1       3.411  12.805  21.734  0.00  0.00     0.203 C 
BRANCH  31  32
HETATM   32  O   UNL     1       3.496  11.429  22.088  0.00  0.00    -0.396 OA
HETATM   33  H   UNL     1       4.352  11.091  21.771  0.00  0.00     0.209 HD
ENDBRANCH  31  32
ENDBRANCH  30  31
ENDBRANCH   1  25
TORSDOF 5
ENDMDL
MODEL 6
REMARK VINA RESULT:    -8.468      3.219      5.454
REMARK INTER + INTRA:         -11.027
REMARK INTER:                 -10.274
REMARK INTRA:                  -0.752
REMARK UNBOUND:                -0.579
REMARK  5 active torsions:
REMARK  status: ('A' for Active; 'I' for Inactive)
REMARK    1  A    between atoms: C_5  and  C_6 
REMARK    2  A    between atoms: C_6  and  O_7 
REMARK    3  A    between atoms: C_8  and  C_9 
REMARK    4  A    between atoms: C_16  and  N_17 
REMARK    5  A    between atoms: C_19  and  C_20 
REMARK       I    between atoms: C_20  and  N_22 
ROOT
HETATM    1  C   UNL     1       4.689  13.666  22.568  0.00  0.00    -0.024 A 
HETATM    2  C   UNL     1       5.273  12.688  21.731  0.00  0.00     0.028 A 
HETATM    3  C   UNL     1       5.548  14.699  22.957  0.00  0.00     0.014 A 
HETATM    4  C   UNL     1       6.913  14.688  22.646  0.00  0.00     0.033 A 
HETATM    5  C   UNL     1       7.473  13.716  21.842  0.00  0.00     0.073 A 
HETATM    6  C   UNL     1       6.639  12.738  21.309  0.00  0.00     0.028 A 
HETATM    7  N   UNL     1       8.788  13.781  21.615  0.00  0.00    -0.218 NA
HETATM    8  C   UNL     1       9.320  12.882  20.796  0.00  0.00     0.200 A 
HETATM    9  N   UNL     1       8.626  11.981  20.124  0.00  0.00    -0.212 NA
HETATM   10  C   UNL     1       7.300  11.897  20.403  0.00  0.00     0.140 A 
ENDROOT
BRANCH  10  11
HETATM   11  C   UNL     1       6.570  10.827  19.618  0.00  0.00     0.273 C 
HETATM   12  O   UNL     1       6.223  11.047  18.454  0.00  0.00    -0.266 OA
HETATM   13  N   UNL     1       6.322   9.614  20.246  0.00  0.00    -0.342 N 
HETATM   14  C   UNL     1       5.706   8.465  19.580  0.00  0.00     0.139 C 
HETATM   15  C   UNL     1       6.581   9.332  21.646  0.00  0.00     0.161 C 
HETATM   16  C   UNL     1       4.915   7.773  20.694  0.00  0.00     0.056 C 
HETATM   17  C   UNL     1       5.682   8.182  21.931  0.00  0.00    -0.056 C 
HETATM   18  C   UNL     1       4.713   6.280  20.659  0.00  0.00    -0.020 C 
HETATM   19  C   UNL     1       5.613   7.501  23.085  0.00  0.00    -0.018 C 
HETATM   20  C   UNL     1       4.825   6.225  23.170  0.00  0.00     0.054 C 
HETATM   21  C   UNL     1       4.633   5.582  21.811  0.00  0.00    -0.026 C 
ENDBRANCH  10  11
BRANCH   8  22
HETATM   22  N   UNL     1      10.687  12.887  20.639  0.00  0.00    -0.271 NA
HETATM   23  H   UNL     1      11.145  12.740  21.527  0.00  0.00     0.127 HD
HETATM   24  H   UNL     1      10.984  13.678  20.085  0.00  0.00     0.127 HD
ENDBRANCH   8  22
BRANCH   1  25
HETATM   25  C   UNL     1       3.243  13.612  22.961  0.00  0.00    -0.018 A 
HETATM   26  C   UNL     1       2.503  14.821  22.984  0.00  0.00     0.013 A 
HETATM   27  C   UNL     1       1.149  14.879  23.334  0.00  0.00     0.001 A 
HETATM   28  C   UNL     1       0.486  13.727  23.716  0.00  0.00     0.001 A 
HETATM   29  C   UNL     1       1.171  12.520  23.716  0.00  0.00     0.010 A 
HETATM   30  C   UNL     1       2.527  12.433  23.312  0.00  0.00    -0.024 A 
BRANCH  30  31
HETATM   31  C   UNL     1       3.096  11.032  23.304  0.00  0.00     0.203 C 
BRANCH  31  32
HETATM   32  O   UNL     1       2.266  10.135  24.034  0.00  0.00    -0.396 OA
HETATM   33  H   UNL     1       2.110  10.520  24.914  0.00  0.00     0.209 HD
ENDBRANCH  31  32
ENDBRANCH  30  31
ENDBRANCH   1  25
TORSDOF 5
ENDMDL
MODEL 7
REMARK VINA RESULT:    -8.276      3.321      6.950
REMARK INTER + INTRA:         -10.790
REMARK INTER:                  -9.971
REMARK INTRA:                  -0.819
REMARK UNBOUND:                -0.579
REMARK  5 active torsions:
REMARK  status: ('A' for Active; 'I' for Inactive)
REMARK    1  A    between atoms: C_5  and  C_6 
REMARK    2  A    between atoms: C_6  and  O_7 
REMARK    3  A    between atoms: C_8  and  C_9 
REMARK    4  A    between atoms: C_16  and  N_17 
REMARK    5  A    between atoms: C_19  and  C_20 
REMARK       I    between atoms: C_20  and  N_22 
ROOT
HETATM    1  C   UNL     1       8.894  10.788  22.920  0.00  0.00    -0.024 A 
HETATM    2  C   UNL     1       8.290  12.008  23.304  0.00  0.00     0.028 A 
HETATM    3  C   UNL     1      10.062  10.919  22.163  0.00  0.00     0.014 A 
HETATM    4  C   UNL     1      10.519  12.163  21.712  0.00  0.00     0.033 A 
HETATM    5  C   UNL     1       9.909  13.345  22.079  0.00  0.00     0.073 A 
HETATM    6  C   UNL     1       8.823  13.287  22.947  0.00  0.00     0.028 A 
HETATM    7  N   UNL     1      10.409  14.481  21.585  0.00  0.00    -0.218 NA
HETATM    8  C   UNL     1       9.861  15.623  21.981  0.00  0.00     0.200 A 
HETATM    9  N   UNL     1       8.913  15.719  22.897  0.00  0.00    -0.212 NA
HETATM   10  C   UNL     1       8.384  14.554  23.353  0.00  0.00     0.140 A 
ENDROOT
BRANCH  10  11
HETATM   11  C   UNL     1       7.284  14.736  24.378  0.00  0.00     0.273 C 
HETATM   12  O   UNL     1       7.572  15.026  25.543  0.00  0.00    -0.266 OA
HETATM   13  N   UNL     1       5.970  14.575  23.959  0.00  0.00    -0.342 N 
HETATM   14  C   UNL     1       4.809  14.805  24.820  0.00  0.00     0.139 C 
HETATM   15  C   UNL     1       5.565  14.108  22.646  0.00  0.00     0.161 C 
HETATM   16  C   UNL     1       3.771  13.797  24.319  0.00  0.00     0.056 C 
HETATM   17  C   UNL     1       4.186  13.603  22.878  0.00  0.00    -0.056 C 
HETATM   18  C   UNL     1       2.302  14.116  24.415  0.00  0.00    -0.020 C 
HETATM   19  C   UNL     1       3.348  13.135  21.940  0.00  0.00    -0.018 C 
HETATM   20  C   UNL     1       1.908  12.864  22.271  0.00  0.00     0.054 C 
HETATM   21  C   UNL     1       1.446  13.645  23.485  0.00  0.00    -0.026 C 
ENDBRANCH  10  11
BRANCH   8  22
HETATM   22  N   UNL     1      10.310  16.786  21.398  0.00  0.00    -0.271 NA
HETATM   23  H   UNL     1      10.193  16.746  20.396  0.00  0.00     0.127 HD
HETATM   24  H   UNL     1      11.220  17.041  21.754  0.00  0.00     0.127 HD
ENDBRANCH   8  22
BRANCH   1  25
HETATM   25  C   UNL     1       8.336   9.461  23.344  0.00  0.00    -0.018 A 
HETATM   26  C   UNL     1       9.242   8.420  23.670  0.00  0.00     0.013 A 
HETATM   27  C   UNL     1       8.827   7.148  24.077  0.00  0.00     0.001 A 
HETATM   28  C   UNL     1       7.478   6.850  24.136  0.00  0.00     0.001 A 
HETATM   29  C   UNL     1       6.552   7.835  23.818  0.00  0.00     0.010 A 
HETATM   30  C   UNL     1       6.954   9.145  23.457  0.00  0.00    -0.024 A 
BRANCH  30  31
HETATM   31  C   UNL     1       5.815  10.111  23.213  0.00  0.00     0.203 C 
BRANCH  31  32
HETATM   32  O   UNL     1       5.254  10.565  24.441  0.00  0.00    -0.396 OA
HETATM   33  H   UNL     1       4.288  10.466  24.383  0.00  0.00     0.209 HD
ENDBRANCH  31  32
ENDBRANCH  30  31
ENDBRANCH   1  25
TORSDOF 5
ENDMDL
MODEL 8
REMARK VINA RESULT:    -8.263      2.666      4.011
REMARK INTER + INTRA:         -10.774
REMARK INTER:                  -9.624
REMARK INTRA:                  -1.150
REMARK UNBOUND:                -0.579
REMARK  5 active torsions:
REMARK  status: ('A' for Active; 'I' for Inactive)
REMARK    1  A    between atoms: C_5  and  C_6 
REMARK    2  A    between atoms: C_6  and  O_7 
REMARK    3  A    between atoms: C_8  and  C_9 
REMARK    4  A    between atoms: C_16  and  N_17 
REMARK    5  A    between atoms: C_19  and  C_20 
REMARK       I    between atoms: C_20  and  N_22 
ROOT
HETATM    1  C   UNL     1       8.539  12.799  22.284  0.00  0.00    -0.024 A 
HETATM    2  C   UNL     1       7.213  12.310  22.261  0.00  0.00     0.028 A 
HETATM    3  C   UNL     1       9.183  12.816  21.043  0.00  0.00     0.014 A 
HETATM    4  C   UNL     1       8.600  12.268  19.894  0.00  0.00     0.033 A 
HETATM    5  C   UNL     1       7.309  11.778  19.891  0.00  0.00     0.073 A 
HETATM    6  C   UNL     1       6.568  11.862  21.065  0.00  0.00     0.028 A 
HETATM    7  N   UNL     1       6.845  11.260  18.751  0.00  0.00    -0.218 NA
HETATM    8  C   UNL     1       5.586  10.840  18.728  0.00  0.00     0.200 A 
HETATM    9  N   UNL     1       4.735  10.978  19.729  0.00  0.00    -0.212 NA
HETATM   10  C   UNL     1       5.235  11.462  20.895  0.00  0.00     0.140 A 
ENDROOT
BRANCH  10  11
HETATM   11  C   UNL     1       4.214  11.569  22.008  0.00  0.00     0.273 C 
HETATM   12  O   UNL     1       3.578  12.616  22.160  0.00  0.00    -0.266 OA
HETATM   13  N   UNL     1       4.021  10.461  22.824  0.00  0.00    -0.342 N 
HETATM   14  C   UNL     1       3.008  10.396  23.879  0.00  0.00     0.139 C 
HETATM   15  C   UNL     1       4.820   9.251  22.789  0.00  0.00     0.161 C 
HETATM   16  C   UNL     1       3.646   9.506  24.949  0.00  0.00     0.056 C 
HETATM   17  C   UNL     1       4.596   8.659  24.134  0.00  0.00    -0.056 C 
HETATM   18  C   UNL     1       2.778   8.643  25.828  0.00  0.00    -0.020 C 
HETATM   19  C   UNL     1       5.065   7.477  24.564  0.00  0.00    -0.018 C 
HETATM   20  C   UNL     1       4.584   6.894  25.863  0.00  0.00     0.054 C 
HETATM   21  C   UNL     1       3.239   7.457  26.276  0.00  0.00    -0.026 C 
ENDBRANCH  10  11
BRANCH   8  22
HETATM   22  N   UNL     1       5.138  10.217  17.586  0.00  0.00    -0.271 NA
HETATM   23  H   UNL     1       5.496   9.275  17.534  0.00  0.00     0.127 HD
HETATM   24  H   UNL     1       5.264  10.811  16.778  0.00  0.00     0.127 HD
ENDBRANCH   8  22
BRANCH   1  25
HETATM   25  C   UNL     1       9.177  13.302  23.545  0.00  0.00    -0.018 A 
HETATM   26  C   UNL     1       9.227  14.701  23.765  0.00  0.00     0.013 A 
HETATM   27  C   UNL     1       9.797  15.273  24.908  0.00  0.00     0.001 A 
HETATM   28  C   UNL     1      10.380  14.464  25.865  0.00  0.00     0.001 A 
HETATM   29  C   UNL     1      10.363  13.087  25.689  0.00  0.00     0.010 A 
HETATM   30  C   UNL     1       9.742  12.487  24.565  0.00  0.00    -0.024 A 
BRANCH  30  31
HETATM   31  C   UNL     1       9.753  10.974  24.569  0.00  0.00     0.203 C 
BRANCH  31  32
HETATM   32  O   UNL     1      11.001  10.468  24.107  0.00  0.00    -0.396 OA
HETATM   33  H   UNL     1      11.619  10.464  24.858  0.00  0.00     0.209 HD
ENDBRANCH  31  32
ENDBRANCH  30  31
ENDBRANCH   1  25
TORSDOF 5
ENDMDL
MODEL 9
REMARK VINA RESULT:    -8.212      3.287      5.959
REMARK INTER + INTRA:         -10.711
REMARK INTER:                 -10.133
REMARK INTRA:                  -0.579
REMARK UNBOUND:                -0.579
REMARK  5 active torsions:
REMARK  status: ('A' for Active; 'I' for Inactive)
REMARK    1  A    between atoms: C_5  and  C_6 
REMARK    2  A    between atoms: C_6  and  O_7 
REMARK    3  A    between atoms: C_8  and  C_9 
REMARK    4  A    between atoms: C_16  and  N_17 
REMARK    5  A    between atoms: C_19  and  C_20 
REMARK       I    between atoms: C_20  and  N_22 
ROOT
HETATM    1  C   UNL     1       4.850  13.809  22.858  0.00  0.00    -0.024 A 
HETATM    2  C   UNL     1       5.511  12.573  22.667  0.00  0.00     0.028 A 
HETATM    3  C   UNL     1       5.658  14.940  22.705  0.00  0.00     0.014 A 
HETATM    4  C   UNL     1       7.040  14.845  22.507  0.00  0.00     0.033 A 
HETATM    5  C   UNL     1       7.675  13.631  22.340  0.00  0.00     0.073 A 
HETATM    6  C   UNL     1       6.901  12.475  22.343  0.00  0.00     0.028 A 
HETATM    7  N   UNL     1       9.000  13.641  22.173  0.00  0.00    -0.218 NA
HETATM    8  C   UNL     1       9.606  12.481  21.955  0.00  0.00     0.200 A 
HETATM    9  N   UNL     1       8.979  11.327  21.805  0.00  0.00    -0.212 NA
HETATM   10  C   UNL     1       7.639  11.327  22.025  0.00  0.00     0.140 A 
ENDROOT
BRANCH  10  11
HETATM   11  C   UNL     1       6.988   9.969  21.864  0.00  0.00     0.273 C 
HETATM   12  O   UNL     1       7.270   9.055  22.644  0.00  0.00    -0.266 OA
HETATM   13  N   UNL     1       6.073   9.804  20.831  0.00  0.00    -0.342 N 
HETATM   14  C   UNL     1       5.307   8.576  20.614  0.00  0.00     0.139 C 
HETATM   15  C   UNL     1       5.792  10.787  19.802  0.00  0.00     0.161 C 
HETATM   16  C   UNL     1       5.137   8.511  19.093  0.00  0.00     0.056 C 
HETATM   17  C   UNL     1       5.218   9.969  18.701  0.00  0.00    -0.056 C 
HETATM   18  C   UNL     1       3.914   7.864  18.498  0.00  0.00    -0.020 C 
HETATM   19  C   UNL     1       4.722  10.438  17.545  0.00  0.00    -0.018 C 
HETATM   20  C   UNL     1       3.971   9.528  16.615  0.00  0.00     0.054 C 
HETATM   21  C   UNL     1       3.409   8.317  17.332  0.00  0.00    -0.026 C 
ENDBRANCH  10  11
BRANCH   8  22
HETATM   22  N   UNL     1      10.980  12.479  21.881  0.00  0.00    -0.271 NA
HETATM   23  H   UNL     1      11.372  11.906  22.614  0.00  0.00     0.127 HD
HETATM   24  H   UNL     1      11.338  13.418  21.778  0.00  0.00     0.127 HD
ENDBRANCH   8  22
BRANCH   1  25
HETATM   25  C   UNL     1       3.382  13.884  23.156  0.00  0.00    -0.018 A 
HETATM   26  C   UNL     1       2.473  13.335  22.216  0.00  0.00     0.013 A 
HETATM   27  C   UNL     1       1.086  13.352  22.399  0.00  0.00     0.001 A 
HETATM   28  C   UNL     1       0.546  13.959  23.518  0.00  0.00     0.001 A 
HETATM   29  C   UNL     1       1.396  14.518  24.462  0.00  0.00     0.010 A 
HETATM   30  C   UNL     1       2.805  14.462  24.321  0.00  0.00    -0.024 A 
BRANCH  30  31
HETATM   31  C   UNL     1       3.580  15.055  25.476  0.00  0.00     0.203 C 
BRANCH  31  32
HETATM   32  O   UNL     1       3.929  16.412  25.219  0.00  0.00    -0.396 OA
HETATM   33  H   UNL     1       4.855  16.431  24.919  0.00  0.00     0.209 HD
ENDBRANCH  31  32
ENDBRANCH  30  31
ENDBRANCH   1  25
TORSDOF 5
ENDMDL
