MODEL 1
REMARK VINA RESULT:    -6.357      0.000      0.000
REMARK INTER + INTRA:          -9.478
REMARK INTER:                  -8.437
REMARK INTRA:                  -1.041
REMARK UNBOUND:                -1.263
REMARK  5 active torsions:
REMARK  status: ('A' for Active; 'I' for Inactive)
REMARK    1  A    between atoms: N8_1  and  C24_2 
REMARK    2  A    between atoms: N8_1  and  C7_8 
REMARK    3  A    between atoms: C2_13  and  N1_14 
REMARK    4  A    between atoms: N1_14  and  C17_15 
REMARK    5  A    between atoms: C14_16  and  C13_19 
ROOT
ATOM      1  C17 FTA A   1      -0.582  13.429  13.544  1.00  0.00     0.142 C 
ATOM      2  C14 FTA A   1      -1.839  13.801  13.232  1.00  0.00     0.158 C 
ATOM      3  C18 FTA A   1      -2.110  15.150  12.785  1.00  0.00     0.069 C 
ATOM      4  N21 FTA A   1      -2.188  16.283  12.494  1.00  0.00    -0.197 NA
ENDROOT
BRANCH   2   5
ATOM      5  C13 FTA A   1      -2.937  12.812  13.336  1.00  0.00     0.197 A 
ATOM      6  N15 FTA A   1      -3.317  12.123  14.486  1.00  0.00    -0.093 NA
ATOM      7  N19 FTA A   1      -4.352  11.266  14.136  1.00  0.00    -0.231 N 
ATOM      8  N20 FTA A   1      -4.624  11.408  12.784  1.00  0.00    -0.017 NA
ATOM      9  H15 FTA A   1      -4.841  10.626  14.779  1.00  0.00     0.200 HD
ATOM     10  N16 FTA A   1      -3.755  12.375  12.288  1.00  0.00    -0.090 NA
ENDBRANCH   2   5
BRANCH   1  11
ATOM     11  N1  FTA A   1      -0.348  12.863  14.744  1.00  0.00    -0.389 N 
ATOM     12  H11 FTA A   1      -0.433  11.838  14.811  1.00  0.00     0.159 HD
BRANCH  11  13
ATOM     13  C2  FTA A   1       0.007  13.571  15.924  1.00  0.00     0.028 A 
ATOM     14  C4  FTA A   1       0.661  14.799  15.883  1.00  0.00     0.031 A 
ATOM     15  C6  FTA A   1       1.186  15.331  17.069  1.00  0.00     0.031 A 
ATOM     16  C7  FTA A   1       1.075  14.668  18.289  1.00  0.00     0.032 A 
ATOM     17  C5  FTA A   1       0.400  13.461  18.318  1.00  0.00     0.031 A 
ATOM     18  C3  FTA A   1      -0.115  12.911  17.150  1.00  0.00     0.031 A 
BRANCH  16  19
ATOM     19  N8  FTA A   1       1.773  15.079  19.454  1.00  0.00    -0.356 N 
ATOM     20  H1  FTA A   1       1.284  14.983  20.355  1.00  0.00     0.166 HD
BRANCH  19  21
ATOM     21  C24 FTA A   1       3.096  15.614  19.479  1.00  0.00     0.032 A 
ATOM     22  C26 FTA A   1       4.197  14.808  19.649  1.00  0.00     0.029 A 
ATOM     23  C28 FTA A   1       5.430  15.402  19.837  1.00  0.00     0.002 A 
ATOM     24  C30 FTA A   1       5.602  16.775  19.830  1.00  0.00     0.000 A 
ATOM     25  C29 FTA A   1       4.520  17.589  19.623  1.00  0.00     0.002 A 
ATOM     26  C27 FTA A   1       3.269  16.990  19.436  1.00  0.00     0.029 A 
ENDBRANCH  19  21
ENDBRANCH  16  19
ENDBRANCH  11  13
ENDBRANCH   1  11
TORSDOF 5
ENDMDL
MODEL 2
REMARK VINA RESULT:    -6.122      1.326      2.815
REMARK INTER + INTRA:          -9.175
REMARK INTER:                  -8.058
REMARK INTRA:                  -1.117
REMARK UNBOUND:                -1.263
REMARK  5 active torsions:
REMARK  status: ('A' for Active; 'I' for Inactive)
REMARK    1  A    between atoms: N8_1  and  C24_2 
REMARK    2  A    between atoms: N8_1  and  C7_8 
REMARK    3  A    between atoms: C2_13  and  N1_14 
REMARK    4  A    between atoms: N1_14  and  C17_15 
REMARK    5  A    between atoms: C14_16  and  C13_19 
ROOT
ATOM      1  C17 FTA A   1      -1.920  12.482  15.043  1.00  0.00     0.142 C 
ATOM      2  C14 FTA A   1      -2.863  13.142  14.342  1.00  0.00     0.158 C 
ATOM      3  C18 FTA A   1      -3.725  12.424  13.428  1.00  0.00     0.069 C 
ATOM      4  N21 FTA A   1      -4.308  11.727  12.687  1.00  0.00    -0.197 NA
ENDROOT
BRANCH   2   5
ATOM      5  C13 FTA A   1      -3.018  14.603  14.526  1.00  0.00     0.197 A 
ATOM      6  N15 FTA A   1      -2.788  15.312  15.703  1.00  0.00    -0.093 NA
ATOM      7  N19 FTA A   1      -3.096  16.644  15.455  1.00  0.00    -0.231 N 
ATOM      8  N20 FTA A   1      -3.518  16.776  14.140  1.00  0.00    -0.017 NA
ATOM      9  H15 FTA A   1      -3.022  17.411  16.138  1.00  0.00     0.200 HD
ATOM     10  N16 FTA A   1      -3.460  15.514  13.559  1.00  0.00    -0.090 NA
ENDBRANCH   2   5
BRANCH   1  11
ATOM     11  N1  FTA A   1      -0.646  12.917  14.993  1.00  0.00    -0.389 N 
ATOM     12  H11 FTA A   1      -0.177  12.909  14.075  1.00  0.00     0.159 HD
BRANCH  11  13
ATOM     13  C2  FTA A   1       0.100  13.387  16.108  1.00  0.00     0.028 A 
ATOM     14  C4  FTA A   1      -0.018  12.815  17.372  1.00  0.00     0.031 A 
ATOM     15  C6  FTA A   1       0.563  13.465  18.469  1.00  0.00     0.031 A 
ATOM     16  C7  FTA A   1       1.254  14.667  18.336  1.00  0.00     0.032 A 
ATOM     17  C5  FTA A   1       1.383  15.209  17.070  1.00  0.00     0.031 A 
ATOM     18  C3  FTA A   1       0.803  14.587  15.972  1.00  0.00     0.031 A 
BRANCH  16  19
ATOM     19  N8  FTA A   1       1.666  15.445  19.449  1.00  0.00    -0.356 N 
ATOM     20  H1  FTA A   1       0.960  15.646  20.172  1.00  0.00     0.166 HD
BRANCH  19  21
ATOM     21  C24 FTA A   1       2.978  15.971  19.649  1.00  0.00     0.032 A 
ATOM     22  C26 FTA A   1       3.214  17.325  19.677  1.00  0.00     0.029 A 
ATOM     23  C28 FTA A   1       4.523  17.769  19.701  1.00  0.00     0.002 A 
ATOM     24  C30 FTA A   1       5.601  16.901  19.728  1.00  0.00     0.000 A 
ATOM     25  C29 FTA A   1       5.378  15.549  19.738  1.00  0.00     0.002 A 
ATOM     26  C27 FTA A   1       4.054  15.097  19.711  1.00  0.00     0.029 A 
ENDBRANCH  19  21
ENDBRANCH  16  19
ENDBRANCH  11  13
ENDBRANCH   1  11
TORSDOF 5
ENDMDL
MODEL 3
REMARK VINA RESULT:    -6.074      1.248      2.878
REMARK INTER + INTRA:          -9.112
REMARK INTER:                  -8.055
REMARK INTRA:                  -1.057
REMARK UNBOUND:                -1.263
REMARK  5 active torsions:
REMARK  status: ('A' for Active; 'I' for Inactive)
REMARK    1  A    between atoms: N8_1  and  C24_2 
REMARK    2  A    between atoms: N8_1  and  C7_8 
REMARK    3  A    between atoms: C2_13  and  N1_14 
REMARK    4  A    between atoms: N1_14  and  C17_15 
REMARK    5  A    between atoms: C14_16  and  C13_19 
ROOT
ATOM      1  C17 FTA A   1      -2.003  12.960  15.490  1.00  0.00     0.142 C 
ATOM      2  C14 FTA A   1      -2.456  12.840  14.226  1.00  0.00     0.158 C 
ATOM      3  C18 FTA A   1      -3.641  12.057  13.949  1.00  0.00     0.069 C 
ATOM      4  N21 FTA A   1      -4.572  11.350  13.868  1.00  0.00    -0.197 NA
ENDROOT
BRANCH   2   5
ATOM      5  C13 FTA A   1      -1.740  13.529  13.127  1.00  0.00     0.197 A 
ATOM      6  N15 FTA A   1      -2.327  14.182  12.046  1.00  0.00    -0.093 NA
ATOM      7  N19 FTA A   1      -1.302  14.646  11.232  1.00  0.00    -0.231 N 
ATOM      8  N20 FTA A   1      -0.082  14.290  11.788  1.00  0.00    -0.017 NA
ATOM      9  H15 FTA A   1      -1.427  15.171  10.354  1.00  0.00     0.200 HD
ATOM     10  N16 FTA A   1      -0.351  13.606  12.969  1.00  0.00    -0.090 NA
ENDBRANCH   2   5
BRANCH   1  11
ATOM     11  N1  FTA A   1      -0.716  12.662  15.751  1.00  0.00    -0.389 N 
ATOM     12  H11 FTA A   1      -0.296  11.873  15.238  1.00  0.00     0.159 HD
BRANCH  11  13
ATOM     13  C2  FTA A   1       0.108  13.352  16.682  1.00  0.00     0.028 A 
ATOM     14  C4  FTA A   1       0.109  13.046  18.040  1.00  0.00     0.031 A 
ATOM     15  C6  FTA A   1       0.763  13.908  18.931  1.00  0.00     0.031 A 
ATOM     16  C7  FTA A   1       1.411  15.063  18.502  1.00  0.00     0.032 A 
ATOM     17  C5  FTA A   1       1.424  15.339  17.146  1.00  0.00     0.031 A 
ATOM     18  C3  FTA A   1       0.770  14.504  16.248  1.00  0.00     0.031 A 
BRANCH  16  19
ATOM     19  N8  FTA A   1       1.895  16.051  19.396  1.00  0.00    -0.356 N 
ATOM     20  H1  FTA A   1       1.196  16.607  19.910  1.00  0.00     0.166 HD
BRANCH  19  21
ATOM     21  C24 FTA A   1       3.272  16.340  19.644  1.00  0.00     0.032 A 
ATOM     22  C26 FTA A   1       3.741  17.632  19.685  1.00  0.00     0.029 A 
ATOM     23  C28 FTA A   1       5.105  17.839  19.756  1.00  0.00     0.002 A 
ATOM     24  C30 FTA A   1       6.013  16.795  19.817  1.00  0.00     0.000 A 
ATOM     25  C29 FTA A   1       5.556  15.504  19.815  1.00  0.00     0.002 A 
ATOM     26  C27 FTA A   1       4.175  15.291  19.740  1.00  0.00     0.029 A 
ENDBRANCH  19  21
ENDBRANCH  16  19
ENDBRANCH  11  13
ENDBRANCH   1  11
TORSDOF 5
ENDMDL
MODEL 4
REMARK VINA RESULT:    -6.034      2.194      8.499
REMARK INTER + INTRA:          -9.061
REMARK INTER:                  -7.975
REMARK INTRA:                  -1.086
REMARK UNBOUND:                -1.263
REMARK  5 active torsions:
REMARK  status: ('A' for Active; 'I' for Inactive)
REMARK    1  A    between atoms: N8_1  and  C24_2 
REMARK    2  A    between atoms: N8_1  and  C7_8 
REMARK    3  A    between atoms: C2_13  and  N1_14 
REMARK    4  A    between atoms: N1_14  and  C17_15 
REMARK    5  A    between atoms: C14_16  and  C13_19 
ROOT
ATOM      1  C17 FTA A   1       1.808  17.044  19.055  1.00  0.00     0.142 C 
ATOM      2  C14 FTA A   1       3.086  17.014  18.628  1.00  0.00     0.158 C 
ATOM      3  C18 FTA A   1       3.461  17.694  17.406  1.00  0.00     0.069 C 
ATOM      4  N21 FTA A   1       3.606  18.237  16.377  1.00  0.00    -0.197 NA
ENDROOT
BRANCH   2   5
ATOM      5  C13 FTA A   1       4.104  16.293  19.426  1.00  0.00     0.197 A 
ATOM      6  N15 FTA A   1       5.329  16.804  19.850  1.00  0.00    -0.093 NA
ATOM      7  N19 FTA A   1       5.993  15.789  20.527  1.00  0.00    -0.231 N 
ATOM      8  N20 FTA A   1       5.201  14.650  20.529  1.00  0.00    -0.017 NA
ATOM      9  H15 FTA A   1       6.925  15.869  20.958  1.00  0.00     0.200 HD
ATOM     10  N16 FTA A   1       4.025  14.964  19.857  1.00  0.00    -0.090 NA
ENDBRANCH   2   5
BRANCH   1  11
ATOM     11  N1  FTA A   1       1.187  15.882  19.335  1.00  0.00    -0.389 N 
ATOM     12  H11 FTA A   1       1.183  15.569  20.316  1.00  0.00     0.159 HD
BRANCH  11  13
ATOM     13  C2  FTA A   1       0.537  15.055  18.379  1.00  0.00     0.028 A 
ATOM     14  C4  FTA A   1       0.417  13.678  18.550  1.00  0.00     0.031 A 
ATOM     15  C6  FTA A   1      -0.025  12.895  17.474  1.00  0.00     0.031 A 
ATOM     16  C7  FTA A   1      -0.346  13.450  16.238  1.00  0.00     0.032 A 
ATOM     17  C5  FTA A   1      -0.245  14.822  16.092  1.00  0.00     0.031 A 
ATOM     18  C3  FTA A   1       0.204  15.614  17.142  1.00  0.00     0.031 A 
BRANCH  16  19
ATOM     19  N8  FTA A   1      -0.590  12.665  15.082  1.00  0.00    -0.356 N 
ATOM     20  H1  FTA A   1       0.112  11.951  14.839  1.00  0.00     0.166 HD
BRANCH  19  21
ATOM     21  C24 FTA A   1      -1.729  12.782  14.229  1.00  0.00     0.032 A 
ATOM     22  C26 FTA A   1      -2.941  12.225  14.565  1.00  0.00     0.029 A 
ATOM     23  C28 FTA A   1      -3.952  12.224  13.623  1.00  0.00     0.002 A 
ATOM     24  C30 FTA A   1      -3.800  12.790  12.368  1.00  0.00     0.000 A 
ATOM     25  C29 FTA A   1      -2.610  13.381  12.036  1.00  0.00     0.002 A 
ATOM     26  C27 FTA A   1      -1.583  13.380  12.986  1.00  0.00     0.029 A 
ENDBRANCH  19  21
ENDBRANCH  16  19
ENDBRANCH  11  13
ENDBRANCH   1  11
TORSDOF 5
ENDMDL
MODEL 5
REMARK VINA RESULT:    -5.893      3.045      9.221
REMARK INTER + INTRA:          -8.878
REMARK INTER:                  -7.886
REMARK INTRA:                  -0.992
REMARK UNBOUND:                -1.263
REMARK  5 active torsions:
REMARK  status: ('A' for Active; 'I' for Inactive)
REMARK    1  A    between atoms: N8_1  and  C24_2 
REMARK    2  A    between atoms: N8_1  and  C7_8 
REMARK    3  A    between atoms: C2_13  and  N1_14 
REMARK    4  A    between atoms: N1_14  and  C17_15 
REMARK    5  A    between atoms: C14_16  and  C13_19 
ROOT
ATOM      1  C17 FTA A   1       0.166  14.932  14.730  1.00  0.00     0.142 C 
ATOM      2  C14 FTA A   1       1.005  15.295  15.721  1.00  0.00     0.158 C 
ATOM      3  C18 FTA A   1       2.300  15.859  15.407  1.00  0.00     0.069 C 
ATOM      4  N21 FTA A   1       3.332  16.246  15.006  1.00  0.00    -0.197 NA
ENDROOT
BRANCH   2   5
ATOM      5  C13 FTA A   1       0.584  15.125  17.131  1.00  0.00     0.197 A 
ATOM      6  N15 FTA A   1       1.405  15.230  18.252  1.00  0.00    -0.093 NA
ATOM      7  N19 FTA A   1       0.625  14.954  19.367  1.00  0.00    -0.231 N 
ATOM      8  N20 FTA A   1      -0.672  14.675  18.959  1.00  0.00    -0.017 NA
ATOM      9  H15 FTA A   1       0.955  14.956  20.343  1.00  0.00     0.200 HD
ATOM     10  N16 FTA A   1      -0.701  14.791  17.573  1.00  0.00    -0.090 NA
ENDBRANCH   2   5
BRANCH   1  11
ATOM     11  N1  FTA A   1      -0.343  13.685  14.732  1.00  0.00    -0.389 N 
ATOM     12  H11 FTA A   1       0.193  12.953  15.219  1.00  0.00     0.159 HD
BRANCH  11  13
ATOM     13  C2  FTA A   1      -1.565  13.303  14.113  1.00  0.00     0.028 A 
ATOM     14  C4  FTA A   1      -2.488  12.473  14.745  1.00  0.00     0.031 A 
ATOM     15  C6  FTA A   1      -3.553  11.950  14.000  1.00  0.00     0.031 A 
ATOM     16  C7  FTA A   1      -3.719  12.232  12.647  1.00  0.00     0.032 A 
ATOM     17  C5  FTA A   1      -2.808  13.079  12.040  1.00  0.00     0.031 A 
ATOM     18  C3  FTA A   1      -1.737  13.597  12.758  1.00  0.00     0.031 A 
BRANCH  16  19
ATOM     19  N8  FTA A   1      -4.659  11.555  11.829  1.00  0.00    -0.356 N 
ATOM     20  H1  FTA A   1      -4.476  11.536  10.815  1.00  0.00     0.166 HD
BRANCH  19  21
ATOM     21  C24 FTA A   1      -5.838  10.898  12.294  1.00  0.00     0.032 A 
ATOM     22  C26 FTA A   1      -5.929   9.526  12.337  1.00  0.00     0.029 A 
ATOM     23  C28 FTA A   1      -7.152   8.953  12.631  1.00  0.00     0.002 A 
ATOM     24  C30 FTA A   1      -8.277   9.708  12.916  1.00  0.00     0.000 A 
ATOM     25  C29 FTA A   1      -8.190  11.075  12.914  1.00  0.00     0.002 A 
ATOM     26  C27 FTA A   1      -6.954  11.658  12.613  1.00  0.00     0.029 A 
ENDBRANCH  19  21
ENDBRANCH  16  19
ENDBRANCH  11  13
ENDBRANCH   1  11
TORSDOF 5
ENDMDL
MODEL 6
REMARK VINA RESULT:    -5.863      2.816      5.067
REMARK INTER + INTRA:          -8.841
REMARK INTER:                  -7.826
REMARK INTRA:                  -1.014
REMARK UNBOUND:                -1.263
REMARK  5 active torsions:
REMARK  status: ('A' for Active; 'I' for Inactive)
REMARK    1  A    between atoms: N8_1  and  C24_2 
REMARK    2  A    between atoms: N8_1  and  C7_8 
REMARK    3  A    between atoms: C2_13  and  N1_14 
REMARK    4  A    between atoms: N1_14  and  C17_15 
REMARK    5  A    between atoms: C14_16  and  C13_19 
ROOT
ATOM      1  C17 FTA A   1      -5.595  12.603  11.444  1.00  0.00     0.142 C 
ATOM      2  C14 FTA A   1      -6.659  12.374  12.238  1.00  0.00     0.158 C 
ATOM      3  C18 FTA A   1      -7.394  13.482  12.809  1.00  0.00     0.069 C 
ATOM      4  N21 FTA A   1      -7.854  14.469  13.245  1.00  0.00    -0.197 NA
ENDROOT
BRANCH   2   5
ATOM      5  C13 FTA A   1      -7.079  10.979  12.508  1.00  0.00     0.197 A 
ATOM      6  N15 FTA A   1      -6.235   9.904  12.777  1.00  0.00    -0.093 NA
ATOM      7  N19 FTA A   1      -7.031   8.775  12.923  1.00  0.00    -0.231 N 
ATOM      8  N20 FTA A   1      -8.360   9.129  12.746  1.00  0.00    -0.017 NA
ATOM      9  H15 FTA A   1      -6.688   7.826  13.130  1.00  0.00     0.200 HD
ATOM     10  N16 FTA A   1      -8.394  10.498  12.499  1.00  0.00    -0.090 NA
ENDBRANCH   2   5
BRANCH   1  11
ATOM     11  N1  FTA A   1      -4.426  12.000  11.731  1.00  0.00    -0.389 N 
ATOM     12  H11 FTA A   1      -4.264  11.062  11.334  1.00  0.00     0.159 HD
BRANCH  11  13
ATOM     13  C2  FTA A   1      -3.397  12.557  12.539  1.00  0.00     0.028 A 
ATOM     14  C4  FTA A   1      -2.399  13.371  12.010  1.00  0.00     0.031 A 
ATOM     15  C6  FTA A   1      -1.293  13.696  12.808  1.00  0.00     0.031 A 
ATOM     16  C7  FTA A   1      -1.160  13.229  14.113  1.00  0.00     0.032 A 
ATOM     17  C5  FTA A   1      -2.172  12.442  14.632  1.00  0.00     0.031 A 
ATOM     18  C3  FTA A   1      -3.270  12.098  13.853  1.00  0.00     0.031 A 
BRANCH  16  19
ATOM     19  N8  FTA A   1       0.037  13.369  14.862  1.00  0.00    -0.356 N 
ATOM     20  H1  FTA A   1       0.914  13.070  14.411  1.00  0.00     0.166 HD
BRANCH  19  21
ATOM     21  C24 FTA A   1       0.126  13.890  16.188  1.00  0.00     0.032 A 
ATOM     22  C26 FTA A   1       0.308  15.233  16.423  1.00  0.00     0.029 A 
ATOM     23  C28 FTA A   1       0.559  15.650  17.717  1.00  0.00     0.002 A 
ATOM     24  C30 FTA A   1       0.603  14.771  18.786  1.00  0.00     0.000 A 
ATOM     25  C29 FTA A   1       0.385  13.436  18.569  1.00  0.00     0.002 A 
ATOM     26  C27 FTA A   1       0.134  13.010  17.260  1.00  0.00     0.029 A 
ENDBRANCH  19  21
ENDBRANCH  16  19
ENDBRANCH  11  13
ENDBRANCH   1  11
TORSDOF 5
ENDMDL
MODEL 7
REMARK VINA RESULT:    -5.814      3.115      9.051
REMARK INTER + INTRA:          -8.777
REMARK INTER:                  -7.789
REMARK INTRA:                  -0.988
REMARK UNBOUND:                -1.263
REMARK  5 active torsions:
REMARK  status: ('A' for Active; 'I' for Inactive)
REMARK    1  A    between atoms: N8_1  and  C24_2 
REMARK    2  A    between atoms: N8_1  and  C7_8 
REMARK    3  A    between atoms: C2_13  and  N1_14 
REMARK    4  A    between atoms: N1_14  and  C17_15 
REMARK    5  A    between atoms: C14_16  and  C13_19 
ROOT
ATOM      1  C17 FTA A   1       4.211  17.568  18.816  1.00  0.00     0.142 C 
ATOM      2  C14 FTA A   1       4.635  18.367  19.816  1.00  0.00     0.158 C 
ATOM      3  C18 FTA A   1       6.001  18.842  19.838  1.00  0.00     0.069 C 
ATOM      4  N21 FTA A   1       7.142  19.101  19.756  1.00  0.00    -0.197 NA
ENDROOT
BRANCH   2   5
ATOM      5  C13 FTA A   1       3.686  18.766  20.881  1.00  0.00     0.197 A 
ATOM      6  N15 FTA A   1       3.904  19.741  21.853  1.00  0.00    -0.093 NA
ATOM      7  N19 FTA A   1       2.787  19.765  22.677  1.00  0.00    -0.231 N 
ATOM      8  N20 FTA A   1       1.874  18.818  22.236  1.00  0.00    -0.017 NA
ATOM      9  H15 FTA A   1       2.656  20.388  23.487  1.00  0.00     0.200 HD
ATOM     10  N16 FTA A   1       2.426  18.205  21.115  1.00  0.00    -0.090 NA
ENDBRANCH   2   5
BRANCH   1  11
ATOM     11  N1  FTA A   1       3.613  16.401  19.124  1.00  0.00    -0.389 N 
ATOM     12  H11 FTA A   1       4.042  15.827  19.865  1.00  0.00     0.159 HD
BRANCH  11  13
ATOM     13  C2  FTA A   1       2.436  15.899  18.506  1.00  0.00     0.028 A 
ATOM     14  C4  FTA A   1       1.767  16.602  17.506  1.00  0.00     0.031 A 
ATOM     15  C6  FTA A   1       0.497  16.168  17.103  1.00  0.00     0.031 A 
ATOM     16  C7  FTA A   1      -0.121  15.058  17.672  1.00  0.00     0.032 A 
ATOM     17  C5  FTA A   1       0.567  14.356  18.647  1.00  0.00     0.031 A 
ATOM     18  C3  FTA A   1       1.821  14.777  19.069  1.00  0.00     0.031 A 
BRANCH  16  19
ATOM     19  N8  FTA A   1      -1.479  14.726  17.434  1.00  0.00    -0.356 N 
ATOM     20  H1  FTA A   1      -2.129  14.795  18.230  1.00  0.00     0.166 HD
BRANCH  19  21
ATOM     21  C24 FTA A   1      -2.019  14.304  16.181  1.00  0.00     0.032 A 
ATOM     22  C26 FTA A   1      -2.683  15.177  15.352  1.00  0.00     0.029 A 
ATOM     23  C28 FTA A   1      -3.330  14.672  14.240  1.00  0.00     0.002 A 
ATOM     24  C30 FTA A   1      -3.308  13.327  13.915  1.00  0.00     0.000 A 
ATOM     25  C29 FTA A   1      -2.618  12.452  14.713  1.00  0.00     0.002 A 
ATOM     26  C27 FTA A   1      -1.965  12.960  15.841  1.00  0.00     0.029 A 
ENDBRANCH  19  21
ENDBRANCH  16  19
ENDBRANCH  11  13
ENDBRANCH   1  11
TORSDOF 5
ENDMDL
MODEL 8
REMARK VINA RESULT:    -5.779      3.311      9.559
REMARK INTER + INTRA:          -8.732
REMARK INTER:                  -7.808
REMARK INTRA:                  -0.924
REMARK UNBOUND:                -1.263
REMARK  5 active torsions:
REMARK  status: ('A' for Active; 'I' for Inactive)
REMARK    1  A    between atoms: N8_1  and  C24_2 
REMARK    2  A    between atoms: N8_1  and  C7_8 
REMARK    3  A    between atoms: C2_13  and  N1_14 
REMARK    4  A    between atoms: N1_14  and  C17_15 
REMARK    5  A    between atoms: C14_16  and  C13_19 
ROOT
ATOM      1  C17 FTA A   1      -0.332  13.561  16.010  1.00  0.00     0.142 C 
ATOM      2  C14 FTA A   1       0.306  14.473  16.770  1.00  0.00     0.158 C 
ATOM      3  C18 FTA A   1      -0.076  14.662  18.153  1.00  0.00     0.069 C 
ATOM      4  N21 FTA A   1      -0.527  14.747  19.232  1.00  0.00    -0.197 NA
ENDROOT
BRANCH   2   5
ATOM      5  C13 FTA A   1       1.409  15.268  16.182  1.00  0.00     0.197 A 
ATOM      6  N15 FTA A   1       1.921  15.136  14.894  1.00  0.00    -0.093 NA
ATOM      7  N19 FTA A   1       2.971  16.036  14.768  1.00  0.00    -0.231 N 
ATOM      8  N20 FTA A   1       3.125  16.727  15.961  1.00  0.00    -0.017 NA
ATOM      9  H15 FTA A   1       3.546  16.170  13.923  1.00  0.00     0.200 HD
ATOM     10  N16 FTA A   1       2.149  16.260  16.836  1.00  0.00    -0.090 NA
ENDBRANCH   2   5
BRANCH   1  11
ATOM     11  N1  FTA A   1      -0.850  13.946  14.828  1.00  0.00    -0.389 N 
ATOM     12  H11 FTA A   1      -0.382  14.718  14.331  1.00  0.00     0.159 HD
BRANCH  11  13
ATOM     13  C2  FTA A   1      -1.995  13.369  14.213  1.00  0.00     0.028 A 
ATOM     14  C4  FTA A   1      -2.840  12.495  14.893  1.00  0.00     0.031 A 
ATOM     15  C6  FTA A   1      -3.809  11.786  14.170  1.00  0.00     0.031 A 
ATOM     16  C7  FTA A   1      -3.953  11.925  12.792  1.00  0.00     0.032 A 
ATOM     17  C5  FTA A   1      -3.122  12.816  12.135  1.00  0.00     0.031 A 
ATOM     18  C3  FTA A   1      -2.147  13.518  12.832  1.00  0.00     0.031 A 
BRANCH  16  19
ATOM     19  N8  FTA A   1      -4.776  11.072  12.014  1.00  0.00    -0.356 N 
ATOM     20  H1  FTA A   1      -4.446  10.830  11.069  1.00  0.00     0.166 HD
BRANCH  19  21
ATOM     21  C24 FTA A   1      -6.024  10.520  12.434  1.00  0.00     0.032 A 
ATOM     22  C26 FTA A   1      -6.224   9.161  12.503  1.00  0.00     0.029 A 
ATOM     23  C28 FTA A   1      -7.501   8.692  12.749  1.00  0.00     0.002 A 
ATOM     24  C30 FTA A   1      -8.577   9.538  12.957  1.00  0.00     0.000 A 
ATOM     25  C29 FTA A   1      -8.383  10.893  12.929  1.00  0.00     0.002 A 
ATOM     26  C27 FTA A   1      -7.092  11.372  12.677  1.00  0.00     0.029 A 
ENDBRANCH  19  21
ENDBRANCH  16  19
ENDBRANCH  11  13
ENDBRANCH   1  11
TORSDOF 5
ENDMDL
MODEL 9
REMARK VINA RESULT:    -5.768      1.729      2.476
REMARK INTER + INTRA:          -8.717
REMARK INTER:                  -7.454
REMARK INTRA:                  -1.263
REMARK UNBOUND:                -1.263
REMARK  5 active torsions:
REMARK  status: ('A' for Active; 'I' for Inactive)
REMARK    1  A    between atoms: N8_1  and  C24_2 
REMARK    2  A    between atoms: N8_1  and  C7_8 
REMARK    3  A    between atoms: C2_13  and  N1_14 
REMARK    4  A    between atoms: N1_14  and  C17_15 
REMARK    5  A    between atoms: C14_16  and  C13_19 
ROOT
ATOM      1  C17 FTA A   1      -1.113  12.655  14.413  1.00  0.00     0.142 C 
ATOM      2  C14 FTA A   1      -0.878  13.709  13.606  1.00  0.00     0.158 C 
ATOM      3  C18 FTA A   1       0.444  13.926  13.059  1.00  0.00     0.069 C 
ATOM      4  N21 FTA A   1       1.569  14.007  12.738  1.00  0.00    -0.197 NA
ENDROOT
BRANCH   2   5
ATOM      5  C13 FTA A   1      -1.986  14.633  13.274  1.00  0.00     0.197 A 
ATOM      6  N15 FTA A   1      -3.209  14.722  13.935  1.00  0.00    -0.093 NA
ATOM      7  N19 FTA A   1      -3.972  15.678  13.276  1.00  0.00    -0.231 N 
ATOM      8  N20 FTA A   1      -3.243  16.186  12.210  1.00  0.00    -0.017 NA
ATOM      9  H15 FTA A   1      -4.927  15.964  13.537  1.00  0.00     0.200 HD
ATOM     10  N16 FTA A   1      -2.008  15.547  12.214  1.00  0.00    -0.090 NA
ENDBRANCH   2   5
BRANCH   1  11
ATOM     11  N1  FTA A   1      -1.682  12.869  15.615  1.00  0.00    -0.389 N 
ATOM     12  H11 FTA A   1      -2.673  12.607  15.726  1.00  0.00     0.159 HD
BRANCH  11  13
ATOM     13  C2  FTA A   1      -1.021  13.428  16.742  1.00  0.00     0.028 A 
ATOM     14  C4  FTA A   1      -1.186  14.760  17.114  1.00  0.00     0.031 A 
ATOM     15  C6  FTA A   1      -0.336  15.306  18.085  1.00  0.00     0.031 A 
ATOM     16  C7  FTA A   1       0.672  14.559  18.690  1.00  0.00     0.032 A 
ATOM     17  C5  FTA A   1       0.807  13.231  18.329  1.00  0.00     0.031 A 
ATOM     18  C3  FTA A   1      -0.017  12.675  17.358  1.00  0.00     0.031 A 
BRANCH  16  19
ATOM     19  N8  FTA A   1       1.670  15.139  19.514  1.00  0.00    -0.356 N 
ATOM     20  H1  FTA A   1       1.461  15.226  20.519  1.00  0.00     0.166 HD
BRANCH  19  21
ATOM     21  C24 FTA A   1       2.940  15.612  19.065  1.00  0.00     0.032 A 
ATOM     22  C26 FTA A   1       3.065  16.365  17.922  1.00  0.00     0.029 A 
ATOM     23  C28 FTA A   1       4.333  16.644  17.448  1.00  0.00     0.002 A 
ATOM     24  C30 FTA A   1       5.480  16.220  18.099  1.00  0.00     0.000 A 
ATOM     25  C29 FTA A   1       5.368  15.502  19.260  1.00  0.00     0.002 A 
ATOM     26  C27 FTA A   1       4.085  15.215  19.740  1.00  0.00     0.029 A 
ENDBRANCH  19  21
ENDBRANCH  16  19
ENDBRANCH  11  13
ENDBRANCH   1  11
TORSDOF 5
ENDMDL
