REMARK  9 active torsions:
REMARK  status: ('A' for Active; 'I' for Inactive)
REMARK    1  A    between atoms: C_2  and  C_4 
REMARK    2  A    between atoms: C_4  and  C_5 
REMARK    3  A    between atoms: C_5  and  C_6 
REMARK    4  A    between atoms: C_6  and  O_7 
REMARK    5  A    between atoms: O_7  and  C_8 
REMARK    6  A    between atoms: C_9  and  O_10 
REMARK    7  A    between atoms: C_14  and  C_16 
REMARK    8  A    between atoms: C_20  and  N_22 
REMARK    9  A    between atoms: C_27  and  C_29 
REMARK       I    between atoms: C_29  and  N_31 
ROOT
HETATM    1  C   UNL     1       7.623  -6.635  -1.792  0.00  0.00     0.014 A 
HETATM    2  C   UNL     1       6.277  -7.015  -1.467  0.00  0.00     0.096 A 
HETATM    3  C   UNL     1       5.185  -6.075  -1.441  0.00  0.00     0.103 C 
HETATM    4  N   UNL     1       4.279  -5.358  -1.408  0.00  0.00    -0.191 NA
HETATM    5  C   UNL     1       5.957  -8.347  -1.213  0.00  0.00     0.123 A 
HETATM    6  N   UNL     1       6.818  -9.349  -1.354  0.00  0.00    -0.227 NA
HETATM    7  C   UNL     1       8.567  -7.722  -1.950  0.00  0.00     0.040 A 
HETATM    8  C   UNL     1       8.056  -9.006  -1.739  0.00  0.00     0.113 A 
HETATM    9  C   UNL     1       9.983  -7.872  -2.293  0.00  0.00     0.062 A 
HETATM   10  N   UNL     1      10.862  -6.858  -2.485  0.00  0.00    -0.397 N 
HETATM   11  C   UNL     1      10.392  -9.189  -2.452  0.00  0.00     0.101 A 
HETATM   12  S   UNL     1       9.146 -10.267  -2.037  0.00  0.00    -0.062 SA
HETATM   13  H   UNL     1      10.775  -5.989  -1.960  0.00  0.00     0.156 HD
HETATM   14  H   UNL     1      11.843  -7.075  -2.690  0.00  0.00     0.156 HD
ENDROOT
BRANCH   1  15
HETATM   15  C   UNL     1       8.007  -5.198  -1.976  0.00  0.00    -0.021 A 
HETATM   16  C   UNL     1       8.858  -4.753  -2.994  0.00  0.00     0.015 A 
HETATM   17  C   UNL     1       9.232  -3.405  -3.120  0.00  0.00     0.040 A 
HETATM   18  C   UNL     1       8.652  -2.425  -2.315  0.00  0.00     0.101 A 
HETATM   19  C   UNL     1       7.751  -2.819  -1.321  0.00  0.00     0.102 A 
HETATM   20  C   UNL     1       7.484  -4.189  -1.137  0.00  0.00     0.052 A 
BRANCH  18  21
HETATM   21  O   UNL     1       8.934  -1.087  -2.407  0.00  0.00    -0.353 OA
HETATM   22  C   UNL     1       9.471  -0.636  -3.641  0.00  0.00     0.210 C 
ENDBRANCH  18  21
BRANCH  19  23
HETATM   23  O   UNL     1       7.149  -1.813  -0.598  0.00  0.00    -0.348 OA
BRANCH  23  24
HETATM   24  C   UNL     1       6.484  -2.224   0.601  0.00  0.00     0.176 C 
BRANCH  24  25
HETATM   25  C   UNL     1       6.254  -1.014   1.500  0.00  0.00     0.037 C 
BRANCH  25  26
HETATM   26  C   UNL     1       5.628  -1.402   2.837  0.00  0.00     0.115 C 
BRANCH  26  27
HETATM   27  C   UNL     1       6.506  -2.412   3.578  0.00  0.00     0.172 C 
HETATM   28  O   UNL     1       6.214  -3.625   3.368  0.00  0.00    -0.648 OA
HETATM   29  O   UNL     1       7.418  -1.914   4.292  0.00  0.00    -0.648 OA
ENDBRANCH  26  27
ENDBRANCH  25  26
ENDBRANCH  24  25
ENDBRANCH  23  24
ENDBRANCH  19  23
ENDBRANCH   1  15
BRANCH   5  30
HETATM   30  N   UNL     1       4.669  -8.762  -0.863  0.00  0.00    -0.286 NA
HETATM   31  H   UNL     1       4.286  -8.238  -0.080  0.00  0.00     0.125 HD
HETATM   32  H   UNL     1       4.709  -9.759  -0.666  0.00  0.00     0.125 HD
ENDBRANCH   5  30
BRANCH  11  33
HETATM   33  C   UNL     1      11.690  -9.692  -2.875  0.00  0.00     0.258 C 
HETATM   34  O   UNL     1      12.654  -8.977  -3.158  0.00  0.00    -0.267 OA
HETATM   35  N   UNL     1      11.841 -11.049  -2.965  0.00  0.00    -0.365 N 
HETATM   36  H   UNL     1      11.093 -11.683  -2.722  0.00  0.00     0.159 HD
HETATM   37  H   UNL     1      12.739 -11.412  -3.251  0.00  0.00     0.159 HD
ENDBRANCH  11  33
TORSDOF 9
