MODEL 1
REMARK VINA RESULT:    -9.056      0.000      0.000
REMARK INTER + INTRA:         -12.362
REMARK INTER:                 -11.422
REMARK INTRA:                  -0.940
REMARK UNBOUND:                -0.923
REMARK  5 active torsions:
REMARK  status: ('A' for Active; 'I' for Inactive)
REMARK       I    between atoms: C_2  and  N_3 
REMARK    1  A    between atoms: C_2  and  C_12 
REMARK    2  A    between atoms: N_3  and  C_5 
REMARK    3  A    between atoms: C_13  and  O_14 
REMARK    4  A    between atoms: C_20  and  C_21 
REMARK    5  A    between atoms: C_21  and  C_22 
ROOT
HETATM    1  C   UNL     1       7.528  12.197  21.081  0.00  0.00     0.066 C 
HETATM    2  C   UNL     1       8.855  12.088  21.510  0.00  0.00     0.083 C 
HETATM    3  C   UNL     1       9.318  12.771  22.638  0.00  0.00     0.069 C 
HETATM    4  C   UNL     1       8.449  13.678  23.249  0.00  0.00     0.065 A 
HETATM    5  N   UNL     1       8.642  14.523  24.303  0.00  0.00    -0.277 N 
HETATM    6  H   UNL     1       9.480  14.631  24.861  0.00  0.00     0.189 HD
HETATM    7  N   UNL     1       7.612  15.335  24.554  0.00  0.00    -0.178 NA
HETATM    8  C   UNL     1       6.694  15.011  23.625  0.00  0.00     0.071 A 
HETATM    9  C   UNL     1       7.156  13.929  22.799  0.00  0.00     0.020 A 
HETATM   10  C   UNL     1       6.689  13.165  21.704  0.00  0.00     0.035 C 
ENDROOT
BRANCH   1  11
HETATM   11  C   UNL     1       6.943  11.445  19.922  0.00  0.00     0.260 C 
HETATM   12  O   UNL     1       7.495  11.683  18.844  0.00  0.00    -0.267 OA
HETATM   13  N   UNL     1       5.834  10.559  20.063  0.00  0.00    -0.318 N 
HETATM   14  C   UNL     1       4.960  10.543  21.245  0.00  0.00     0.159 C 
BRANCH  13  15
HETATM   15  C   UNL     1       5.414   9.723  18.941  0.00  0.00     0.037 A 
HETATM   16  C   UNL     1       4.630  10.233  17.896  0.00  0.00     0.030 A 
HETATM   17  C   UNL     1       4.152   9.421  16.855  0.00  0.00     0.009 A 
HETATM   18  C   UNL     1       4.458   8.063  16.816  0.00  0.00    -0.062 A 
HETATM   19  C   UNL     1       3.900   7.171  15.750  0.00  0.00     0.048 C 
HETATM   20  C   UNL     1       5.284   7.544  17.810  0.00  0.00     0.009 A 
HETATM   21  C   UNL     1       5.765   8.363  18.846  0.00  0.00     0.030 A 
ENDBRANCH  13  15
ENDBRANCH   1  11
BRANCH   2  22
HETATM   22  O   UNL     1       9.817  11.364  20.853  0.00  0.00    -0.360 OA
HETATM   23  H   UNL     1      10.692  11.643  21.178  0.00  0.00     0.217 HD
ENDBRANCH   2  22
BRANCH   8  24
HETATM   24  C   UNL     1       5.516  15.919  23.495  0.00  0.00     0.100 C 
BRANCH  24  25
HETATM   25  C   UNL     1       4.233  15.239  23.892  0.00  0.00    -0.052 A 
HETATM   26  C   UNL     1       3.469  14.616  22.897  0.00  0.00     0.014 A 
HETATM   27  C   UNL     1       2.144  14.237  23.135  0.00  0.00    -0.061 A 
HETATM   28  C   UNL     1       1.306  13.747  21.993  0.00  0.00     0.048 C 
HETATM   29  C   UNL     1       1.619  14.363  24.424  0.00  0.00     0.007 A 
HETATM   30  C   UNL     1       2.386  14.928  25.446  0.00  0.00     0.001 A 
HETATM   31  C   UNL     1       3.678  15.380  25.174  0.00  0.00     0.007 A 
ENDBRANCH  24  25
ENDBRANCH   8  24
TORSDOF 5
ENDMDL
MODEL 2
REMARK VINA RESULT:    -8.700      3.545      6.854
REMARK INTER + INTRA:         -11.912
REMARK INTER:                 -10.596
REMARK INTRA:                  -1.316
REMARK UNBOUND:                -0.923
REMARK  5 active torsions:
REMARK  status: ('A' for Active; 'I' for Inactive)
REMARK       I    between atoms: C_2  and  N_3 
REMARK    1  A    between atoms: C_2  and  C_12 
REMARK    2  A    between atoms: N_3  and  C_5 
REMARK    3  A    between atoms: C_13  and  O_14 
REMARK    4  A    between atoms: C_20  and  C_21 
REMARK    5  A    between atoms: C_21  and  C_22 
ROOT
HETATM    1  C   UNL     1       7.874  13.260  21.982  0.00  0.00     0.066 C 
HETATM    2  C   UNL     1       8.137  12.392  20.917  0.00  0.00     0.083 C 
HETATM    3  C   UNL     1       9.444  12.041  20.565  0.00  0.00     0.069 C 
HETATM    4  C   UNL     1      10.490  12.691  21.225  0.00  0.00     0.065 A 
HETATM    5  N   UNL     1      11.841  12.608  21.048  0.00  0.00    -0.277 N 
HETATM    6  H   UNL     1      12.342  12.022  20.393  0.00  0.00     0.189 HD
HETATM    7  N   UNL     1      12.547  13.464  21.792  0.00  0.00    -0.178 NA
HETATM    8  C   UNL     1      11.621  14.143  22.493  0.00  0.00     0.071 A 
HETATM    9  C   UNL     1      10.299  13.658  22.207  0.00  0.00     0.020 A 
HETATM   10  C   UNL     1       8.967  13.935  22.596  0.00  0.00     0.035 C 
ENDROOT
BRANCH   1  11
HETATM   11  C   UNL     1       6.501  13.630  22.458  0.00  0.00     0.260 C 
HETATM   12  O   UNL     1       6.171  14.786  22.181  0.00  0.00    -0.267 OA
HETATM   13  N   UNL     1       5.671  12.726  23.186  0.00  0.00    -0.318 N 
HETATM   14  C   UNL     1       6.178  11.500  23.821  0.00  0.00     0.159 C 
BRANCH  13  15
HETATM   15  C   UNL     1       4.282  13.074  23.476  0.00  0.00     0.037 A 
HETATM   16  C   UNL     1       3.229  12.639  22.657  0.00  0.00     0.030 A 
HETATM   17  C   UNL     1       1.900  13.034  22.877  0.00  0.00     0.009 A 
HETATM   18  C   UNL     1       1.574  13.870  23.942  0.00  0.00    -0.062 A 
HETATM   19  C   UNL     1       0.171  14.354  24.150  0.00  0.00     0.048 C 
HETATM   20  C   UNL     1       2.593  14.269  24.805  0.00  0.00     0.009 A 
HETATM   21  C   UNL     1       3.921  13.865  24.583  0.00  0.00     0.030 A 
ENDBRANCH  13  15
ENDBRANCH   1  11
BRANCH   2  22
HETATM   22  O   UNL     1       7.171  11.858  20.103  0.00  0.00    -0.360 OA
HETATM   23  H   UNL     1       7.483  10.996  19.774  0.00  0.00     0.217 HD
ENDBRANCH   2  22
BRANCH   8  24
HETATM   24  C   UNL     1      12.091  15.346  23.244  0.00  0.00     0.100 C 
BRANCH  24  25
HETATM   25  C   UNL     1      11.756  15.263  24.708  0.00  0.00    -0.052 A 
HETATM   26  C   UNL     1      12.411  14.306  25.494  0.00  0.00     0.014 A 
HETATM   27  C   UNL     1      11.942  13.973  26.768  0.00  0.00    -0.061 A 
HETATM   28  C   UNL     1      12.558  12.816  27.496  0.00  0.00     0.048 C 
HETATM   29  C   UNL     1      10.882  14.698  27.317  0.00  0.00     0.007 A 
HETATM   30  C   UNL     1      10.251  15.698  26.572  0.00  0.00     0.001 A 
HETATM   31  C   UNL     1      10.676  15.963  25.268  0.00  0.00     0.007 A 
ENDBRANCH  24  25
ENDBRANCH   8  24
TORSDOF 5
ENDMDL
MODEL 3
REMARK VINA RESULT:    -8.288      3.783      6.896
REMARK INTER + INTRA:         -11.392
REMARK INTER:                 -10.036
REMARK INTRA:                  -1.356
REMARK UNBOUND:                -0.923
REMARK  5 active torsions:
REMARK  status: ('A' for Active; 'I' for Inactive)
REMARK       I    between atoms: C_2  and  N_3 
REMARK    1  A    between atoms: C_2  and  C_12 
REMARK    2  A    between atoms: N_3  and  C_5 
REMARK    3  A    between atoms: C_13  and  O_14 
REMARK    4  A    between atoms: C_20  and  C_21 
REMARK    5  A    between atoms: C_21  and  C_22 
ROOT
HETATM    1  C   UNL     1       7.860  14.686  24.850  0.00  0.00     0.066 C 
HETATM    2  C   UNL     1       8.466  15.104  26.039  0.00  0.00     0.083 C 
HETATM    3  C   UNL     1       9.855  15.090  26.196  0.00  0.00     0.069 C 
HETATM    4  C   UNL     1      10.617  14.517  25.176  0.00  0.00     0.065 A 
HETATM    5  N   UNL     1      11.962  14.303  25.082  0.00  0.00    -0.277 N 
HETATM    6  H   UNL     1      12.674  14.551  25.759  0.00  0.00     0.189 HD
HETATM    7  N   UNL     1      12.338  13.625  23.995  0.00  0.00    -0.178 NA
HETATM    8  C   UNL     1      11.190  13.380  23.338  0.00  0.00     0.071 A 
HETATM    9  C   UNL     1      10.070  13.968  24.020  0.00  0.00     0.020 A 
HETATM   10  C   UNL     1       8.669  14.067  23.855  0.00  0.00     0.035 C 
ENDROOT
BRANCH   1  11
HETATM   11  C   UNL     1       6.384  14.733  24.585  0.00  0.00     0.260 C 
HETATM   12  O   UNL     1       5.989  15.822  24.159  0.00  0.00    -0.267 OA
HETATM   13  N   UNL     1       5.523  13.623  24.831  0.00  0.00    -0.318 N 
HETATM   14  C   UNL     1       5.911  12.470  25.657  0.00  0.00     0.159 C 
BRANCH  13  15
HETATM   15  C   UNL     1       4.129  13.663  24.395  0.00  0.00     0.037 A 
HETATM   16  C   UNL     1       3.157  14.384  25.104  0.00  0.00     0.030 A 
HETATM   17  C   UNL     1       1.801  14.364  24.743  0.00  0.00     0.009 A 
HETATM   18  C   UNL     1       1.369  13.627  23.643  0.00  0.00    -0.062 A 
HETATM   19  C   UNL     1      -0.083  13.541  23.286  0.00  0.00     0.048 C 
HETATM   20  C   UNL     1       2.324  12.949  22.888  0.00  0.00     0.009 A 
HETATM   21  C   UNL     1       3.681  12.979  23.250  0.00  0.00     0.030 A 
ENDBRANCH  13  15
ENDBRANCH   1  11
BRANCH   2  22
HETATM   22  O   UNL     1       7.776  15.505  27.155  0.00  0.00    -0.360 OA
HETATM   23  H   UNL     1       7.864  14.817  27.839  0.00  0.00     0.217 HD
ENDBRANCH   2  22
BRANCH   8  24
HETATM   24  C   UNL     1      11.258  12.422  22.194  0.00  0.00     0.100 C 
BRANCH  24  25
HETATM   25  C   UNL     1      10.450  11.179  22.450  0.00  0.00    -0.052 A 
HETATM   26  C   UNL     1       9.097  11.172  22.086  0.00  0.00     0.014 A 
HETATM   27  C   UNL     1       8.226  10.186  22.560  0.00  0.00    -0.061 A 
HETATM   28  C   UNL     1       6.756  10.321  22.300  0.00  0.00     0.048 C 
HETATM   29  C   UNL     1       8.741   9.120  23.301  0.00  0.00     0.007 A 
HETATM   30  C   UNL     1      10.099   9.077  23.626  0.00  0.00     0.001 A 
HETATM   31  C   UNL     1      10.943  10.112  23.218  0.00  0.00     0.007 A 
ENDBRANCH  24  25
ENDBRANCH   8  24
TORSDOF 5
ENDMDL
MODEL 4
REMARK VINA RESULT:    -8.198      2.054      3.442
REMARK INTER + INTRA:         -11.278
REMARK INTER:                 -10.513
REMARK INTRA:                  -0.766
REMARK UNBOUND:                -0.923
REMARK  5 active torsions:
REMARK  status: ('A' for Active; 'I' for Inactive)
REMARK       I    between atoms: C_2  and  N_3 
REMARK    1  A    between atoms: C_2  and  C_12 
REMARK    2  A    between atoms: N_3  and  C_5 
REMARK    3  A    between atoms: C_13  and  O_14 
REMARK    4  A    between atoms: C_20  and  C_21 
REMARK    5  A    between atoms: C_21  and  C_22 
ROOT
HETATM    1  C   UNL     1       8.887  11.267  22.616  0.00  0.00     0.066 C 
HETATM    2  C   UNL     1       9.911  10.353  22.888  0.00  0.00     0.083 C 
HETATM    3  C   UNL     1      10.695  10.455  24.041  0.00  0.00     0.069 C 
HETATM    4  C   UNL     1      10.516  11.580  24.849  0.00  0.00     0.065 A 
HETATM    5  N   UNL     1      11.173  11.978  25.978  0.00  0.00    -0.277 N 
HETATM    6  H   UNL     1      11.925  11.497  26.456  0.00  0.00     0.189 HD
HETATM    7  N   UNL     1      10.804  13.178  26.436  0.00  0.00    -0.178 NA
HETATM    8  C   UNL     1       9.859  13.592  25.571  0.00  0.00     0.071 A 
HETATM    9  C   UNL     1       9.602  12.592  24.571  0.00  0.00     0.020 A 
HETATM   10  C   UNL     1       8.769  12.422  23.441  0.00  0.00     0.035 C 
ENDROOT
BRANCH   1  11
HETATM   11  C   UNL     1       7.964  11.184  21.437  0.00  0.00     0.260 C 
HETATM   12  O   UNL     1       8.293  11.909  20.493  0.00  0.00    -0.267 OA
HETATM   13  N   UNL     1       6.801  10.359  21.428  0.00  0.00    -0.318 N 
HETATM   14  C   UNL     1       6.213   9.782  22.647  0.00  0.00     0.159 C 
BRANCH  13  15
HETATM   15  C   UNL     1       6.033  10.182  20.198  0.00  0.00     0.037 A 
HETATM   16  C   UNL     1       5.944   8.936  19.559  0.00  0.00     0.030 A 
HETATM   17  C   UNL     1       5.278   8.771  18.334  0.00  0.00     0.009 A 
HETATM   18  C   UNL     1       4.660   9.851  17.710  0.00  0.00    -0.062 A 
HETATM   19  C   UNL     1       4.005   9.705  16.370  0.00  0.00     0.048 C 
HETATM   20  C   UNL     1       4.684  11.087  18.353  0.00  0.00     0.009 A 
HETATM   21  C   UNL     1       5.347  11.245  19.582  0.00  0.00     0.030 A 
ENDBRANCH  13  15
ENDBRANCH   1  11
BRANCH   2  22
HETATM   22  O   UNL     1      10.271   9.330  22.049  0.00  0.00    -0.360 OA
HETATM   23  H   UNL     1       9.471   8.828  21.809  0.00  0.00     0.217 HD
ENDBRANCH   2  22
BRANCH   8  24
HETATM   24  C   UNL     1       9.421  15.015  25.682  0.00  0.00     0.100 C 
BRANCH  24  25
HETATM   25  C   UNL     1       8.312  15.340  24.719  0.00  0.00    -0.052 A 
HETATM   26  C   UNL     1       6.987  15.153  25.133  0.00  0.00     0.014 A 
HETATM   27  C   UNL     1       5.936  15.143  24.212  0.00  0.00    -0.061 A 
HETATM   28  C   UNL     1       4.562  14.755  24.672  0.00  0.00     0.048 C 
HETATM   29  C   UNL     1       6.196  15.454  22.875  0.00  0.00     0.007 A 
HETATM   30  C   UNL     1       7.504  15.702  22.451  0.00  0.00     0.001 A 
HETATM   31  C   UNL     1       8.556  15.625  23.366  0.00  0.00     0.007 A 
ENDBRANCH  24  25
ENDBRANCH   8  24
TORSDOF 5
ENDMDL
MODEL 5
REMARK VINA RESULT:    -8.123      3.784      4.882
REMARK INTER + INTRA:         -11.183
REMARK INTER:                 -10.004
REMARK INTRA:                  -1.180
REMARK UNBOUND:                -0.923
REMARK  5 active torsions:
REMARK  status: ('A' for Active; 'I' for Inactive)
REMARK       I    between atoms: C_2  and  N_3 
REMARK    1  A    between atoms: C_2  and  C_12 
REMARK    2  A    between atoms: N_3  and  C_5 
REMARK    3  A    between atoms: C_13  and  O_14 
REMARK    4  A    between atoms: C_20  and  C_21 
REMARK    5  A    between atoms: C_21  and  C_22 
ROOT
HETATM    1  C   UNL     1      10.704  11.510  23.024  0.00  0.00     0.066 C 
HETATM    2  C   UNL     1      11.456  12.199  22.066  0.00  0.00     0.083 C 
HETATM    3  C   UNL     1      11.766  13.554  22.216  0.00  0.00     0.069 C 
HETATM    4  C   UNL     1      11.186  14.237  23.288  0.00  0.00     0.065 A 
HETATM    5  N   UNL     1      11.247  15.554  23.642  0.00  0.00    -0.277 N 
HETATM    6  H   UNL     1      11.762  16.293  23.179  0.00  0.00     0.189 HD
HETATM    7  N   UNL     1      10.473  15.882  24.679  0.00  0.00    -0.178 NA
HETATM    8  C   UNL     1       9.872  14.730  25.028  0.00  0.00     0.071 A 
HETATM    9  C   UNL     1      10.327  13.642  24.207  0.00  0.00     0.020 A 
HETATM   10  C   UNL     1      10.095  12.253  24.075  0.00  0.00     0.035 C 
ENDROOT
BRANCH   1  11
HETATM   11  C   UNL     1      10.388  10.044  22.964  0.00  0.00     0.260 C 
HETATM   12  O   UNL     1      11.386   9.318  22.979  0.00  0.00    -0.267 OA
HETATM   13  N   UNL     1       9.054   9.549  22.874  0.00  0.00    -0.318 N 
HETATM   14  C   UNL     1       7.906  10.390  22.501  0.00  0.00     0.159 C 
BRANCH  13  15
HETATM   15  C   UNL     1       8.791   8.117  22.993  0.00  0.00     0.037 A 
HETATM   16  C   UNL     1       8.833   7.462  24.233  0.00  0.00     0.030 A 
HETATM   17  C   UNL     1       8.663   6.073  24.350  0.00  0.00     0.009 A 
HETATM   18  C   UNL     1       8.428   5.289  23.223  0.00  0.00    -0.062 A 
HETATM   19  C   UNL     1       8.312   3.798  23.324  0.00  0.00     0.048 C 
HETATM   20  C   UNL     1       8.323   5.923  21.987  0.00  0.00     0.009 A 
HETATM   21  C   UNL     1       8.488   7.314  21.877  0.00  0.00     0.030 A 
ENDBRANCH  13  15
ENDBRANCH   1  11
BRANCH   2  22
HETATM   22  O   UNL     1      11.903  11.644  20.895  0.00  0.00    -0.360 OA
HETATM   23  H   UNL     1      11.243  11.813  20.198  0.00  0.00     0.217 HD
ENDBRANCH   2  22
BRANCH   8  24
HETATM   24  C   UNL     1       8.753  14.824  26.013  0.00  0.00     0.100 C 
BRANCH  24  25
HETATM   25  C   UNL     1       7.441  14.390  25.420  0.00  0.00    -0.052 A 
HETATM   26  C   UNL     1       6.672  15.335  24.728  0.00  0.00     0.014 A 
HETATM   27  C   UNL     1       5.330  15.089  24.420  0.00  0.00    -0.061 A 
HETATM   28  C   UNL     1       4.496  16.195  23.847  0.00  0.00     0.048 C 
HETATM   29  C   UNL     1       4.787  13.830  24.690  0.00  0.00     0.007 A 
HETATM   30  C   UNL     1       5.556  12.853  25.327  0.00  0.00     0.001 A 
HETATM   31  C   UNL     1       6.869  13.141  25.706  0.00  0.00     0.007 A 
ENDBRANCH  24  25
ENDBRANCH   8  24
TORSDOF 5
ENDMDL
MODEL 6
REMARK VINA RESULT:    -8.082      1.678      2.237
REMARK INTER + INTRA:         -11.131
REMARK INTER:                  -9.825
REMARK INTRA:                  -1.306
REMARK UNBOUND:                -0.923
REMARK  5 active torsions:
REMARK  status: ('A' for Active; 'I' for Inactive)
REMARK       I    between atoms: C_2  and  N_3 
REMARK    1  A    between atoms: C_2  and  C_12 
REMARK    2  A    between atoms: N_3  and  C_5 
REMARK    3  A    between atoms: C_13  and  O_14 
REMARK    4  A    between atoms: C_20  and  C_21 
REMARK    5  A    between atoms: C_21  and  C_22 
ROOT
HETATM    1  C   UNL     1       6.187  11.088  20.833  0.00  0.00     0.066 C 
HETATM    2  C   UNL     1       7.431  11.590  20.436  0.00  0.00     0.083 C 
HETATM    3  C   UNL     1       8.321  12.150  21.358  0.00  0.00     0.069 C 
HETATM    4  C   UNL     1       7.875  12.316  22.671  0.00  0.00     0.065 A 
HETATM    5  N   UNL     1       8.484  12.886  23.752  0.00  0.00    -0.277 N 
HETATM    6  H   UNL     1       9.413  13.287  23.796  0.00  0.00     0.189 HD
HETATM    7  N   UNL     1       7.712  12.969  24.839  0.00  0.00    -0.178 NA
HETATM    8  C   UNL     1       6.539  12.430  24.460  0.00  0.00     0.071 A 
HETATM    9  C   UNL     1       6.604  11.953  23.106  0.00  0.00     0.020 A 
HETATM   10  C   UNL     1       5.754  11.319  22.170  0.00  0.00     0.035 C 
ENDROOT
BRANCH   1  11
HETATM   11  C   UNL     1       5.209  10.415  19.915  0.00  0.00     0.260 C 
HETATM   12  O   UNL     1       4.295  11.152  19.535  0.00  0.00    -0.267 OA
HETATM   13  N   UNL     1       5.323   9.043  19.543  0.00  0.00    -0.318 N 
HETATM   14  C   UNL     1       6.180   8.084  20.256  0.00  0.00     0.159 C 
BRANCH  13  15
HETATM   15  C   UNL     1       4.449   8.485  18.515  0.00  0.00     0.037 A 
HETATM   16  C   UNL     1       3.507   7.489  18.812  0.00  0.00     0.030 A 
HETATM   17  C   UNL     1       2.718   6.886  17.819  0.00  0.00     0.009 A 
HETATM   18  C   UNL     1       2.835   7.274  16.486  0.00  0.00    -0.062 A 
HETATM   19  C   UNL     1       2.050   6.594  15.407  0.00  0.00     0.048 C 
HETATM   20  C   UNL     1       3.722   8.302  16.173  0.00  0.00     0.009 A 
HETATM   21  C   UNL     1       4.504   8.906  17.173  0.00  0.00     0.030 A 
ENDBRANCH  13  15
ENDBRANCH   1  11
BRANCH   2  22
HETATM   22  O   UNL     1       7.864  11.633  19.136  0.00  0.00    -0.360 OA
HETATM   23  H   UNL     1       7.500  10.864  18.661  0.00  0.00     0.217 HD
ENDBRANCH   2  22
BRANCH   8  24
HETATM   24  C   UNL     1       5.386  12.599  25.394  0.00  0.00     0.100 C 
BRANCH  24  25
HETATM   25  C   UNL     1       4.314  13.480  24.812  0.00  0.00    -0.052 A 
HETATM   26  C   UNL     1       3.099  12.898  24.433  0.00  0.00     0.014 A 
HETATM   27  C   UNL     1       2.190  13.584  23.622  0.00  0.00    -0.061 A 
HETATM   28  C   UNL     1       0.992  12.858  23.087  0.00  0.00     0.048 C 
HETATM   29  C   UNL     1       2.440  14.919  23.294  0.00  0.00     0.007 A 
HETATM   30  C   UNL     1       3.621  15.538  23.712  0.00  0.00     0.001 A 
HETATM   31  C   UNL     1       4.559  14.815  24.451  0.00  0.00     0.007 A 
ENDBRANCH  24  25
ENDBRANCH   8  24
TORSDOF 5
ENDMDL
MODEL 7
REMARK VINA RESULT:    -8.051      2.299      5.030
REMARK INTER + INTRA:         -11.092
REMARK INTER:                 -10.276
REMARK INTRA:                  -0.816
REMARK UNBOUND:                -0.923
REMARK  5 active torsions:
REMARK  status: ('A' for Active; 'I' for Inactive)
REMARK       I    between atoms: C_2  and  N_3 
REMARK    1  A    between atoms: C_2  and  C_12 
REMARK    2  A    between atoms: N_3  and  C_5 
REMARK    3  A    between atoms: C_13  and  O_14 
REMARK    4  A    between atoms: C_20  and  C_21 
REMARK    5  A    between atoms: C_21  and  C_22 
ROOT
HETATM    1  C   UNL     1       5.443  12.890  22.461  0.00  0.00     0.066 C 
HETATM    2  C   UNL     1       4.603  13.915  22.907  0.00  0.00     0.083 C 
HETATM    3  C   UNL     1       5.033  14.855  23.849  0.00  0.00     0.069 C 
HETATM    4  C   UNL     1       6.285  14.659  24.435  0.00  0.00     0.065 A 
HETATM    5  N   UNL     1       6.928  15.358  25.416  0.00  0.00    -0.277 N 
HETATM    6  H   UNL     1       6.601  16.188  25.897  0.00  0.00     0.189 HD
HETATM    7  N   UNL     1       8.084  14.818  25.810  0.00  0.00    -0.178 NA
HETATM    8  C   UNL     1       8.213  13.712  25.056  0.00  0.00     0.071 A 
HETATM    9  C   UNL     1       7.121  13.589  24.129  0.00  0.00     0.020 A 
HETATM   10  C   UNL     1       6.693  12.699  23.116  0.00  0.00     0.035 C 
ENDROOT
BRANCH   1  11
HETATM   11  C   UNL     1       5.076  11.887  21.407  0.00  0.00     0.260 C 
HETATM   12  O   UNL     1       3.991  11.333  21.602  0.00  0.00    -0.267 OA
HETATM   13  N   UNL     1       5.924  11.592  20.299  0.00  0.00    -0.318 N 
HETATM   14  C   UNL     1       7.344  11.970  20.248  0.00  0.00     0.159 C 
BRANCH  13  15
HETATM   15  C   UNL     1       5.445  10.739  19.213  0.00  0.00     0.037 A 
HETATM   16  C   UNL     1       4.555  11.217  18.240  0.00  0.00     0.030 A 
HETATM   17  C   UNL     1       4.024  10.386  17.241  0.00  0.00     0.009 A 
HETATM   18  C   UNL     1       4.383   9.042  17.170  0.00  0.00    -0.062 A 
HETATM   19  C   UNL     1       3.774   8.127  16.152  0.00  0.00     0.048 C 
HETATM   20  C   UNL     1       5.311   8.557  18.089  0.00  0.00     0.009 A 
HETATM   21  C   UNL     1       5.843   9.395  19.084  0.00  0.00     0.030 A 
ENDBRANCH  13  15
ENDBRANCH   1  11
BRANCH   2  22
HETATM   22  O   UNL     1       3.296  14.063  22.517  0.00  0.00    -0.360 OA
HETATM   23  H   UNL     1       2.720  13.822  23.265  0.00  0.00     0.217 HD
ENDBRANCH   2  22
BRANCH   8  24
HETATM   24  C   UNL     1       9.298  12.758  25.436  0.00  0.00     0.100 C 
BRANCH  24  25
HETATM   25  C   UNL     1       9.585  11.766  24.343  0.00  0.00    -0.052 A 
HETATM   26  C   UNL     1       9.116  10.454  24.486  0.00  0.00     0.014 A 
HETATM   27  C   UNL     1       9.596   9.422  23.674  0.00  0.00    -0.061 A 
HETATM   28  C   UNL     1       9.209   8.007  23.983  0.00  0.00     0.048 C 
HETATM   29  C   UNL     1      10.458   9.728  22.619  0.00  0.00     0.007 A 
HETATM   30  C   UNL     1      10.893  11.041  22.421  0.00  0.00     0.001 A 
HETATM   31  C   UNL     1      10.473  12.049  23.292  0.00  0.00     0.007 A 
ENDBRANCH  24  25
ENDBRANCH   8  24
TORSDOF 5
ENDMDL
MODEL 8
REMARK VINA RESULT:    -8.025      2.149      5.214
REMARK INTER + INTRA:         -11.060
REMARK INTER:                 -10.136
REMARK INTRA:                  -0.923
REMARK UNBOUND:                -0.923
REMARK  5 active torsions:
REMARK  status: ('A' for Active; 'I' for Inactive)
REMARK       I    between atoms: C_2  and  N_3 
REMARK    1  A    between atoms: C_2  and  C_12 
REMARK    2  A    between atoms: N_3  and  C_5 
REMARK    3  A    between atoms: C_13  and  O_14 
REMARK    4  A    between atoms: C_20  and  C_21 
REMARK    5  A    between atoms: C_21  and  C_22 
ROOT
HETATM    1  C   UNL     1       5.297  12.844  22.424  0.00  0.00     0.066 C 
HETATM    2  C   UNL     1       4.394  13.816  22.867  0.00  0.00     0.083 C 
HETATM    3  C   UNL     1       4.759  14.774  23.818  0.00  0.00     0.069 C 
HETATM    4  C   UNL     1       6.016  14.648  24.415  0.00  0.00     0.065 A 
HETATM    5  N   UNL     1       6.606  15.378  25.406  0.00  0.00    -0.277 N 
HETATM    6  H   UNL     1       6.227  16.185  25.888  0.00  0.00     0.189 HD
HETATM    7  N   UNL     1       7.788  14.905  25.810  0.00  0.00    -0.178 NA
HETATM    8  C   UNL     1       7.989  13.812  25.051  0.00  0.00     0.071 A 
HETATM    9  C   UNL     1       6.915  13.631  24.113  0.00  0.00     0.020 A 
HETATM   10  C   UNL     1       6.550  12.723  23.091  0.00  0.00     0.035 C 
ENDROOT
BRANCH   1  11
HETATM   11  C   UNL     1       4.999  11.827  21.362  0.00  0.00     0.260 C 
HETATM   12  O   UNL     1       3.931  11.232  21.527  0.00  0.00    -0.267 OA
HETATM   13  N   UNL     1       5.890  11.565  20.279  0.00  0.00    -0.318 N 
HETATM   14  C   UNL     1       7.295  11.998  20.268  0.00  0.00     0.159 C 
BRANCH  13  15
HETATM   15  C   UNL     1       5.476  10.694  19.181  0.00  0.00     0.037 A 
HETATM   16  C   UNL     1       4.620  11.146  18.166  0.00  0.00     0.030 A 
HETATM   17  C   UNL     1       4.150  10.296  17.152  0.00  0.00     0.009 A 
HETATM   18  C   UNL     1       4.537   8.959  17.110  0.00  0.00    -0.062 A 
HETATM   19  C   UNL     1       3.991   8.024  16.074  0.00  0.00     0.048 C 
HETATM   20  C   UNL     1       5.433   8.500  18.073  0.00  0.00     0.009 A 
HETATM   21  C   UNL     1       5.905   9.357  19.082  0.00  0.00     0.030 A 
ENDBRANCH  13  15
ENDBRANCH   1  11
BRANCH   2  22
HETATM   22  O   UNL     1       3.085  13.890  22.465  0.00  0.00    -0.360 OA
HETATM   23  H   UNL     1       2.571  14.338  23.161  0.00  0.00     0.217 HD
ENDBRANCH   2  22
BRANCH   8  24
HETATM   24  C   UNL     1       9.124  12.921  25.437  0.00  0.00     0.100 C 
BRANCH  24  25
HETATM   25  C   UNL     1      10.142  12.795  24.336  0.00  0.00    -0.052 A 
HETATM   26  C   UNL     1      11.013  13.865  24.101  0.00  0.00     0.014 A 
HETATM   27  C   UNL     1      11.765  13.941  22.925  0.00  0.00    -0.061 A 
HETATM   28  C   UNL     1      12.540  15.190  22.630  0.00  0.00     0.048 C 
HETATM   29  C   UNL     1      11.744  12.868  22.031  0.00  0.00     0.007 A 
HETATM   30  C   UNL     1      10.925  11.762  22.276  0.00  0.00     0.001 A 
HETATM   31  C   UNL     1      10.115  11.738  23.413  0.00  0.00     0.007 A 
ENDBRANCH  24  25
ENDBRANCH   8  24
TORSDOF 5
ENDMDL
MODEL 9
REMARK VINA RESULT:    -7.961      4.353      6.190
REMARK INTER + INTRA:         -10.978
REMARK INTER:                  -9.733
REMARK INTRA:                  -1.245
REMARK UNBOUND:                -0.923
REMARK  5 active torsions:
REMARK  status: ('A' for Active; 'I' for Inactive)
REMARK       I    between atoms: C_2  and  N_3 
REMARK    1  A    between atoms: C_2  and  C_12 
REMARK    2  A    between atoms: N_3  and  C_5 
REMARK    3  A    between atoms: C_13  and  O_14 
REMARK    4  A    between atoms: C_20  and  C_21 
REMARK    5  A    between atoms: C_21  and  C_22 
ROOT
HETATM    1  C   UNL     1       4.932   9.213  22.910  0.00  0.00     0.066 C 
HETATM    2  C   UNL     1       5.132   9.079  21.532  0.00  0.00     0.083 C 
HETATM    3  C   UNL     1       6.184   9.727  20.879  0.00  0.00     0.069 C 
HETATM    4  C   UNL     1       6.954  10.625  21.623  0.00  0.00     0.065 A 
HETATM    5  N   UNL     1       7.982  11.439  21.246  0.00  0.00    -0.277 N 
HETATM    6  H   UNL     1       8.397  11.524  20.326  0.00  0.00     0.189 HD
HETATM    7  N   UNL     1       8.421  12.254  22.210  0.00  0.00    -0.178 NA
HETATM    8  C   UNL     1       7.648  11.964  23.272  0.00  0.00     0.071 A 
HETATM    9  C   UNL     1       6.731  10.901  22.969  0.00  0.00     0.020 A 
HETATM   10  C   UNL     1       5.709  10.171  23.621  0.00  0.00     0.035 C 
ENDROOT
BRANCH   1  11
HETATM   11  C   UNL     1       3.867   8.498  23.689  0.00  0.00     0.260 C 
HETATM   12  O   UNL     1       3.983   7.269  23.680  0.00  0.00    -0.267 OA
HETATM   13  N   UNL     1       2.810   9.186  24.354  0.00  0.00    -0.318 N 
HETATM   14  C   UNL     1       2.463  10.589  24.080  0.00  0.00     0.159 C 
BRANCH  13  15
HETATM   15  C   UNL     1       1.902   8.460  25.239  0.00  0.00     0.037 A 
HETATM   16  C   UNL     1       0.644   8.019  24.801  0.00  0.00     0.030 A 
HETATM   17  C   UNL     1      -0.270   7.394  25.663  0.00  0.00     0.009 A 
HETATM   18  C   UNL     1       0.052   7.171  27.000  0.00  0.00    -0.062 A 
HETATM   19  C   UNL     1      -0.938   6.566  27.948  0.00  0.00     0.048 C 
HETATM   20  C   UNL     1       1.318   7.546  27.445  0.00  0.00     0.009 A 
HETATM   21  C   UNL     1       2.231   8.166  26.575  0.00  0.00     0.030 A 
ENDBRANCH  13  15
ENDBRANCH   1  11
BRANCH   2  22
HETATM   22  O   UNL     1       4.307   8.364  20.702  0.00  0.00    -0.360 OA
HETATM   23  H   UNL     1       3.403   8.721  20.778  0.00  0.00     0.217 HD
ENDBRANCH   2  22
BRANCH   8  24
HETATM   24  C   UNL     1       7.739  12.887  24.443  0.00  0.00     0.100 C 
BRANCH  24  25
HETATM   25  C   UNL     1       6.725  13.995  24.368  0.00  0.00    -0.052 A 
HETATM   26  C   UNL     1       5.440  13.765  24.875  0.00  0.00     0.014 A 
HETATM   27  C   UNL     1       4.378  14.623  24.571  0.00  0.00    -0.061 A 
HETATM   28  C   UNL     1       2.987  14.239  24.978  0.00  0.00     0.048 C 
HETATM   29  C   UNL     1       4.632  15.798  23.859  0.00  0.00     0.007 A 
HETATM   30  C   UNL     1       5.920  16.076  23.395  0.00  0.00     0.001 A 
HETATM   31  C   UNL     1       6.955  15.169  23.632  0.00  0.00     0.007 A 
ENDBRANCH  24  25
ENDBRANCH   8  24
TORSDOF 5
ENDMDL
