REMARK  7 active torsions:
REMARK  status: ('A' for Active; 'I' for Inactive)
REMARK    1  A    between atoms: C_6  and  C_7 
REMARK    2  A    between atoms: C_7  and  N_8 
REMARK       I    between atoms: N_8  and  C_10 
REMARK    3  A    between atoms: C_10  and  C_12 
REMARK    4  A    between atoms: C_14  and  C_15 
REMARK    5  A    between atoms: N_21  and  C_22 
REMARK    6  A    between atoms: C_29  and  O_30 
REMARK    7  A    between atoms: C_32  and  O_33 
ROOT
HETATM    1  C   UNL     1       3.733  -6.192  -0.644  0.00  0.00     0.066 C 
HETATM    2  C   UNL     1       4.262  -7.505  -0.665  0.00  0.00     0.038 C 
HETATM    3  C   UNL     1       3.445  -8.610  -0.968  0.00  0.00     0.046 C 
HETATM    4  C   UNL     1       2.134  -8.372  -1.400  0.00  0.00     0.082 C 
HETATM    5  C   UNL     1       1.581  -7.104  -1.310  0.00  0.00     0.075 C 
HETATM    6  C   UNL     1       2.353  -6.044  -0.838  0.00  0.00     0.084 C 
ENDROOT
BRANCH   3   7
HETATM    7  C   UNL     1       3.878 -10.028  -0.836  0.00  0.00     0.172 A 
HETATM    8  N   UNL     1       3.425 -10.929  -1.673  0.00  0.00    -0.151 NA
HETATM    9  N   UNL     1       3.970 -12.097  -1.237  0.00  0.00    -0.226 N 
HETATM   10  H   UNL     1       3.715 -12.999  -1.615  0.00  0.00     0.194 HD
HETATM   11  C   UNL     1       4.706 -11.904  -0.060  0.00  0.00     0.349 A 
HETATM   12  O   UNL     1       5.140 -12.815   0.614  0.00  0.00    -0.245 OA
HETATM   13  N   UNL     1       4.700 -10.533   0.145  0.00  0.00    -0.244 N 
BRANCH  13  14
HETATM   14  C   UNL     1       5.233  -9.924   1.299  0.00  0.00     0.051 A 
HETATM   15  C   UNL     1       4.425  -9.087   2.086  0.00  0.00     0.031 A 
HETATM   16  C   UNL     1       4.967  -8.357   3.149  0.00  0.00     0.002 A 
HETATM   17  C   UNL     1       6.327  -8.437   3.421  0.00  0.00     0.001 A 
HETATM   18  C   UNL     1       7.128  -9.311   2.693  0.00  0.00     0.009 A 
HETATM   19  C   UNL     1       6.590 -10.091   1.653  0.00  0.00    -0.035 A 
HETATM   20  C   UNL     1       7.509 -11.084   0.990  0.00  0.00     0.050 C 
ENDBRANCH  13  14
ENDBRANCH   3   7
BRANCH   4  21
HETATM   21  O   UNL     1       1.300  -9.346  -1.879  0.00  0.00    -0.360 OA
HETATM   22  H   UNL     1       1.834 -10.156  -2.042  0.00  0.00     0.217 HD
ENDBRANCH   4  21
BRANCH   1  23
HETATM   23  C   UNL     1       4.678  -5.069  -0.319  0.00  0.00     0.256 C 
HETATM   24  N   UNL     1       4.635  -3.828  -0.983  0.00  0.00    -0.348 N 
HETATM   25  C   UNL     1       3.603  -3.410  -1.917  0.00  0.00     0.153 C 
HETATM   26  O   UNL     1       5.542  -5.318   0.528  0.00  0.00    -0.267 OA
BRANCH  24  27
HETATM   27  C   UNL     1       5.528  -2.760  -0.536  0.00  0.00     0.164 C 
BRANCH  27  28
HETATM   28  C   UNL     1       6.790  -2.576  -1.357  0.00  0.00    -0.040 A 
HETATM   29  C   UNL     1       6.939  -1.519  -2.271  0.00  0.00     0.009 A 
HETATM   30  C   UNL     1       8.189  -1.237  -2.833  0.00  0.00     0.001 A 
HETATM   31  C   UNL     1       9.309  -1.983  -2.462  0.00  0.00     0.007 A 
HETATM   32  C   UNL     1       9.172  -3.052  -1.571  0.00  0.00    -0.061 A 
HETATM   33  C   UNL     1      10.370  -3.752  -1.000  0.00  0.00     0.048 C 
HETATM   34  C   UNL     1       7.903  -3.377  -1.074  0.00  0.00     0.015 A 
ENDBRANCH  27  28
ENDBRANCH  24  27
ENDBRANCH   1  23
BRANCH   6  35
HETATM   35  O   UNL     1       1.702  -4.890  -0.507  0.00  0.00    -0.360 OA
HETATM   36  H   UNL     1       0.742  -5.044  -0.532  0.00  0.00     0.217 HD
ENDBRANCH   6  35
TORSDOF 7
