MODEL 1
REMARK VINA RESULT:    -8.592      0.000      0.000
REMARK INTER + INTRA:         -13.496
REMARK INTER:                 -10.555
REMARK INTRA:                  -2.941
REMARK UNBOUND:                -1.889
REMARK  7 active torsions:
REMARK  status: ('A' for Active; 'I' for Inactive)
REMARK    1  A    between atoms: C_7  and  C_8 
REMARK    2  A    between atoms: C_8  and  N_9 
REMARK       I    between atoms: N_9  and  C_11 
REMARK    3  A    between atoms: C_11  and  C_13 
REMARK    4  A    between atoms: C_15  and  C_16 
REMARK    5  A    between atoms: N_22  and  C_23 
REMARK    6  A    between atoms: C_30  and  O_31 
REMARK    7  A    between atoms: C_33  and  O_34 
ROOT
HETATM    1  C   UNL     1       2.143   5.671  17.261  0.00  0.00     0.066 C 
HETATM    2  C   UNL     1       3.295   5.839  18.063  0.00  0.00     0.038 C 
HETATM    3  C   UNL     1       3.678   7.116  18.512  0.00  0.00     0.046 C 
HETATM    4  C   UNL     1       2.798   8.187  18.304  0.00  0.00     0.082 C 
HETATM    5  C   UNL     1       1.709   8.047  17.460  0.00  0.00     0.075 C 
HETATM    6  C   UNL     1       1.411   6.813  16.892  0.00  0.00     0.084 C 
ENDROOT
BRANCH   3   7
HETATM    7  C   UNL     1       4.980   7.437  19.159  0.00  0.00     0.172 C 
HETATM    8  N   UNL     1       5.833   8.237  18.565  0.00  0.00    -0.151 NA
HETATM    9  N   UNL     1       6.938   8.207  19.360  0.00  0.00    -0.226 N 
HETATM   10  H   UNL     1       7.834   8.575  19.066  0.00  0.00     0.194 HD
HETATM   11  C   UNL     1       6.772   7.294  20.401  0.00  0.00     0.349 C 
HETATM   12  O   UNL     1       7.680   6.897  21.113  0.00  0.00    -0.245 OA
HETATM   13  N   UNL     1       5.447   6.892  20.329  0.00  0.00    -0.244 N 
BRANCH  13  14
HETATM   14  C   UNL     1       4.908   5.881  21.150  0.00  0.00     0.051 A 
HETATM   15  C   UNL     1       5.173   4.532  20.853  0.00  0.00     0.031 A 
HETATM   16  C   UNL     1       4.547   3.498  21.555  0.00  0.00     0.002 A 
HETATM   17  C   UNL     1       3.642   3.795  22.563  0.00  0.00     0.001 A 
HETATM   18  C   UNL     1       3.423   5.127  22.918  0.00  0.00     0.009 A 
HETATM   19  C   UNL     1       4.075   6.183  22.251  0.00  0.00    -0.035 A 
HETATM   20  C   UNL     1       3.746   7.568  22.741  0.00  0.00     0.050 C 
ENDBRANCH  13  14
ENDBRANCH   3   7
BRANCH   4  21
HETATM   21  O   UNL     1       2.933   9.410  18.904  0.00  0.00    -0.360 OA
HETATM   22  H   UNL     1       2.667   9.316  19.848  0.00  0.00     0.217 HD
ENDBRANCH   4  21
BRANCH   1  23
HETATM   23  C   UNL     1       1.608   4.282  17.094  0.00  0.00     0.256 C 
HETATM   24  N   UNL     1       1.113   3.523  18.156  0.00  0.00    -0.348 N 
HETATM   25  C   UNL     1       0.945   4.028  19.508  0.00  0.00     0.153 C 
HETATM   26  O   UNL     1       1.654   3.845  15.943  0.00  0.00    -0.267 OA
BRANCH  24  27
HETATM   27  C   UNL     1       1.060   2.065  18.000  0.00  0.00     0.164 C 
BRANCH  27  28
HETATM   28  C   UNL     1       1.950   1.162  18.852  0.00  0.00    -0.034 A 
HETATM   29  C   UNL     1       3.359   1.151  18.906  0.00  0.00    -0.054 A 
HETATM   30  C   UNL     1       4.234   1.978  18.008  0.00  0.00     0.049 C 
HETATM   31  C   UNL     1       4.011   0.338  19.863  0.00  0.00     0.007 A 
HETATM   32  C   UNL     1       3.301  -0.466  20.752  0.00  0.00     0.001 A 
HETATM   33  C   UNL     1       1.917  -0.475  20.702  0.00  0.00     0.001 A 
HETATM   34  C   UNL     1       1.254   0.333  19.772  0.00  0.00     0.009 A 
ENDBRANCH  27  28
ENDBRANCH  24  27
ENDBRANCH   1  23
BRANCH   6  35
HETATM   35  O   UNL     1       0.374   6.762  16.005  0.00  0.00    -0.360 OA
HETATM   36  H   UNL     1      -0.234   7.496  16.225  0.00  0.00     0.217 HD
ENDBRANCH   6  35
TORSDOF 7
ENDMDL
MODEL 2
REMARK VINA RESULT:    -8.535      4.181      8.250
REMARK INTER + INTRA:         -13.418
REMARK INTER:                 -11.798
REMARK INTRA:                  -1.620
REMARK UNBOUND:                -1.889
REMARK  7 active torsions:
REMARK  status: ('A' for Active; 'I' for Inactive)
REMARK    1  A    between atoms: C_7  and  C_8 
REMARK    2  A    between atoms: C_8  and  N_9 
REMARK       I    between atoms: N_9  and  C_11 
REMARK    3  A    between atoms: C_11  and  C_13 
REMARK    4  A    between atoms: C_15  and  C_16 
REMARK    5  A    between atoms: N_22  and  C_23 
REMARK    6  A    between atoms: C_30  and  O_31 
REMARK    7  A    between atoms: C_33  and  O_34 
ROOT
HETATM    1  C   UNL     1       3.398   7.965  24.293  0.00  0.00     0.066 C 
HETATM    2  C   UNL     1       3.685   7.826  22.914  0.00  0.00     0.038 C 
HETATM    3  C   UNL     1       4.711   6.970  22.477  0.00  0.00     0.046 C 
HETATM    4  C   UNL     1       5.319   6.123  23.414  0.00  0.00     0.082 C 
HETATM    5  C   UNL     1       5.098   6.304  24.770  0.00  0.00     0.075 C 
HETATM    6  C   UNL     1       4.189   7.257  25.215  0.00  0.00     0.084 C 
ENDROOT
BRANCH   3   7
HETATM    7  C   UNL     1       5.246   6.920  21.087  0.00  0.00     0.172 C 
HETATM    8  N   UNL     1       6.298   7.632  20.759  0.00  0.00    -0.151 NA
HETATM    9  N   UNL     1       6.428   7.446  19.417  0.00  0.00    -0.226 N 
HETATM   10  H   UNL     1       7.035   8.017  18.842  0.00  0.00     0.194 HD
HETATM   11  C   UNL     1       5.372   6.685  18.919  0.00  0.00     0.349 C 
HETATM   12  O   UNL     1       5.112   6.569  17.733  0.00  0.00    -0.245 OA
HETATM   13  N   UNL     1       4.677   6.246  20.036  0.00  0.00    -0.244 N 
BRANCH  13  14
HETATM   14  C   UNL     1       3.466   5.529  19.953  0.00  0.00     0.051 A 
HETATM   15  C   UNL     1       2.302   6.184  19.514  0.00  0.00     0.031 A 
HETATM   16  C   UNL     1       1.057   5.551  19.549  0.00  0.00     0.002 A 
HETATM   17  C   UNL     1       0.953   4.253  20.027  0.00  0.00     0.001 A 
HETATM   18  C   UNL     1       2.109   3.564  20.398  0.00  0.00     0.009 A 
HETATM   19  C   UNL     1       3.380   4.170  20.331  0.00  0.00    -0.035 A 
HETATM   20  C   UNL     1       4.539   3.308  20.758  0.00  0.00     0.050 C 
ENDBRANCH  13  14
ENDBRANCH   3   7
BRANCH   4  21
HETATM   21  O   UNL     1       6.140   5.081  23.078  0.00  0.00    -0.360 OA
HETATM   22  H   UNL     1       5.906   4.792  22.167  0.00  0.00     0.217 HD
ENDBRANCH   4  21
BRANCH   1  23
HETATM   23  C   UNL     1       2.106   8.618  24.672  0.00  0.00     0.256 C 
HETATM   24  N   UNL     1       1.954  10.001  24.782  0.00  0.00    -0.348 N 
HETATM   25  C   UNL     1       2.983  10.964  24.425  0.00  0.00     0.153 C 
HETATM   26  O   UNL     1       1.180   7.838  24.902  0.00  0.00    -0.267 OA
BRANCH  24  27
HETATM   27  C   UNL     1       0.843  10.514  25.591  0.00  0.00     0.164 C 
BRANCH  27  28
HETATM   28  C   UNL     1      -0.337  11.220  24.928  0.00  0.00    -0.034 A 
HETATM   29  C   UNL     1      -0.347  12.497  24.331  0.00  0.00    -0.054 A 
HETATM   30  C   UNL     1       0.819  13.442  24.366  0.00  0.00     0.049 C 
HETATM   31  C   UNL     1      -1.502  12.931  23.637  0.00  0.00     0.007 A 
HETATM   32  C   UNL     1      -2.641  12.136  23.535  0.00  0.00     0.001 A 
HETATM   33  C   UNL     1      -2.651  10.884  24.128  0.00  0.00     0.001 A 
HETATM   34  C   UNL     1      -1.514  10.433  24.805  0.00  0.00     0.009 A 
ENDBRANCH  27  28
ENDBRANCH  24  27
ENDBRANCH   1  23
BRANCH   6  35
HETATM   35  O   UNL     1       4.080   7.441  26.563  0.00  0.00    -0.360 OA
HETATM   36  H   UNL     1       4.827   8.006  26.843  0.00  0.00     0.217 HD
ENDBRANCH   6  35
TORSDOF 7
ENDMDL
MODEL 3
REMARK VINA RESULT:    -8.129      1.719      2.609
REMARK INTER + INTRA:         -12.869
REMARK INTER:                 -10.874
REMARK INTRA:                  -1.995
REMARK UNBOUND:                -1.889
REMARK  7 active torsions:
REMARK  status: ('A' for Active; 'I' for Inactive)
REMARK    1  A    between atoms: C_7  and  C_8 
REMARK    2  A    between atoms: C_8  and  N_9 
REMARK       I    between atoms: N_9  and  C_11 
REMARK    3  A    between atoms: C_11  and  C_13 
REMARK    4  A    between atoms: C_15  and  C_16 
REMARK    5  A    between atoms: N_22  and  C_23 
REMARK    6  A    between atoms: C_30  and  O_31 
REMARK    7  A    between atoms: C_33  and  O_34 
ROOT
HETATM    1  C   UNL     1       2.003   5.725  17.421  0.00  0.00     0.066 C 
HETATM    2  C   UNL     1       3.174   5.874  18.200  0.00  0.00     0.038 C 
HETATM    3  C   UNL     1       3.614   7.149  18.600  0.00  0.00     0.046 C 
HETATM    4  C   UNL     1       2.773   8.247  18.370  0.00  0.00     0.082 C 
HETATM    5  C   UNL     1       1.666   8.122  17.546  0.00  0.00     0.075 C 
HETATM    6  C   UNL     1       1.311   6.883  17.024  0.00  0.00     0.084 C 
ENDROOT
BRANCH   3   7
HETATM    7  C   UNL     1       4.938   7.439  19.218  0.00  0.00     0.172 C 
HETATM    8  N   UNL     1       5.831   8.143  18.563  0.00  0.00    -0.151 NA
HETATM    9  N   UNL     1       6.938   8.106  19.355  0.00  0.00    -0.226 N 
HETATM   10  H   UNL     1       7.852   8.398  19.031  0.00  0.00     0.194 HD
HETATM   11  C   UNL     1       6.728   7.282  20.460  0.00  0.00     0.349 C 
HETATM   12  O   UNL     1       7.617   6.885  21.195  0.00  0.00    -0.245 OA
HETATM   13  N   UNL     1       5.382   6.954  20.422  0.00  0.00    -0.244 N 
BRANCH  13  14
HETATM   14  C   UNL     1       4.791   6.039  21.317  0.00  0.00     0.051 A 
HETATM   15  C   UNL     1       4.990   4.660  21.129  0.00  0.00     0.031 A 
HETATM   16  C   UNL     1       4.312   3.716  21.906  0.00  0.00     0.002 A 
HETATM   17  C   UNL     1       3.420   4.135  22.881  0.00  0.00     0.001 A 
HETATM   18  C   UNL     1       3.267   5.500  23.129  0.00  0.00     0.009 A 
HETATM   19  C   UNL     1       3.972   6.467  22.385  0.00  0.00    -0.035 A 
HETATM   20  C   UNL     1       3.711   7.901  22.763  0.00  0.00     0.050 C 
ENDBRANCH  13  14
ENDBRANCH   3   7
BRANCH   4  21
HETATM   21  O   UNL     1       2.966   9.482  18.926  0.00  0.00    -0.360 OA
HETATM   22  H   UNL     1       2.554   9.479  19.821  0.00  0.00     0.217 HD
ENDBRANCH   4  21
BRANCH   1  23
HETATM   23  C   UNL     1       1.412   4.354  17.309  0.00  0.00     0.256 C 
HETATM   24  N   UNL     1       0.490   3.845  18.224  0.00  0.00    -0.348 N 
HETATM   25  C   UNL     1      -0.092   4.617  19.309  0.00  0.00     0.153 C 
HETATM   26  O   UNL     1       1.816   3.693  16.351  0.00  0.00    -0.267 OA
BRANCH  24  27
HETATM   27  C   UNL     1       0.334   2.389  18.313  0.00  0.00     0.164 C 
BRANCH  27  28
HETATM   28  C   UNL     1      -1.051   1.751  18.224  0.00  0.00    -0.034 A 
HETATM   29  C   UNL     1      -1.844   1.582  17.071  0.00  0.00    -0.054 A 
HETATM   30  C   UNL     1      -1.481   2.133  15.722  0.00  0.00     0.049 C 
HETATM   31  C   UNL     1      -3.045   0.839  17.156  0.00  0.00     0.007 A 
HETATM   32  C   UNL     1      -3.479   0.277  18.355  0.00  0.00     0.001 A 
HETATM   33  C   UNL     1      -2.717   0.446  19.499  0.00  0.00     0.001 A 
HETATM   34  C   UNL     1      -1.519   1.165  19.430  0.00  0.00     0.009 A 
ENDBRANCH  27  28
ENDBRANCH  24  27
ENDBRANCH   1  23
BRANCH   6  35
HETATM   35  O   UNL     1       0.259   6.844  16.155  0.00  0.00    -0.360 OA
HETATM   36  H   UNL     1       0.259   7.687  15.659  0.00  0.00     0.217 HD
ENDBRANCH   6  35
TORSDOF 7
ENDMDL
MODEL 4
REMARK VINA RESULT:    -8.102      6.868     10.028
REMARK INTER + INTRA:         -12.833
REMARK INTER:                 -10.824
REMARK INTRA:                  -2.010
REMARK UNBOUND:                -1.889
REMARK  7 active torsions:
REMARK  status: ('A' for Active; 'I' for Inactive)
REMARK    1  A    between atoms: C_7  and  C_8 
REMARK    2  A    between atoms: C_8  and  N_9 
REMARK       I    between atoms: N_9  and  C_11 
REMARK    3  A    between atoms: C_11  and  C_13 
REMARK    4  A    between atoms: C_15  and  C_16 
REMARK    5  A    between atoms: N_22  and  C_23 
REMARK    6  A    between atoms: C_30  and  O_31 
REMARK    7  A    between atoms: C_33  and  O_34 
ROOT
HETATM    1  C   UNL     1       0.050   8.212  28.491  0.00  0.00     0.066 C 
HETATM    2  C   UNL     1      -0.297   8.791  27.247  0.00  0.00     0.038 C 
HETATM    3  C   UNL     1      -0.950  10.035  27.191  0.00  0.00     0.046 C 
HETATM    4  C   UNL     1      -1.084  10.772  28.376  0.00  0.00     0.082 C 
HETATM    5  C   UNL     1      -0.816  10.184  29.602  0.00  0.00     0.075 C 
HETATM    6  C   UNL     1      -0.307   8.892  29.669  0.00  0.00     0.084 C 
ENDROOT
BRANCH   3   7
HETATM    7  C   UNL     1      -1.560  10.623  25.967  0.00  0.00     0.172 C 
HETATM    8  N   UNL     1      -2.865  10.656  25.829  0.00  0.00    -0.151 NA
HETATM    9  N   UNL     1      -3.062  11.133  24.570  0.00  0.00    -0.226 N 
HETATM   10  H   UNL     1      -3.959  11.092  24.103  0.00  0.00     0.194 HD
HETATM   11  C   UNL     1      -1.846  11.297  23.908  0.00  0.00     0.349 C 
HETATM   12  O   UNL     1      -1.740  11.481  22.706  0.00  0.00    -0.245 OA
HETATM   13  N   UNL     1      -0.872  11.080  24.871  0.00  0.00    -0.244 N 
BRANCH  13  14
HETATM   14  C   UNL     1       0.506  11.047  24.573  0.00  0.00     0.051 A 
HETATM   15  C   UNL     1       1.174   9.811  24.523  0.00  0.00     0.031 A 
HETATM   16  C   UNL     1       2.562   9.742  24.369  0.00  0.00     0.002 A 
HETATM   17  C   UNL     1       3.305  10.908  24.269  0.00  0.00     0.001 A 
HETATM   18  C   UNL     1       2.650  12.140  24.244  0.00  0.00     0.009 A 
HETATM   19  C   UNL     1       1.247  12.229  24.355  0.00  0.00    -0.035 A 
HETATM   20  C   UNL     1       0.675  13.622  24.310  0.00  0.00     0.050 C 
ENDBRANCH  13  14
ENDBRANCH   3   7
BRANCH   4  21
HETATM   21  O   UNL     1      -1.467  12.086  28.416  0.00  0.00    -0.360 OA
HETATM   22  H   UNL     1      -0.853  12.598  27.842  0.00  0.00     0.217 HD
ENDBRANCH   4  21
BRANCH   1  23
HETATM   23  C   UNL     1       1.020   7.072  28.481  0.00  0.00     0.256 C 
HETATM   24  N   UNL     1       2.403   7.247  28.540  0.00  0.00    -0.348 N 
HETATM   25  C   UNL     1       3.053   8.531  28.742  0.00  0.00     0.153 C 
HETATM   26  O   UNL     1       0.505   5.956  28.395  0.00  0.00    -0.267 OA
BRANCH  24  27
HETATM   27  C   UNL     1       3.261   6.158  28.059  0.00  0.00     0.164 C 
BRANCH  27  28
HETATM   28  C   UNL     1       3.535   5.989  26.567  0.00  0.00    -0.034 A 
HETATM   29  C   UNL     1       2.907   5.094  25.675  0.00  0.00    -0.054 A 
HETATM   30  C   UNL     1       1.920   4.047  26.104  0.00  0.00     0.049 C 
HETATM   31  C   UNL     1       3.192   5.178  24.292  0.00  0.00     0.007 A 
HETATM   32  C   UNL     1       4.088   6.113  23.780  0.00  0.00     0.001 A 
HETATM   33  C   UNL     1       4.722   6.990  24.645  0.00  0.00     0.001 A 
HETATM   34  C   UNL     1       4.442   6.932  26.014  0.00  0.00     0.009 A 
ENDBRANCH  27  28
ENDBRANCH  24  27
ENDBRANCH   1  23
BRANCH   6  35
HETATM   35  O   UNL     1      -0.143   8.343  30.907  0.00  0.00    -0.360 OA
HETATM   36  H   UNL     1       0.818   8.236  31.054  0.00  0.00     0.217 HD
ENDBRANCH   6  35
TORSDOF 7
ENDMDL
MODEL 5
REMARK VINA RESULT:    -8.080      4.135      8.402
REMARK INTER + INTRA:         -12.803
REMARK INTER:                 -10.630
REMARK INTRA:                  -2.173
REMARK UNBOUND:                -1.889
REMARK  7 active torsions:
REMARK  status: ('A' for Active; 'I' for Inactive)
REMARK    1  A    between atoms: C_7  and  C_8 
REMARK    2  A    between atoms: C_8  and  N_9 
REMARK       I    between atoms: N_9  and  C_11 
REMARK    3  A    between atoms: C_11  and  C_13 
REMARK    4  A    between atoms: C_15  and  C_16 
REMARK    5  A    between atoms: N_22  and  C_23 
REMARK    6  A    between atoms: C_30  and  O_31 
REMARK    7  A    between atoms: C_33  and  O_34 
ROOT
HETATM    1  C   UNL     1       3.023   7.017  24.352  0.00  0.00     0.066 C 
HETATM    2  C   UNL     1       2.820   6.257  23.177  0.00  0.00     0.038 C 
HETATM    3  C   UNL     1       3.641   5.154  22.883  0.00  0.00     0.046 C 
HETATM    4  C   UNL     1       4.541   4.713  23.864  0.00  0.00     0.082 C 
HETATM    5  C   UNL     1       4.797   5.490  24.981  0.00  0.00     0.075 C 
HETATM    6  C   UNL     1       4.088   6.666  25.201  0.00  0.00     0.084 C 
ENDROOT
BRANCH   3   7
HETATM    7  C   UNL     1       3.666   4.432  21.581  0.00  0.00     0.172 C 
HETATM    8  N   UNL     1       3.210   3.204  21.498  0.00  0.00    -0.151 NA
HETATM    9  N   UNL     1       3.497   2.821  20.224  0.00  0.00    -0.226 N 
HETATM   10  H   UNL     1       3.439   1.858  19.916  0.00  0.00     0.194 HD
HETATM   11  C   UNL     1       4.226   3.809  19.563  0.00  0.00     0.349 C 
HETATM   12  O   UNL     1       4.812   3.636  18.507  0.00  0.00    -0.245 OA
HETATM   13  N   UNL     1       4.222   4.901  20.417  0.00  0.00    -0.244 N 
BRANCH  13  14
HETATM   14  C   UNL     1       4.952   6.079  20.159  0.00  0.00     0.051 A 
HETATM   15  C   UNL     1       6.306   6.151  20.532  0.00  0.00     0.031 A 
HETATM   16  C   UNL     1       7.026   7.343  20.422  0.00  0.00     0.002 A 
HETATM   17  C   UNL     1       6.405   8.485  19.941  0.00  0.00     0.001 A 
HETATM   18  C   UNL     1       5.083   8.412  19.498  0.00  0.00     0.009 A 
HETATM   19  C   UNL     1       4.351   7.209  19.562  0.00  0.00    -0.035 A 
HETATM   20  C   UNL     1       2.938   7.276  19.046  0.00  0.00     0.050 C 
ENDBRANCH  13  14
ENDBRANCH   3   7
BRANCH   4  21
HETATM   21  O   UNL     1       5.206   3.518  23.804  0.00  0.00    -0.360 OA
HETATM   22  H   UNL     1       6.066   3.625  24.271  0.00  0.00     0.217 HD
ENDBRANCH   4  21
BRANCH   1  23
HETATM   23  C   UNL     1       1.934   7.954  24.772  0.00  0.00     0.256 C 
HETATM   24  N   UNL     1       2.061   9.343  24.718  0.00  0.00    -0.348 N 
HETATM   25  C   UNL     1       3.201  10.035  24.140  0.00  0.00     0.153 C 
HETATM   26  O   UNL     1       0.913   7.407  25.191  0.00  0.00    -0.267 OA
BRANCH  24  27
HETATM   27  C   UNL     1       1.175  10.154  25.562  0.00  0.00     0.164 C 
BRANCH  27  28
HETATM   28  C   UNL     1       0.024  10.942  24.942  0.00  0.00    -0.034 A 
HETATM   29  C   UNL     1       0.067  12.245  24.406  0.00  0.00    -0.054 A 
HETATM   30  C   UNL     1       1.275  13.134  24.475  0.00  0.00     0.049 C 
HETATM   31  C   UNL     1      -1.071  12.762  23.743  0.00  0.00     0.007 A 
HETATM   32  C   UNL     1      -2.246  12.025  23.614  0.00  0.00     0.001 A 
HETATM   33  C   UNL     1      -2.308  10.748  24.147  0.00  0.00     0.001 A 
HETATM   34  C   UNL     1      -1.188  10.215  24.793  0.00  0.00     0.009 A 
ENDBRANCH  27  28
ENDBRANCH  24  27
ENDBRANCH   1  23
BRANCH   6  35
HETATM   35  O   UNL     1       4.447   7.426  26.276  0.00  0.00    -0.360 OA
HETATM   36  H   UNL     1       5.371   7.197  26.500  0.00  0.00     0.217 HD
ENDBRANCH   6  35
TORSDOF 7
ENDMDL
MODEL 6
REMARK VINA RESULT:    -8.064      2.600      6.952
REMARK INTER + INTRA:         -12.782
REMARK INTER:                 -10.887
REMARK INTRA:                  -1.895
REMARK UNBOUND:                -1.889
REMARK  7 active torsions:
REMARK  status: ('A' for Active; 'I' for Inactive)
REMARK    1  A    between atoms: C_7  and  C_8 
REMARK    2  A    between atoms: C_8  and  N_9 
REMARK       I    between atoms: N_9  and  C_11 
REMARK    3  A    between atoms: C_11  and  C_13 
REMARK    4  A    between atoms: C_15  and  C_16 
REMARK    5  A    between atoms: N_22  and  C_23 
REMARK    6  A    between atoms: C_30  and  O_31 
REMARK    7  A    between atoms: C_33  and  O_34 
ROOT
HETATM    1  C   UNL     1       4.336   8.332  20.535  0.00  0.00     0.066 C 
HETATM    2  C   UNL     1       3.135   7.755  20.059  0.00  0.00     0.038 C 
HETATM    3  C   UNL     1       3.110   7.045  18.846  0.00  0.00     0.046 C 
HETATM    4  C   UNL     1       4.328   6.763  18.212  0.00  0.00     0.082 C 
HETATM    5  C   UNL     1       5.495   7.383  18.629  0.00  0.00     0.075 C 
HETATM    6  C   UNL     1       5.495   8.210  19.747  0.00  0.00     0.084 C 
ENDROOT
BRANCH   3   7
HETATM    7  C   UNL     1       1.874   6.599  18.144  0.00  0.00     0.172 C 
HETATM    8  N   UNL     1       1.176   7.452  17.431  0.00  0.00    -0.151 NA
HETATM    9  N   UNL     1       0.074   6.751  17.047  0.00  0.00    -0.226 N 
HETATM   10  H   UNL     1      -0.743   7.193  16.646  0.00  0.00     0.194 HD
HETATM   11  C   UNL     1       0.070   5.482  17.625  0.00  0.00     0.349 C 
HETATM   12  O   UNL     1      -0.900   4.741  17.643  0.00  0.00    -0.245 OA
HETATM   13  N   UNL     1       1.308   5.352  18.236  0.00  0.00    -0.244 N 
BRANCH  13  14
HETATM   14  C   UNL     1       1.659   4.242  19.030  0.00  0.00     0.051 A 
HETATM   15  C   UNL     1       1.566   4.334  20.430  0.00  0.00     0.031 A 
HETATM   16  C   UNL     1       2.033   3.309  21.257  0.00  0.00     0.002 A 
HETATM   17  C   UNL     1       2.606   2.176  20.699  0.00  0.00     0.001 A 
HETATM   18  C   UNL     1       2.640   2.038  19.310  0.00  0.00     0.009 A 
HETATM   19  C   UNL     1       2.135   3.041  18.458  0.00  0.00    -0.035 A 
HETATM   20  C   UNL     1       2.234   2.756  16.983  0.00  0.00     0.050 C 
ENDBRANCH  13  14
ENDBRANCH   3   7
BRANCH   4  21
HETATM   21  O   UNL     1       4.461   5.878  17.177  0.00  0.00    -0.360 OA
HETATM   22  H   UNL     1       5.144   5.216  17.430  0.00  0.00     0.217 HD
ENDBRANCH   4  21
BRANCH   1  23
HETATM   23  C   UNL     1       4.375   8.779  21.963  0.00  0.00     0.256 C 
HETATM   24  N   UNL     1       4.480   7.894  23.036  0.00  0.00    -0.348 N 
HETATM   25  C   UNL     1       4.686   6.462  22.894  0.00  0.00     0.153 C 
HETATM   26  O   UNL     1       4.288   9.997  22.126  0.00  0.00    -0.267 OA
BRANCH  24  27
HETATM   27  C   UNL     1       4.044   8.354  24.359  0.00  0.00     0.164 C 
BRANCH  27  28
HETATM   28  C   UNL     1       2.558   8.503  24.677  0.00  0.00    -0.034 A 
HETATM   29  C   UNL     1       1.810   9.697  24.741  0.00  0.00    -0.054 A 
HETATM   30  C   UNL     1       2.415  11.066  24.620  0.00  0.00     0.049 C 
HETATM   31  C   UNL     1       0.407   9.630  24.910  0.00  0.00     0.007 A 
HETATM   32  C   UNL     1      -0.263   8.415  25.029  0.00  0.00     0.001 A 
HETATM   33  C   UNL     1       0.460   7.234  24.981  0.00  0.00     0.001 A 
HETATM   34  C   UNL     1       1.846   7.280  24.800  0.00  0.00     0.009 A 
ENDBRANCH  27  28
ENDBRANCH  24  27
ENDBRANCH   1  23
BRANCH   6  35
HETATM   35  O   UNL     1       6.658   8.854  20.054  0.00  0.00    -0.360 OA
HETATM   36  H   UNL     1       6.971   9.296  19.240  0.00  0.00     0.217 HD
ENDBRANCH   6  35
TORSDOF 7
ENDMDL
MODEL 7
REMARK VINA RESULT:    -7.982      7.404     10.241
REMARK INTER + INTRA:         -12.671
REMARK INTER:                 -10.683
REMARK INTRA:                  -1.989
REMARK UNBOUND:                -1.889
REMARK  7 active torsions:
REMARK  status: ('A' for Active; 'I' for Inactive)
REMARK    1  A    between atoms: C_7  and  C_8 
REMARK    2  A    between atoms: C_8  and  N_9 
REMARK       I    between atoms: N_9  and  C_11 
REMARK    3  A    between atoms: C_11  and  C_13 
REMARK    4  A    between atoms: C_15  and  C_16 
REMARK    5  A    between atoms: N_22  and  C_23 
REMARK    6  A    between atoms: C_30  and  O_31 
REMARK    7  A    between atoms: C_33  and  O_34 
ROOT
HETATM    1  C   UNL     1       0.985   9.099  25.467  0.00  0.00     0.066 C 
HETATM    2  C   UNL     1       2.152   8.630  26.114  0.00  0.00     0.038 C 
HETATM    3  C   UNL     1       2.411   7.252  26.220  0.00  0.00     0.046 C 
HETATM    4  C   UNL     1       1.587   6.363  25.516  0.00  0.00     0.082 C 
HETATM    5  C   UNL     1       0.405   6.805  24.944  0.00  0.00     0.075 C 
HETATM    6  C   UNL     1       0.071   8.155  24.967  0.00  0.00     0.084 C 
ENDROOT
BRANCH   3   7
HETATM    7  C   UNL     1       3.475   6.646  27.068  0.00  0.00     0.172 C 
HETATM    8  N   UNL     1       4.487   6.023  26.511  0.00  0.00    -0.151 NA
HETATM    9  N   UNL     1       5.181   5.500  27.559  0.00  0.00    -0.226 N 
HETATM   10  H   UNL     1       5.907   4.804  27.442  0.00  0.00     0.194 HD
HETATM   11  C   UNL     1       4.513   5.736  28.760  0.00  0.00     0.349 C 
HETATM   12  O   UNL     1       4.783   5.181  29.813  0.00  0.00    -0.245 OA
HETATM   13  N   UNL     1       3.469   6.590  28.439  0.00  0.00    -0.244 N 
BRANCH  13  14
HETATM   14  C   UNL     1       2.486   6.982  29.370  0.00  0.00     0.051 A 
HETATM   15  C   UNL     1       1.388   6.138  29.614  0.00  0.00     0.031 A 
HETATM   16  C   UNL     1       0.324   6.549  30.422  0.00  0.00     0.002 A 
HETATM   17  C   UNL     1       0.336   7.812  30.994  0.00  0.00     0.001 A 
HETATM   18  C   UNL     1       1.452   8.633  30.820  0.00  0.00     0.009 A 
HETATM   19  C   UNL     1       2.554   8.222  30.044  0.00  0.00    -0.035 A 
HETATM   20  C   UNL     1       3.688   9.207  29.945  0.00  0.00     0.050 C 
ENDBRANCH  13  14
ENDBRANCH   3   7
BRANCH   4  21
HETATM   21  O   UNL     1       1.878   5.038  25.333  0.00  0.00    -0.360 OA
HETATM   22  H   UNL     1       2.389   4.729  26.116  0.00  0.00     0.217 HD
ENDBRANCH   4  21
BRANCH   1  23
HETATM   23  C   UNL     1       0.929  10.549  25.098  0.00  0.00     0.256 C 
HETATM   24  N   UNL     1       0.053  11.455  25.697  0.00  0.00    -0.348 N 
HETATM   25  C   UNL     1      -0.809  11.132  26.822  0.00  0.00     0.153 C 
HETATM   26  O   UNL     1       1.706  10.885  24.203  0.00  0.00    -0.267 OA
BRANCH  24  27
HETATM   27  C   UNL     1      -0.265  12.693  24.976  0.00  0.00     0.164 C 
BRANCH  27  28
HETATM   28  C   UNL     1      -0.909  12.639  23.593  0.00  0.00    -0.034 A 
HETATM   29  C   UNL     1      -2.166  12.097  23.253  0.00  0.00    -0.054 A 
HETATM   30  C   UNL     1      -3.042  11.354  24.220  0.00  0.00     0.049 C 
HETATM   31  C   UNL     1      -2.663  12.265  21.939  0.00  0.00     0.007 A 
HETATM   32  C   UNL     1      -1.939  12.941  20.960  0.00  0.00     0.001 A 
HETATM   33  C   UNL     1      -0.697  13.468  21.275  0.00  0.00     0.001 A 
HETATM   34  C   UNL     1      -0.197  13.325  22.573  0.00  0.00     0.009 A 
ENDBRANCH  27  28
ENDBRANCH  24  27
ENDBRANCH   1  23
BRANCH   6  35
HETATM   35  O   UNL     1      -1.145   8.511  24.460  0.00  0.00    -0.360 OA
HETATM   36  H   UNL     1      -1.239   8.073  23.591  0.00  0.00     0.217 HD
ENDBRANCH   6  35
TORSDOF 7
ENDMDL
MODEL 8
REMARK VINA RESULT:    -7.916      1.990      6.242
REMARK INTER + INTRA:         -12.582
REMARK INTER:                 -10.275
REMARK INTRA:                  -2.307
REMARK UNBOUND:                -1.889
REMARK  7 active torsions:
REMARK  status: ('A' for Active; 'I' for Inactive)
REMARK    1  A    between atoms: C_7  and  C_8 
REMARK    2  A    between atoms: C_8  and  N_9 
REMARK       I    between atoms: N_9  and  C_11 
REMARK    3  A    between atoms: C_11  and  C_13 
REMARK    4  A    between atoms: C_15  and  C_16 
REMARK    5  A    between atoms: N_22  and  C_23 
REMARK    6  A    between atoms: C_30  and  O_31 
REMARK    7  A    between atoms: C_33  and  O_34 
ROOT
HETATM    1  C   UNL     1       2.019   7.174  18.284  0.00  0.00     0.066 C 
HETATM    2  C   UNL     1       1.733   5.878  18.773  0.00  0.00     0.038 C 
HETATM    3  C   UNL     1       0.819   5.044  18.105  0.00  0.00     0.046 C 
HETATM    4  C   UNL     1       0.341   5.448  16.851  0.00  0.00     0.082 C 
HETATM    5  C   UNL     1       0.557   6.740  16.401  0.00  0.00     0.075 C 
HETATM    6  C   UNL     1       1.341   7.622  17.136  0.00  0.00     0.084 C 
ENDROOT
BRANCH   3   7
HETATM    7  C   UNL     1       0.275   3.768  18.648  0.00  0.00     0.172 C 
HETATM    8  N   UNL     1      -1.009   3.647  18.888  0.00  0.00    -0.151 NA
HETATM    9  N   UNL     1      -1.131   2.427  19.480  0.00  0.00    -0.226 N 
HETATM   10  H   UNL     1      -1.975   2.131  19.953  0.00  0.00     0.194 HD
HETATM   11  C   UNL     1       0.122   1.851  19.684  0.00  0.00     0.349 C 
HETATM   12  O   UNL     1       0.321   0.882  20.399  0.00  0.00    -0.245 OA
HETATM   13  N   UNL     1       1.019   2.678  19.026  0.00  0.00    -0.244 N 
BRANCH  13  14
HETATM   14  C   UNL     1       2.416   2.497  19.087  0.00  0.00     0.051 A 
HETATM   15  C   UNL     1       3.105   2.818  20.270  0.00  0.00     0.031 A 
HETATM   16  C   UNL     1       4.501   2.785  20.327  0.00  0.00     0.002 A 
HETATM   17  C   UNL     1       5.232   2.436  19.202  0.00  0.00     0.001 A 
HETATM   18  C   UNL     1       4.561   2.045  18.042  0.00  0.00     0.009 A 
HETATM   19  C   UNL     1       3.153   2.030  17.976  0.00  0.00    -0.035 A 
HETATM   20  C   UNL     1       2.565   1.583  16.664  0.00  0.00     0.050 C 
ENDBRANCH  13  14
ENDBRANCH   3   7
BRANCH   4  21
HETATM   21  O   UNL     1      -0.343   4.626  15.997  0.00  0.00    -0.360 OA
HETATM   22  H   UNL     1      -1.140   5.111  15.682  0.00  0.00     0.217 HD
ENDBRANCH   4  21
BRANCH   1  23
HETATM   23  C   UNL     1       3.222   7.876  18.835  0.00  0.00     0.256 C 
HETATM   24  N   UNL     1       4.493   7.300  18.864  0.00  0.00    -0.348 N 
HETATM   25  C   UNL     1       4.821   6.020  18.259  0.00  0.00     0.153 C 
HETATM   26  O   UNL     1       3.004   9.002  19.283  0.00  0.00    -0.267 OA
BRANCH  24  27
HETATM   27  C   UNL     1       5.474   7.835  19.815  0.00  0.00     0.164 C 
BRANCH  27  28
HETATM   28  C   UNL     1       5.411   7.450  21.291  0.00  0.00    -0.034 A 
HETATM   29  C   UNL     1       4.807   8.173  22.340  0.00  0.00    -0.054 A 
HETATM   30  C   UNL     1       4.214   9.543  22.175  0.00  0.00     0.049 C 
HETATM   31  C   UNL     1       4.723   7.591  23.627  0.00  0.00     0.007 A 
HETATM   32  C   UNL     1       5.234   6.323  23.896  0.00  0.00     0.001 A 
HETATM   33  C   UNL     1       5.842   5.606  22.878  0.00  0.00     0.001 A 
HETATM   34  C   UNL     1       5.921   6.160  21.596  0.00  0.00     0.009 A 
ENDBRANCH  27  28
ENDBRANCH  24  27
ENDBRANCH   1  23
BRANCH   6  35
HETATM   35  O   UNL     1       1.446   8.903  16.679  0.00  0.00    -0.360 OA
HETATM   36  H   UNL     1       2.356   9.207  16.865  0.00  0.00     0.217 HD
ENDBRANCH   6  35
TORSDOF 7
ENDMDL
MODEL 9
REMARK VINA RESULT:    -7.844      6.691     10.440
REMARK INTER + INTRA:         -12.484
REMARK INTER:                 -10.595
REMARK INTRA:                  -1.889
REMARK UNBOUND:                -1.889
REMARK  7 active torsions:
REMARK  status: ('A' for Active; 'I' for Inactive)
REMARK    1  A    between atoms: C_7  and  C_8 
REMARK    2  A    between atoms: C_8  and  N_9 
REMARK       I    between atoms: N_9  and  C_11 
REMARK    3  A    between atoms: C_11  and  C_13 
REMARK    4  A    between atoms: C_15  and  C_16 
REMARK    5  A    between atoms: N_22  and  C_23 
REMARK    6  A    between atoms: C_30  and  O_31 
REMARK    7  A    between atoms: C_33  and  O_34 
ROOT
HETATM    1  C   UNL     1       0.057   8.324  27.822  0.00  0.00     0.066 C 
HETATM    2  C   UNL     1       0.196   7.175  27.009  0.00  0.00     0.038 C 
HETATM    3  C   UNL     1       0.676   5.968  27.547  0.00  0.00     0.046 C 
HETATM    4  C   UNL     1       0.839   5.875  28.936  0.00  0.00     0.082 C 
HETATM    5  C   UNL     1       0.777   7.011  29.727  0.00  0.00     0.075 C 
HETATM    6  C   UNL     1       0.446   8.241  29.171  0.00  0.00     0.084 C 
ENDROOT
BRANCH   3   7
HETATM    7  C   UNL     1       1.075   4.777  26.747  0.00  0.00     0.172 C 
HETATM    8  N   UNL     1       0.621   3.587  27.063  0.00  0.00    -0.151 NA
HETATM    9  N   UNL     1       1.273   2.740  26.221  0.00  0.00    -0.226 N 
HETATM   10  H   UNL     1       1.276   1.736  26.349  0.00  0.00     0.194 HD
HETATM   11  C   UNL     1       2.208   3.431  25.452  0.00  0.00     0.349 C 
HETATM   12  O   UNL     1       3.085   2.894  24.795  0.00  0.00    -0.245 OA
HETATM   13  N   UNL     1       1.982   4.773  25.716  0.00  0.00    -0.244 N 
BRANCH  13  14
HETATM   14  C   UNL     1       2.801   5.803  25.211  0.00  0.00     0.051 A 
HETATM   15  C   UNL     1       2.479   6.404  23.981  0.00  0.00     0.031 A 
HETATM   16  C   UNL     1       3.337   7.328  23.379  0.00  0.00     0.002 A 
HETATM   17  C   UNL     1       4.534   7.663  23.993  0.00  0.00     0.001 A 
HETATM   18  C   UNL     1       4.834   7.131  25.248  0.00  0.00     0.009 A 
HETATM   19  C   UNL     1       3.963   6.230  25.892  0.00  0.00    -0.035 A 
HETATM   20  C   UNL     1       4.412   5.739  27.243  0.00  0.00     0.050 C 
ENDBRANCH  13  14
ENDBRANCH   3   7
BRANCH   4  21
HETATM   21  O   UNL     1       1.054   4.698  29.600  0.00  0.00    -0.360 OA
HETATM   22  H   UNL     1       0.789   3.960  29.004  0.00  0.00     0.217 HD
ENDBRANCH   4  21
BRANCH   1  23
HETATM   23  C   UNL     1      -0.755   9.462  27.286  0.00  0.00     0.256 C 
HETATM   24  N   UNL     1      -0.404  10.175  26.139  0.00  0.00    -0.348 N 
HETATM   25  C   UNL     1       0.707   9.825  25.270  0.00  0.00     0.153 C 
HETATM   26  O   UNL     1      -1.757   9.740  27.948  0.00  0.00    -0.267 OA
BRANCH  24  27
HETATM   27  C   UNL     1      -0.962  11.521  25.962  0.00  0.00     0.164 C 
BRANCH  27  28
HETATM   28  C   UNL     1      -1.079  12.134  24.568  0.00  0.00    -0.034 A 
HETATM   29  C   UNL     1      -0.194  13.045  23.955  0.00  0.00    -0.054 A 
HETATM   30  C   UNL     1       0.980  13.665  24.656  0.00  0.00     0.049 C 
HETATM   31  C   UNL     1      -0.389  13.397  22.598  0.00  0.00     0.007 A 
HETATM   32  C   UNL     1      -1.442  12.878  21.848  0.00  0.00     0.001 A 
HETATM   33  C   UNL     1      -2.327  11.993  22.440  0.00  0.00     0.001 A 
HETATM   34  C   UNL     1      -2.141  11.622  23.776  0.00  0.00     0.009 A 
ENDBRANCH  27  28
ENDBRANCH  24  27
ENDBRANCH   1  23
BRANCH   6  35
HETATM   35  O   UNL     1       0.484   9.333  29.989  0.00  0.00    -0.360 OA
HETATM   36  H   UNL     1       1.206   9.191  30.633  0.00  0.00     0.217 HD
ENDBRANCH   6  35
TORSDOF 7
ENDMDL
