REMARK  7 active torsions:
REMARK  status: ('A' for Active; 'I' for Inactive)
REMARK    1  A    between atoms: C_7  and  C_8 
REMARK    2  A    between atoms: C_8  and  N_9 
REMARK       I    between atoms: N_9  and  C_11 
REMARK    3  A    between atoms: C_11  and  C_13 
REMARK    4  A    between atoms: C_15  and  C_16 
REMARK    5  A    between atoms: N_22  and  C_23 
REMARK    6  A    between atoms: C_30  and  O_31 
REMARK    7  A    between atoms: C_33  and  O_34 
ROOT
HETATM    1  C   UNL     1      -1.232  -3.357  -0.089  0.00  0.00     0.066 C 
HETATM    2  C   UNL     1      -2.117  -4.458  -0.162  0.00  0.00     0.038 C 
HETATM    3  C   UNL     1      -3.411  -4.306  -0.691  0.00  0.00     0.046 C 
HETATM    4  C   UNL     1      -3.740  -3.092  -1.310  0.00  0.00     0.082 C 
HETATM    5  C   UNL     1      -2.911  -1.990  -1.178  0.00  0.00     0.075 C 
HETATM    6  C   UNL     1      -1.690  -2.100  -0.522  0.00  0.00     0.084 C 
ENDROOT
BRANCH   3   7
HETATM    7  C   UNL     1      -4.492  -5.327  -0.607  0.00  0.00     0.172 C 
HETATM    8  N   UNL     1      -5.376  -5.433  -1.571  0.00  0.00    -0.151 NA
HETATM    9  N   UNL     1      -6.266  -6.357  -1.115  0.00  0.00    -0.226 N 
HETATM   10  H   UNL     1      -7.165  -6.513  -1.553  0.00  0.00     0.194 HD
HETATM   11  C   UNL     1      -5.957  -6.738   0.190  0.00  0.00     0.349 C 
HETATM   12  O   UNL     1      -6.712  -7.363   0.917  0.00  0.00    -0.245 OA
HETATM   13  N   UNL     1      -4.730  -6.153   0.463  0.00  0.00    -0.244 N 
BRANCH  13  14
HETATM   14  C   UNL     1      -4.119  -6.210   1.732  0.00  0.00     0.051 A 
HETATM   15  C   UNL     1      -3.828  -5.016   2.415  0.00  0.00     0.031 A 
HETATM   16  C   UNL     1      -3.100  -5.022   3.608  0.00  0.00     0.002 A 
HETATM   17  C   UNL     1      -2.646  -6.221   4.136  0.00  0.00     0.001 A 
HETATM   18  C   UNL     1      -2.989  -7.420   3.509  0.00  0.00     0.009 A 
HETATM   19  C   UNL     1      -3.758  -7.439   2.328  0.00  0.00    -0.035 A 
HETATM   20  C   UNL     1      -4.055  -8.803   1.763  0.00  0.00     0.050 C 
ENDBRANCH  13  14
ENDBRANCH   3   7
BRANCH   4  21
HETATM   21  O   UNL     1      -4.860  -2.907  -2.075  0.00  0.00    -0.360 OA
HETATM   22  H   UNL     1      -5.224  -3.794  -2.299  0.00  0.00     0.217 HD
ENDBRANCH   4  21
BRANCH   1  23
HETATM   23  C   UNL     1       0.215  -3.643   0.168  0.00  0.00     0.256 C 
HETATM   24  N   UNL     1       0.975  -2.944   1.107  0.00  0.00    -0.348 N 
HETATM   25  C   UNL     1       0.430  -1.955   2.022  0.00  0.00     0.153 C 
HETATM   26  O   UNL     1       0.698  -4.536  -0.530  0.00  0.00    -0.267 OA
BRANCH  24  27
HETATM   27  C   UNL     1       2.435  -2.954   0.963  0.00  0.00     0.164 C 
BRANCH  27  28
HETATM   28  C   UNL     1       3.304  -3.745   1.938  0.00  0.00    -0.034 A 
HETATM   29  C   UNL     1       2.933  -4.876   2.694  0.00  0.00    -0.054 A 
HETATM   30  C   UNL     1       1.535  -5.422   2.745  0.00  0.00     0.049 C 
HETATM   31  C   UNL     1       3.917  -5.566   3.441  0.00  0.00     0.007 A 
HETATM   32  C   UNL     1       5.247  -5.153   3.464  0.00  0.00     0.001 A 
HETATM   33  C   UNL     1       5.624  -4.036   2.737  0.00  0.00     0.001 A 
HETATM   34  C   UNL     1       4.668  -3.350   1.981  0.00  0.00     0.009 A 
ENDBRANCH  27  28
ENDBRANCH  24  27
ENDBRANCH   1  23
BRANCH   6  35
HETATM   35  O   UNL     1      -0.960  -0.959  -0.355  0.00  0.00    -0.360 OA
HETATM   36  H   UNL     1      -1.585  -0.207  -0.372  0.00  0.00     0.217 HD
ENDBRANCH   6  35
TORSDOF 7
