MODEL 1
REMARK VINA RESULT:    -8.306      0.000      0.000
REMARK INTER + INTRA:         -10.977
REMARK INTER:                  -9.958
REMARK INTRA:                  -1.019
REMARK UNBOUND:                -0.972
REMARK  4 active torsions:
REMARK  status: ('A' for Active; 'I' for Inactive)
REMARK    1  A    between atoms: N_1  and  C_2 
REMARK    2  A    between atoms: C_7  and  C_9 
REMARK       I    between atoms: C_9  and  N_11 
REMARK    3  A    between atoms: N_11  and  C_12 
REMARK    4  A    between atoms: C_24  and  C_25 
ROOT
HETATM    1  C   UNL     1      -1.440   9.539  26.460  0.00  0.00     0.153 C 
HETATM    2  C   UNL     1      -0.607   9.886  25.241  0.00  0.00    -0.020 A 
HETATM    3  C   UNL     1       0.578   9.291  24.817  0.00  0.00     0.010 A 
HETATM    4  C   UNL     1       1.070   9.606  23.551  0.00  0.00     0.001 A 
HETATM    5  C   UNL     1       0.364  10.475  22.719  0.00  0.00     0.001 A 
HETATM    6  C   UNL     1      -0.826  11.071  23.155  0.00  0.00     0.013 A 
HETATM    7  C   UNL     1      -1.307  10.819  24.433  0.00  0.00    -0.016 A 
HETATM    8  C   UNL     1      -2.490  11.304  25.160  0.00  0.00    -0.003 A 
HETATM    9  C   UNL     1      -2.527  10.599  26.408  0.00  0.00    -0.019 A 
HETATM   10  C   UNL     1      -3.531  10.792  27.345  0.00  0.00     0.010 A 
HETATM   11  C   UNL     1      -4.526  11.713  27.052  0.00  0.00     0.002 A 
HETATM   12  C   UNL     1      -4.511  12.420  25.837  0.00  0.00     0.016 A 
HETATM   13  C   UNL     1      -3.498  12.239  24.863  0.00  0.00     0.022 A 
ENDROOT
BRANCH   1  14
HETATM   14  N   UNL     1      -0.732   9.396  27.718  0.00  0.00    -0.343 N 
HETATM   15  C   UNL     1      -0.502   8.112  28.196  0.00  0.00     0.273 C 
HETATM   16  O   UNL     1      -0.779   7.135  27.504  0.00  0.00    -0.266 OA
HETATM   17  H   UNL     1      -0.504  10.204  28.290  0.00  0.00     0.163 HD
BRANCH  15  18
HETATM   18  C   UNL     1       0.078   7.930  29.575  0.00  0.00     0.150 A 
HETATM   19  C   UNL     1       1.390   7.504  29.744  0.00  0.00     0.086 A 
HETATM   20  C   UNL     1       1.800   7.407  31.052  0.00  0.00     0.146 A 
HETATM   21 CL   UNL     1       2.523   7.068  28.529  0.00  0.00    -0.080 Cl
HETATM   22  N   UNL     1       1.009   7.670  32.108  0.00  0.00    -0.229 NA
HETATM   23  C   UNL     1      -0.251   8.030  31.847  0.00  0.00     0.199 A 
HETATM   24  N   UNL     1      -0.762   8.200  30.619  0.00  0.00    -0.211 NA
BRANCH  23  25
HETATM   25  N   UNL     1      -1.045   8.255  32.946  0.00  0.00    -0.271 NA
HETATM   26  H   UNL     1      -1.648   7.456  33.103  0.00  0.00     0.127 HD
HETATM   27  H   UNL     1      -0.522   8.608  33.732  0.00  0.00     0.127 HD
ENDBRANCH  23  25
ENDBRANCH  15  18
ENDBRANCH   1  14
BRANCH  13  28
HETATM   28  C   UNL     1      -3.557  13.046  23.633  0.00  0.00     0.140 A 
HETATM   29  N   UNL     1      -2.733  14.019  23.288  0.00  0.00    -0.227 NA
HETATM   30  C   UNL     1      -3.111  14.445  22.039  0.00  0.00     0.103 A 
HETATM   31  C   UNL     1      -2.521  15.375  21.181  0.00  0.00     0.150 A 
HETATM   32  C   UNL     1      -4.269  13.797  21.636  0.00  0.00     0.065 A 
HETATM   33  N   UNL     1      -3.099  15.664  19.984  0.00  0.00    -0.271 NA
HETATM   34  C   UNL     1      -4.251  15.034  19.650  0.00  0.00     0.118 A 
HETATM   35  C   UNL     1      -4.899  14.077  20.426  0.00  0.00     0.051 A 
HETATM   36  N   UNL     1      -4.532  12.916  22.658  0.00  0.00    -0.338 N 
HETATM   37  H   UNL     1      -5.286  12.247  22.675  0.00  0.00     0.167 HD
ENDBRANCH  13  28
TORSDOF 4
ENDMDL
MODEL 2
REMARK VINA RESULT:    -8.204      3.162      9.713
REMARK INTER + INTRA:         -10.854
REMARK INTER:                 -10.036
REMARK INTRA:                  -0.818
REMARK UNBOUND:                -0.972
REMARK  4 active torsions:
REMARK  status: ('A' for Active; 'I' for Inactive)
REMARK    1  A    between atoms: N_1  and  C_2 
REMARK    2  A    between atoms: C_7  and  C_9 
REMARK       I    between atoms: C_9  and  N_11 
REMARK    3  A    between atoms: N_11  and  C_12 
REMARK    4  A    between atoms: C_24  and  C_25 
ROOT
HETATM    1  C   UNL     1      -2.623  11.892  23.455  0.00  0.00     0.153 C 
HETATM    2  C   UNL     1      -3.220  11.748  24.842  0.00  0.00    -0.020 A 
HETATM    3  C   UNL     1      -4.425  12.261  25.311  0.00  0.00     0.010 A 
HETATM    4  C   UNL     1      -4.900  11.830  26.550  0.00  0.00     0.001 A 
HETATM    5  C   UNL     1      -4.190  10.876  27.281  0.00  0.00     0.001 A 
HETATM    6  C   UNL     1      -2.977  10.367  26.801  0.00  0.00     0.013 A 
HETATM    7  C   UNL     1      -2.454  10.823  25.598  0.00  0.00    -0.016 A 
HETATM    8  C   UNL     1      -1.221  10.497  24.866  0.00  0.00    -0.003 A 
HETATM    9  C   UNL     1      -1.281  11.198  23.618  0.00  0.00    -0.019 A 
HETATM   10  C   UNL     1      -0.284  11.103  22.659  0.00  0.00     0.010 A 
HETATM   11  C   UNL     1       0.812  10.300  22.937  0.00  0.00     0.002 A 
HETATM   12  C   UNL     1       0.898   9.603  24.155  0.00  0.00     0.016 A 
HETATM   13  C   UNL     1      -0.109   9.683  25.149  0.00  0.00     0.022 A 
ENDROOT
BRANCH   1  14
HETATM   14  N   UNL     1      -2.600  13.227  22.887  0.00  0.00    -0.343 N 
HETATM   15  C   UNL     1      -2.841  13.362  21.526  0.00  0.00     0.273 C 
HETATM   16  O   UNL     1      -3.188  12.390  20.859  0.00  0.00    -0.266 OA
HETATM   17  H   UNL     1      -2.312  14.029  23.439  0.00  0.00     0.163 HD
BRANCH  15  18
HETATM   18  C   UNL     1      -2.659  14.708  20.873  0.00  0.00     0.150 A 
HETATM   19  C   UNL     1      -3.575  15.175  19.938  0.00  0.00     0.086 A 
HETATM   20  C   UNL     1      -3.306  16.428  19.443  0.00  0.00     0.146 A 
HETATM   21 CL   UNL     1      -4.962  14.367  19.325  0.00  0.00    -0.080 Cl
HETATM   22  N   UNL     1      -2.232  17.159  19.795  0.00  0.00    -0.229 NA
HETATM   23  C   UNL     1      -1.383  16.608  20.667  0.00  0.00     0.199 A 
HETATM   24  N   UNL     1      -1.552  15.413  21.253  0.00  0.00    -0.211 NA
BRANCH  23  25
HETATM   25  N   UNL     1      -0.276  17.362  20.977  0.00  0.00    -0.271 NA
HETATM   26  H   UNL     1      -0.505  18.347  20.919  0.00  0.00     0.127 HD
HETATM   27  H   UNL     1       0.188  17.038  21.811  0.00  0.00     0.127 HD
ENDBRANCH  23  25
ENDBRANCH  15  18
ENDBRANCH   1  14
BRANCH  13  28
HETATM   28  C   UNL     1       0.086   8.935  26.403  0.00  0.00     0.140 A 
HETATM   29  N   UNL     1       0.903   9.251  27.392  0.00  0.00    -0.227 NA
HETATM   30  C   UNL     1       0.712   8.325  28.386  0.00  0.00     0.103 A 
HETATM   31  C   UNL     1       1.247   8.254  29.675  0.00  0.00     0.150 A 
HETATM   32  C   UNL     1      -0.169   7.339  27.968  0.00  0.00     0.065 A 
HETATM   33  N   UNL     1       0.933   7.211  30.489  0.00  0.00    -0.271 NA
HETATM   34  C   UNL     1       0.099   6.251  30.022  0.00  0.00     0.118 A 
HETATM   35  C   UNL     1      -0.501   6.247  28.766  0.00  0.00     0.051 A 
HETATM   36  N   UNL     1      -0.553   7.745  26.712  0.00  0.00    -0.338 N 
HETATM   37  H   UNL     1      -1.229   7.280  26.126  0.00  0.00     0.167 HD
ENDBRANCH  13  28
TORSDOF 4
ENDMDL
MODEL 3
REMARK VINA RESULT:    -7.737      3.132      9.801
REMARK INTER + INTRA:         -10.292
REMARK INTER:                  -9.298
REMARK INTRA:                  -0.993
REMARK UNBOUND:                -0.972
REMARK  4 active torsions:
REMARK  status: ('A' for Active; 'I' for Inactive)
REMARK    1  A    between atoms: N_1  and  C_2 
REMARK    2  A    between atoms: C_7  and  C_9 
REMARK       I    between atoms: C_9  and  N_11 
REMARK    3  A    between atoms: N_11  and  C_12 
REMARK    4  A    between atoms: C_24  and  C_25 
ROOT
HETATM    1  C   UNL     1      -0.908   9.659  24.909  0.00  0.00     0.153 C 
HETATM    2  C   UNL     1      -0.917   9.803  26.419  0.00  0.00    -0.020 A 
HETATM    3  C   UNL     1      -1.907  10.369  27.218  0.00  0.00     0.010 A 
HETATM    4  C   UNL     1      -1.827  10.204  28.600  0.00  0.00     0.001 A 
HETATM    5  C   UNL     1      -0.791   9.455  29.159  0.00  0.00     0.001 A 
HETATM    6  C   UNL     1       0.201   8.891  28.347  0.00  0.00     0.013 A 
HETATM    7  C   UNL     1       0.176   9.089  26.973  0.00  0.00    -0.016 A 
HETATM    8  C   UNL     1       1.071   8.649  25.892  0.00  0.00    -0.003 A 
HETATM    9  C   UNL     1       0.465   9.059  24.660  0.00  0.00    -0.019 A 
HETATM   10  C   UNL     1       1.030   8.788  23.423  0.00  0.00     0.010 A 
HETATM   11  C   UNL     1       2.234   8.099  23.394  0.00  0.00     0.002 A 
HETATM   12  C   UNL     1       2.851   7.687  24.589  0.00  0.00     0.016 A 
HETATM   13  C   UNL     1       2.292   7.951  25.864  0.00  0.00     0.022 A 
ENDROOT
BRANCH   1  14
HETATM   14  N   UNL     1      -1.252  10.838  24.136  0.00  0.00    -0.343 N 
HETATM   15  C   UNL     1      -2.510  10.890  23.549  0.00  0.00     0.273 C 
HETATM   16  O   UNL     1      -3.342  10.019  23.790  0.00  0.00    -0.266 OA
HETATM   17  H   UNL     1      -0.563  11.557  23.937  0.00  0.00     0.163 HD
BRANCH  15  18
HETATM   18  C   UNL     1      -2.838  12.018  22.605  0.00  0.00     0.150 A 
HETATM   19  C   UNL     1      -2.035  12.279  21.502  0.00  0.00     0.086 A 
HETATM   20  C   UNL     1      -2.463  13.315  20.709  0.00  0.00     0.146 A 
HETATM   21 CL   UNL     1      -0.581  11.486  21.044  0.00  0.00    -0.080 Cl
HETATM   22  N   UNL     1      -3.556  14.057  20.968  0.00  0.00    -0.229 NA
HETATM   23  C   UNL     1      -4.242  13.759  22.076  0.00  0.00     0.199 A 
HETATM   24  N   UNL     1      -3.952  12.750  22.910  0.00  0.00    -0.211 NA
BRANCH  23  25
HETATM   25  N   UNL     1      -5.330  14.558  22.334  0.00  0.00    -0.271 NA
HETATM   26  H   UNL     1      -5.141  15.148  23.135  0.00  0.00     0.127 HD
HETATM   27  H   UNL     1      -5.688  15.000  21.501  0.00  0.00     0.127 HD
ENDBRANCH  23  25
ENDBRANCH  15  18
ENDBRANCH   1  14
BRANCH  13  28
HETATM   28  C   UNL     1       3.028   7.501  27.057  0.00  0.00     0.140 A 
HETATM   29  N   UNL     1       2.781   6.420  27.776  0.00  0.00    -0.227 NA
HETATM   30  C   UNL     1       3.749   6.349  28.746  0.00  0.00     0.103 A 
HETATM   31  C   UNL     1       4.008   5.361  29.698  0.00  0.00     0.150 A 
HETATM   32  C   UNL     1       4.561   7.473  28.704  0.00  0.00     0.065 A 
HETATM   33  N   UNL     1       5.021   5.522  30.592  0.00  0.00    -0.271 NA
HETATM   34  C   UNL     1       5.761   6.655  30.538  0.00  0.00     0.118 A 
HETATM   35  C   UNL     1       5.595   7.681  29.612  0.00  0.00     0.051 A 
HETATM   36  N   UNL     1       4.088   8.187  27.628  0.00  0.00    -0.338 N 
HETATM   37  H   UNL     1       4.479   9.048  27.278  0.00  0.00     0.167 HD
ENDBRANCH  13  28
TORSDOF 4
ENDMDL
MODEL 4
REMARK VINA RESULT:    -7.673      3.155      9.359
REMARK INTER + INTRA:         -10.215
REMARK INTER:                  -9.719
REMARK INTRA:                  -0.496
REMARK UNBOUND:                -0.972
REMARK  4 active torsions:
REMARK  status: ('A' for Active; 'I' for Inactive)
REMARK    1  A    between atoms: N_1  and  C_2 
REMARK    2  A    between atoms: C_7  and  C_9 
REMARK       I    between atoms: C_9  and  N_11 
REMARK    3  A    between atoms: N_11  and  C_12 
REMARK    4  A    between atoms: C_24  and  C_25 
ROOT
HETATM    1  C   UNL     1      -1.107  10.523  23.566  0.00  0.00     0.153 C 
HETATM    2  C   UNL     1      -1.842  10.984  24.811  0.00  0.00    -0.020 A 
HETATM    3  C   UNL     1      -2.911  11.872  24.893  0.00  0.00     0.010 A 
HETATM    4  C   UNL     1      -3.590  11.993  26.105  0.00  0.00     0.001 A 
HETATM    5  C   UNL     1      -3.220  11.209  27.198  0.00  0.00     0.001 A 
HETATM    6  C   UNL     1      -2.142  10.319  27.106  0.00  0.00     0.013 A 
HETATM    7  C   UNL     1      -1.413  10.223  25.928  0.00  0.00    -0.016 A 
HETATM    8  C   UNL     1      -0.246   9.412  25.548  0.00  0.00    -0.003 A 
HETATM    9  C   UNL     1      -0.010   9.652  24.155  0.00  0.00    -0.019 A 
HETATM   10  C   UNL     1       1.009   9.029  23.452  0.00  0.00     0.010 A 
HETATM   11  C   UNL     1       1.831   8.148  24.141  0.00  0.00     0.002 A 
HETATM   12  C   UNL     1       1.624   7.898  25.509  0.00  0.00     0.016 A 
HETATM   13  C   UNL     1       0.588   8.521  26.248  0.00  0.00     0.022 A 
ENDROOT
BRANCH   1  14
HETATM   14  N   UNL     1      -0.688  11.553  22.634  0.00  0.00    -0.343 N 
HETATM   15  C   UNL     1       0.156  12.553  23.100  0.00  0.00     0.273 C 
HETATM   16  O   UNL     1       0.628  12.486  24.233  0.00  0.00    -0.266 OA
HETATM   17  H   UNL     1      -1.080  11.608  21.698  0.00  0.00     0.163 HD
BRANCH  15  18
HETATM   18  C   UNL     1       0.474  13.726  22.210  0.00  0.00     0.150 A 
HETATM   19  C   UNL     1      -0.392  14.809  22.122  0.00  0.00     0.086 A 
HETATM   20  C   UNL     1       0.032  15.822  21.298  0.00  0.00     0.146 A 
HETATM   21 CL   UNL     1      -1.915  15.007  22.893  0.00  0.00    -0.080 Cl
HETATM   22  N   UNL     1       1.179  15.786  20.594  0.00  0.00    -0.229 NA
HETATM   23  C   UNL     1       1.926  14.684  20.708  0.00  0.00     0.199 A 
HETATM   24  N   UNL     1       1.644  13.645  21.507  0.00  0.00    -0.211 NA
BRANCH  23  25
HETATM   25  N   UNL     1       3.071  14.660  19.947  0.00  0.00    -0.271 NA
HETATM   26  H   UNL     1       2.937  15.212  19.108  0.00  0.00     0.127 HD
HETATM   27  H   UNL     1       3.899  14.834  20.495  0.00  0.00     0.127 HD
ENDBRANCH  23  25
ENDBRANCH  15  18
ENDBRANCH   1  14
BRANCH  13  28
HETATM   28  C   UNL     1       0.469   8.212  27.683  0.00  0.00     0.140 A 
HETATM   29  N   UNL     1       0.820   8.992  28.689  0.00  0.00    -0.227 NA
HETATM   30  C   UNL     1       0.469   8.342  29.846  0.00  0.00     0.103 A 
HETATM   31  C   UNL     1       0.527   8.764  31.176  0.00  0.00     0.150 A 
HETATM   32  C   UNL     1      -0.015   7.074  29.562  0.00  0.00     0.065 A 
HETATM   33  N   UNL     1       0.147   7.924  32.177  0.00  0.00    -0.271 NA
HETATM   34  C   UNL     1      -0.281   6.680  31.853  0.00  0.00     0.118 A 
HETATM   35  C   UNL     1      -0.397   6.180  30.559  0.00  0.00     0.051 A 
HETATM   36  N   UNL     1      -0.008   7.013  28.189  0.00  0.00    -0.338 N 
HETATM   37  H   UNL     1      -0.341   6.240  27.634  0.00  0.00     0.167 HD
ENDBRANCH  13  28
TORSDOF 4
ENDMDL
MODEL 5
REMARK VINA RESULT:    -7.591      3.735      9.328
REMARK INTER + INTRA:         -10.116
REMARK INTER:                  -9.754
REMARK INTRA:                  -0.362
REMARK UNBOUND:                -0.972
REMARK  4 active torsions:
REMARK  status: ('A' for Active; 'I' for Inactive)
REMARK    1  A    between atoms: N_1  and  C_2 
REMARK    2  A    between atoms: C_7  and  C_9 
REMARK       I    between atoms: C_9  and  N_11 
REMARK    3  A    between atoms: N_11  and  C_12 
REMARK    4  A    between atoms: C_24  and  C_25 
ROOT
HETATM    1  C   UNL     1      -1.363  13.797  24.369  0.00  0.00     0.153 C 
HETATM    2  C   UNL     1       0.117  13.794  24.036  0.00  0.00    -0.020 A 
HETATM    3  C   UNL     1       0.871  14.824  23.482  0.00  0.00     0.010 A 
HETATM    4  C   UNL     1       2.260  14.701  23.459  0.00  0.00     0.001 A 
HETATM    5  C   UNL     1       2.874  13.578  24.016  0.00  0.00     0.001 A 
HETATM    6  C   UNL     1       2.107  12.546  24.570  0.00  0.00     0.013 A 
HETATM    7  C   UNL     1       0.720  12.618  24.552  0.00  0.00    -0.016 A 
HETATM    8  C   UNL     1      -0.326  11.700  25.028  0.00  0.00    -0.003 A 
HETATM    9  C   UNL     1      -1.580  12.371  24.845  0.00  0.00    -0.019 A 
HETATM   10  C   UNL     1      -2.791  11.803  25.210  0.00  0.00     0.010 A 
HETATM   11  C   UNL     1      -2.772  10.530  25.765  0.00  0.00     0.002 A 
HETATM   12  C   UNL     1      -1.556   9.850  25.952  0.00  0.00     0.016 A 
HETATM   13  C   UNL     1      -0.307  10.410  25.589  0.00  0.00     0.022 A 
ENDROOT
BRANCH   1  14
HETATM   14  N   UNL     1      -2.265  14.284  23.342  0.00  0.00    -0.343 N 
HETATM   15  C   UNL     1      -2.260  13.641  22.111  0.00  0.00     0.273 C 
HETATM   16  O   UNL     1      -1.602  12.616  21.950  0.00  0.00    -0.266 OA
HETATM   17  H   UNL     1      -2.808  15.132  23.476  0.00  0.00     0.163 HD
BRANCH  15  18
HETATM   18  C   UNL     1      -3.057  14.222  20.972  0.00  0.00     0.150 A 
HETATM   19  C   UNL     1      -2.784  15.495  20.488  0.00  0.00     0.086 A 
HETATM   20  C   UNL     1      -3.565  15.890  19.429  0.00  0.00     0.146 A 
HETATM   21 CL   UNL     1      -1.620  16.618  21.069  0.00  0.00    -0.080 Cl
HETATM   22  N   UNL     1      -4.546  15.137  18.898  0.00  0.00    -0.229 NA
HETATM   23  C   UNL     1      -4.765  13.944  19.459  0.00  0.00     0.199 A 
HETATM   24  N   UNL     1      -4.049  13.426  20.468  0.00  0.00    -0.211 NA
BRANCH  23  25
HETATM   25  N   UNL     1      -5.799  13.215  18.921  0.00  0.00    -0.271 NA
HETATM   26  H   UNL     1      -5.441  12.580  18.217  0.00  0.00     0.127 HD
HETATM   27  H   UNL     1      -6.410  12.835  19.627  0.00  0.00     0.127 HD
ENDBRANCH  23  25
ENDBRANCH  15  18
ENDBRANCH   1  14
BRANCH  13  28
HETATM   28  C   UNL     1       0.909   9.607  25.802  0.00  0.00     0.140 A 
HETATM   29  N   UNL     1       1.443   9.277  26.964  0.00  0.00    -0.227 NA
HETATM   30  C   UNL     1       2.519   8.467  26.699  0.00  0.00     0.103 A 
HETATM   31  C   UNL     1       3.364   7.769  27.565  0.00  0.00     0.150 A 
HETATM   32  C   UNL     1       2.732   8.376  25.332  0.00  0.00     0.065 A 
HETATM   33  N   UNL     1       4.402   7.043  27.070  0.00  0.00    -0.271 NA
HETATM   34  C   UNL     1       4.594   7.016  25.729  0.00  0.00     0.118 A 
HETATM   35  C   UNL     1       3.793   7.656  24.788  0.00  0.00     0.051 A 
HETATM   36  N   UNL     1       1.702   9.103  24.784  0.00  0.00    -0.338 N 
HETATM   37  H   UNL     1       1.522   9.213  23.798  0.00  0.00     0.167 HD
ENDBRANCH  13  28
TORSDOF 4
ENDMDL
MODEL 6
REMARK VINA RESULT:    -7.584      2.827      9.560
REMARK INTER + INTRA:         -10.108
REMARK INTER:                  -8.974
REMARK INTRA:                  -1.134
REMARK UNBOUND:                -0.972
REMARK  4 active torsions:
REMARK  status: ('A' for Active; 'I' for Inactive)
REMARK    1  A    between atoms: N_1  and  C_2 
REMARK    2  A    between atoms: C_7  and  C_9 
REMARK       I    between atoms: C_9  and  N_11 
REMARK    3  A    between atoms: N_11  and  C_12 
REMARK    4  A    between atoms: C_24  and  C_25 
ROOT
HETATM    1  C   UNL     1      -1.392  11.659  24.135  0.00  0.00     0.153 C 
HETATM    2  C   UNL     1      -2.409  11.575  25.257  0.00  0.00    -0.020 A 
HETATM    3  C   UNL     1      -3.684  12.133  25.298  0.00  0.00     0.010 A 
HETATM    4  C   UNL     1      -4.548  11.755  26.325  0.00  0.00     0.001 A 
HETATM    5  C   UNL     1      -4.146  10.808  27.268  0.00  0.00     0.001 A 
HETATM    6  C   UNL     1      -2.861  10.254  27.219  0.00  0.00     0.013 A 
HETATM    7  C   UNL     1      -1.962  10.657  26.241  0.00  0.00    -0.016 A 
HETATM    8  C   UNL     1      -0.570  10.276  25.956  0.00  0.00    -0.003 A 
HETATM    9  C   UNL     1      -0.199  10.938  24.741  0.00  0.00    -0.019 A 
HETATM   10  C   UNL     1       1.051  10.787  24.159  0.00  0.00     0.010 A 
HETATM   11  C   UNL     1       1.970   9.966  24.796  0.00  0.00     0.002 A 
HETATM   12  C   UNL     1       1.633   9.308  25.992  0.00  0.00     0.016 A 
HETATM   13  C   UNL     1       0.363   9.445  26.604  0.00  0.00     0.022 A 
ENDROOT
BRANCH   1  14
HETATM   14  N   UNL     1      -1.140  12.974  23.575  0.00  0.00    -0.343 N 
HETATM   15  C   UNL     1      -1.164  13.110  22.193  0.00  0.00     0.273 C 
HETATM   16  O   UNL     1      -1.514  12.170  21.484  0.00  0.00    -0.266 OA
HETATM   17  H   UNL     1      -0.851  13.750  24.162  0.00  0.00     0.163 HD
BRANCH  15  18
HETATM   18  C   UNL     1      -0.743  14.417  21.572  0.00  0.00     0.150 A 
HETATM   19  C   UNL     1       0.596  14.786  21.528  0.00  0.00     0.086 A 
HETATM   20  C   UNL     1       0.843  15.987  20.910  0.00  0.00     0.146 A 
HETATM   21 CL   UNL     1       1.945  13.938  22.170  0.00  0.00    -0.080 Cl
HETATM   22  N   UNL     1      -0.117  16.782  20.402  0.00  0.00    -0.229 NA
HETATM   23  C   UNL     1      -1.380  16.364  20.531  0.00  0.00     0.199 A 
HETATM   24  N   UNL     1      -1.751  15.197  21.076  0.00  0.00    -0.211 NA
BRANCH  23  25
HETATM   25  N   UNL     1      -2.340  17.215  20.037  0.00  0.00    -0.271 NA
HETATM   26  H   UNL     1      -3.041  17.390  20.747  0.00  0.00     0.127 HD
HETATM   27  H   UNL     1      -1.941  18.012  19.566  0.00  0.00     0.127 HD
ENDBRANCH  23  25
ENDBRANCH  15  18
ENDBRANCH   1  14
BRANCH  13  28
HETATM   28  C   UNL     1       0.115   8.734  27.869  0.00  0.00     0.140 A 
HETATM   29  N   UNL     1      -0.174   7.453  28.011  0.00  0.00    -0.227 NA
HETATM   30  C   UNL     1      -0.252   7.203  29.359  0.00  0.00     0.103 A 
HETATM   31  C   UNL     1      -0.432   6.002  30.049  0.00  0.00     0.150 A 
HETATM   32  C   UNL     1      -0.116   8.380  30.079  0.00  0.00     0.065 A 
HETATM   33  N   UNL     1      -0.509   5.999  31.407  0.00  0.00    -0.271 NA
HETATM   34  C   UNL     1      -0.410   7.179  32.065  0.00  0.00     0.118 A 
HETATM   35  C   UNL     1      -0.206   8.420  31.468  0.00  0.00     0.051 A 
HETATM   36  N   UNL     1       0.117   9.335  29.118  0.00  0.00    -0.338 N 
HETATM   37  H   UNL     1       0.307  10.309  29.293  0.00  0.00     0.167 HD
ENDBRANCH  13  28
TORSDOF 4
ENDMDL
MODEL 7
REMARK VINA RESULT:    -7.538      5.449     10.082
REMARK INTER + INTRA:         -10.052
REMARK INTER:                  -9.025
REMARK INTRA:                  -1.027
REMARK UNBOUND:                -0.972
REMARK  4 active torsions:
REMARK  status: ('A' for Active; 'I' for Inactive)
REMARK    1  A    between atoms: N_1  and  C_2 
REMARK    2  A    between atoms: C_7  and  C_9 
REMARK       I    between atoms: C_9  and  N_11 
REMARK    3  A    between atoms: N_11  and  C_12 
REMARK    4  A    between atoms: C_24  and  C_25 
ROOT
HETATM    1  C   UNL     1       3.639   7.342  23.845  0.00  0.00     0.153 C 
HETATM    2  C   UNL     1       4.028   6.483  25.033  0.00  0.00    -0.020 A 
HETATM    3  C   UNL     1       5.146   5.664  25.167  0.00  0.00     0.010 A 
HETATM    4  C   UNL     1       5.440   5.131  26.422  0.00  0.00     0.001 A 
HETATM    5  C   UNL     1       4.643   5.447  27.523  0.00  0.00     0.001 A 
HETATM    6  C   UNL     1       3.519   6.270  27.378  0.00  0.00     0.013 A 
HETATM    7  C   UNL     1       3.172   6.766  26.128  0.00  0.00    -0.016 A 
HETATM    8  C   UNL     1       2.063   7.619  25.673  0.00  0.00    -0.003 A 
HETATM    9  C   UNL     1       2.296   7.898  24.287  0.00  0.00    -0.019 A 
HETATM   10  C   UNL     1       1.452   8.700  23.534  0.00  0.00     0.010 A 
HETATM   11  C   UNL     1       0.336   9.238  24.160  0.00  0.00     0.002 A 
HETATM   12  C   UNL     1       0.082   8.977  25.517  0.00  0.00     0.016 A 
HETATM   13  C   UNL     1       0.931   8.163  26.308  0.00  0.00     0.022 A 
ENDROOT
BRANCH   1  14
HETATM   14  N   UNL     1       3.683   6.711  22.539  0.00  0.00    -0.343 N 
HETATM   15  C   UNL     1       4.804   6.924  21.747  0.00  0.00     0.273 C 
HETATM   16  O   UNL     1       5.777   7.523  22.201  0.00  0.00    -0.266 OA
HETATM   17  H   UNL     1       2.878   6.216  22.165  0.00  0.00     0.163 HD
BRANCH  15  18
HETATM   18  C   UNL     1       4.811   6.426  20.325  0.00  0.00     0.150 A 
HETATM   19  C   UNL     1       4.828   5.064  20.048  0.00  0.00     0.086 A 
HETATM   20  C   UNL     1       4.803   4.747  18.712  0.00  0.00     0.146 A 
HETATM   21 CL   UNL     1       4.903   3.761  21.165  0.00  0.00    -0.080 Cl
HETATM   22  N   UNL     1       4.791   5.661  17.724  0.00  0.00    -0.229 NA
HETATM   23  C   UNL     1       4.821   6.947  18.087  0.00  0.00     0.199 A 
HETATM   24  N   UNL     1       4.806   7.388  19.353  0.00  0.00    -0.211 NA
BRANCH  23  25
HETATM   25  N   UNL     1       4.847   7.855  17.056  0.00  0.00    -0.271 NA
HETATM   26  H   UNL     1       4.200   7.570  16.331  0.00  0.00     0.127 HD
HETATM   27  H   UNL     1       4.795   8.808  17.381  0.00  0.00     0.127 HD
ENDBRANCH  23  25
ENDBRANCH  15  18
ENDBRANCH   1  14
BRANCH  13  28
HETATM   28  C   UNL     1       0.565   7.928  27.714  0.00  0.00     0.140 A 
HETATM   29  N   UNL     1       0.022   6.834  28.216  0.00  0.00    -0.227 NA
HETATM   30  C   UNL     1      -0.083   7.019  29.573  0.00  0.00     0.103 A 
HETATM   31  C   UNL     1      -0.493   6.142  30.579  0.00  0.00     0.150 A 
HETATM   32  C   UNL     1       0.304   8.306  29.917  0.00  0.00     0.065 A 
HETATM   33  N   UNL     1      -0.546   6.562  31.871  0.00  0.00    -0.271 NA
HETATM   34  C   UNL     1      -0.196   7.840  32.154  0.00  0.00     0.118 A 
HETATM   35  C   UNL     1       0.248   8.777  31.226  0.00  0.00     0.051 A 
HETATM   36  N   UNL     1       0.711   8.862  28.727  0.00  0.00    -0.338 N 
HETATM   37  H   UNL     1       1.099   9.786  28.615  0.00  0.00     0.167 HD
ENDBRANCH  13  28
TORSDOF 4
ENDMDL
MODEL 8
REMARK VINA RESULT:    -7.504      3.303      9.248
REMARK INTER + INTRA:         -10.011
REMARK INTER:                  -9.776
REMARK INTRA:                  -0.235
REMARK UNBOUND:                -0.972
REMARK  4 active torsions:
REMARK  status: ('A' for Active; 'I' for Inactive)
REMARK    1  A    between atoms: N_1  and  C_2 
REMARK    2  A    between atoms: C_7  and  C_9 
REMARK       I    between atoms: C_9  and  N_11 
REMARK    3  A    between atoms: N_11  and  C_12 
REMARK    4  A    between atoms: C_24  and  C_25 
ROOT
HETATM    1  C   UNL     1      -2.256  13.957  24.263  0.00  0.00     0.153 C 
HETATM    2  C   UNL     1      -0.827  13.510  24.021  0.00  0.00    -0.020 A 
HETATM    3  C   UNL     1       0.167  14.174  23.309  0.00  0.00     0.010 A 
HETATM    4  C   UNL     1       1.477  13.703  23.390  0.00  0.00     0.001 A 
HETATM    5  C   UNL     1       1.781  12.608  24.199  0.00  0.00     0.001 A 
HETATM    6  C   UNL     1       0.773  11.945  24.910  0.00  0.00     0.013 A 
HETATM    7  C   UNL     1      -0.548  12.359  24.800  0.00  0.00    -0.016 A 
HETATM    8  C   UNL     1      -1.796  11.857  25.396  0.00  0.00    -0.003 A 
HETATM    9  C   UNL     1      -2.834  12.767  25.010  0.00  0.00    -0.019 A 
HETATM   10  C   UNL     1      -4.151  12.614  25.416  0.00  0.00     0.010 A 
HETATM   11  C   UNL     1      -4.461  11.526  26.221  0.00  0.00     0.002 A 
HETATM   12  C   UNL     1      -3.462  10.618  26.612  0.00  0.00     0.016 A 
HETATM   13  C   UNL     1      -2.110  10.755  26.211  0.00  0.00     0.022 A 
ENDROOT
BRANCH   1  14
HETATM   14  N   UNL     1      -3.002  14.424  23.109  0.00  0.00    -0.343 N 
HETATM   15  C   UNL     1      -3.105  13.578  22.012  0.00  0.00     0.273 C 
HETATM   16  O   UNL     1      -2.684  12.426  22.077  0.00  0.00    -0.266 OA
HETATM   17  H   UNL     1      -3.348  15.377  23.056  0.00  0.00     0.163 HD
BRANCH  15  18
HETATM   18  C   UNL     1      -3.725  14.093  20.739  0.00  0.00     0.150 A 
HETATM   19  C   UNL     1      -3.342  15.317  20.205  0.00  0.00     0.086 A 
HETATM   20  C   UNL     1      -3.964  15.653  19.027  0.00  0.00     0.146 A 
HETATM   21 CL   UNL     1      -2.223  16.448  20.854  0.00  0.00    -0.080 Cl
HETATM   22  N   UNL     1      -4.895  14.889  18.426  0.00  0.00    -0.229 NA
HETATM   23  C   UNL     1      -5.230  13.749  19.037  0.00  0.00     0.199 A 
HETATM   24  N   UNL     1      -4.671  13.289  20.166  0.00  0.00    -0.211 NA
BRANCH  23  25
HETATM   25  N   UNL     1      -6.212  13.010  18.419  0.00  0.00    -0.271 NA
HETATM   26  H   UNL     1      -7.012  12.921  19.034  0.00  0.00     0.127 HD
HETATM   27  H   UNL     1      -6.379  13.311  17.472  0.00  0.00     0.127 HD
ENDBRANCH  23  25
ENDBRANCH  15  18
ENDBRANCH   1  14
BRANCH  13  28
HETATM   28  C   UNL     1      -1.143   9.736  26.652  0.00  0.00     0.140 A 
HETATM   29  N   UNL     1      -0.606   8.784  25.910  0.00  0.00    -0.227 NA
HETATM   30  C   UNL     1       0.290   8.110  26.702  0.00  0.00     0.103 A 
HETATM   31  C   UNL     1       1.190   7.089  26.388  0.00  0.00     0.150 A 
HETATM   32  C   UNL     1       0.234   8.580  28.005  0.00  0.00     0.065 A 
HETATM   33  N   UNL     1       1.970   6.543  27.358  0.00  0.00    -0.271 NA
HETATM   34  C   UNL     1       1.852   7.008  28.625  0.00  0.00     0.118 A 
HETATM   35  C   UNL     1       1.004   8.035  29.029  0.00  0.00     0.051 A 
HETATM   36  N   UNL     1      -0.677   9.608  27.951  0.00  0.00    -0.338 N 
HETATM   37  H   UNL     1      -0.932  10.207  28.721  0.00  0.00     0.167 HD
ENDBRANCH  13  28
TORSDOF 4
ENDMDL
MODEL 9
REMARK VINA RESULT:    -7.403      1.487      1.825
REMARK INTER + INTRA:          -9.889
REMARK INTER:                  -8.918
REMARK INTRA:                  -0.972
REMARK UNBOUND:                -0.972
REMARK  4 active torsions:
REMARK  status: ('A' for Active; 'I' for Inactive)
REMARK    1  A    between atoms: N_1  and  C_2 
REMARK    2  A    between atoms: C_7  and  C_9 
REMARK       I    between atoms: C_9  and  N_11 
REMARK    3  A    between atoms: N_11  and  C_12 
REMARK    4  A    between atoms: C_24  and  C_25 
ROOT
HETATM    1  C   UNL     1      -0.789   9.447  26.205  0.00  0.00     0.153 C 
HETATM    2  C   UNL     1      -0.188   9.797  24.857  0.00  0.00    -0.020 A 
HETATM    3  C   UNL     1       0.866   9.166  24.201  0.00  0.00     0.010 A 
HETATM    4  C   UNL     1       1.123   9.499  22.872  0.00  0.00     0.001 A 
HETATM    5  C   UNL     1       0.312  10.421  22.210  0.00  0.00     0.001 A 
HETATM    6  C   UNL     1      -0.744  11.052  22.879  0.00  0.00     0.013 A 
HETATM    7  C   UNL     1      -0.984  10.781  24.219  0.00  0.00    -0.016 A 
HETATM    8  C   UNL     1      -1.984  11.292  25.170  0.00  0.00    -0.003 A 
HETATM    9  C   UNL     1      -1.816  10.552  26.385  0.00  0.00    -0.019 A 
HETATM   10  C   UNL     1      -2.613  10.757  27.501  0.00  0.00     0.010 A 
HETATM   11  C   UNL     1      -3.602  11.727  27.425  0.00  0.00     0.002 A 
HETATM   12  C   UNL     1      -3.786  12.470  26.246  0.00  0.00     0.016 A 
HETATM   13  C   UNL     1      -2.986  12.277  25.092  0.00  0.00     0.022 A 
ENDROOT
BRANCH   1  14
HETATM   14  N   UNL     1       0.138   9.236  27.301  0.00  0.00    -0.343 N 
HETATM   15  C   UNL     1       0.522   7.933  27.590  0.00  0.00     0.273 C 
HETATM   16  O   UNL     1       0.183   7.010  26.854  0.00  0.00    -0.266 OA
HETATM   17  H   UNL     1       0.417  10.000  27.910  0.00  0.00     0.163 HD
BRANCH  15  18
HETATM   18  C   UNL     1       1.347   7.662  28.822  0.00  0.00     0.150 A 
HETATM   19  C   UNL     1       0.774   7.087  29.950  0.00  0.00     0.086 A 
HETATM   20  C   UNL     1       1.643   6.868  30.990  0.00  0.00     0.146 A 
HETATM   21 CL   UNL     1      -0.871   6.653  30.193  0.00  0.00    -0.080 Cl
HETATM   22  N   UNL     1       2.947   7.199  30.962  0.00  0.00    -0.229 NA
HETATM   23  C   UNL     1       3.398   7.788  29.850  0.00  0.00     0.199 A 
HETATM   24  N   UNL     1       2.664   8.021  28.752  0.00  0.00    -0.211 NA
BRANCH  23  25
HETATM   25  N   UNL     1       4.724   8.150  29.866  0.00  0.00    -0.271 NA
HETATM   26  H   UNL     1       4.936   8.712  29.051  0.00  0.00     0.127 HD
HETATM   27  H   UNL     1       5.016   8.499  30.765  0.00  0.00     0.127 HD
ENDBRANCH  23  25
ENDBRANCH  15  18
ENDBRANCH   1  14
BRANCH  13  28
HETATM   28  C   UNL     1      -3.240  13.123  23.914  0.00  0.00     0.140 A 
HETATM   29  N   UNL     1      -2.545  14.183  23.539  0.00  0.00    -0.227 NA
HETATM   30  C   UNL     1      -3.084  14.620  22.355  0.00  0.00     0.103 A 
HETATM   31  C   UNL     1      -2.668  15.635  21.490  0.00  0.00     0.150 A 
HETATM   32  C   UNL     1      -4.213  13.883  22.034  0.00  0.00     0.065 A 
HETATM   33  N   UNL     1      -3.387  15.916  20.370  0.00  0.00    -0.271 NA
HETATM   34  C   UNL     1      -4.506  15.194  20.119  0.00  0.00     0.118 A 
HETATM   35  C   UNL     1      -4.984  14.151  20.906  0.00  0.00     0.051 A 
HETATM   36  N   UNL     1      -4.293  12.941  23.032  0.00  0.00    -0.338 N 
HETATM   37  H   UNL     1      -4.978  12.204  23.090  0.00  0.00     0.167 HD
ENDBRANCH  13  28
TORSDOF 4
ENDMDL
